REMARK  Name = ZINC39540257
REMARK  14 active torsions:
REMARK  status: ('A' for Active; 'I' for Inactive)
REMARK    1  A    between atoms: C_1  and  C_2
REMARK    2  A    between atoms: C_2  and  O_3
REMARK    3  A    between atoms: O_3  and  N_4
REMARK    4  A    between atoms: N_4  and  C_5
REMARK    5  A    between atoms: C_5  and  C_6
REMARK    6  A    between atoms: C_6  and  C_8
REMARK    7  A    between atoms: C_6  and  N_20
REMARK    8  A    between atoms: C_11  and  S_14
REMARK    9  A    between atoms: S_14  and  C_17
REMARK   10  A    between atoms: C_17  and  C_18
REMARK   11  A    between atoms: C_17  and  C_19
REMARK   12  A    between atoms: C_24  and  S_27
REMARK   13  A    between atoms: S_27  and  O_30
REMARK   14  A    between atoms: O_30  and  C_31
REMARK                            x       y       z     vdW  Elec       q    Type
REMARK                         _______ _______ _______ _____ _____    ______ ____
ROOT
ATOM      1  C   UNL     1       1.447  -3.873   2.588  0.00  0.00    +0.103 C 
ENDROOT
BRANCH   1   2
ATOM      2  N   UNL     1       2.071  -4.469   1.399  0.00  0.00    -0.296 NA
ATOM      3  C   UNL     1       3.094  -3.576   0.838  0.00  0.00    +0.066 C 
ATOM      4  C   UNL     1       3.759  -4.257  -0.361  0.00  0.00    -0.064 C 
ATOM      5  N   UNL     1       2.743  -4.564  -1.376  0.00  0.00    +0.398 N 
ATOM      6  C   UNL     1       1.741  -5.475  -0.808  0.00  0.00    +0.130 C 
ATOM      7  C   UNL     1       1.059  -4.805   0.386  0.00  0.00    +0.095 C 
ATOM      8  H   UNL     1       2.292  -3.710  -1.669  0.00  0.00    -0.083 HD
ATOM      9  H   UNL     1       3.183  -5.001  -2.171  0.00  0.00    -0.083 HD
BRANCH   6  10
ATOM     10  S   UNL     1       0.499  -5.870  -2.070  0.00  0.00    +0.109 S 
ATOM     11  O   UNL     1      -0.374  -6.886  -1.596  0.00  0.00    -0.138 OA
ATOM     12  O   UNL     1      -0.020  -4.675  -2.636  0.00  0.00    -0.138 OA
BRANCH  10  13
ATOM     13  O   UNL     1       1.282  -6.526  -3.198  0.00  0.00    -0.347 OA
BRANCH  13  14
ATOM     14  C   UNL     1       1.666  -7.803  -2.935  0.00  0.00    +0.156 A 
ATOM     15  C   UNL     1       2.885  -8.049  -2.320  0.00  0.00    +0.048 A 
ATOM     16  C   UNL     1       3.273  -9.347  -2.053  0.00  0.00    +0.004 A 
ATOM     17  C   UNL     1       2.448 -10.401  -2.399  0.00  0.00    +0.000 A 
ATOM     18  C   UNL     1       1.233 -10.159  -3.012  0.00  0.00    +0.004 A 
ATOM     19  C   UNL     1       0.838  -8.862  -3.276  0.00  0.00    +0.048 A 
ENDBRANCH  13  14
ENDBRANCH  10  13
ENDBRANCH   6  10
ENDBRANCH   1   2
BRANCH   1  20
ATOM     20  C   UNL     1       2.210  -4.292   3.818  0.00  0.00    -0.029 A 
ATOM     21  C   UNL     1       3.592  -4.252   3.821  0.00  0.00    +0.007 A 
ATOM     22  C   UNL     1       4.292  -4.637   4.950  0.00  0.00    +0.027 A 
ATOM     23  C   UNL     1       3.610  -5.060   6.075  0.00  0.00    +0.088 A 
ATOM     24  C   UNL     1       2.228  -5.099   6.072  0.00  0.00    +0.027 A 
ATOM     25  C   UNL     1       1.528  -4.710   4.945  0.00  0.00    +0.007 A 
BRANCH  23  26
ATOM     26  S   UNL     1       4.502  -5.551   7.513  0.00  0.00    -0.001 S 
ATOM     27  O   UNL     1       3.637  -6.457   8.184  0.00  0.00    -0.169 OA
ATOM     28  O   UNL     1       5.766  -5.981   7.027  0.00  0.00    -0.169 OA
BRANCH  26  29
ATOM     29  C   UNL     1       4.691  -4.032   8.486  0.00  0.00    +0.130 C 
ATOM     30  C   UNL     1       3.310  -3.477   8.839  0.00  0.00    +0.032 C 
ATOM     31  C   UNL     1       5.460  -4.342   9.772  0.00  0.00    +0.032 C 
ENDBRANCH  26  29
ENDBRANCH  23  26
ENDBRANCH   1  20
BRANCH   1  32
ATOM     32  C   UNL     1       1.472  -2.348   2.467  0.00  0.00    +0.134 C 
BRANCH  32  33
ATOM     33  N   UNL     1       0.672  -1.936   1.306  0.00  0.00    -0.199 NA
ATOM     34  H   UNL     1       1.050  -2.319   0.452  0.00  0.00    +0.154 HD
BRANCH  33  35
ATOM     35  O   UNL     1       0.574  -0.478   1.228  0.00  0.00    -0.300 OA
BRANCH  35  37
ATOM     36  C   UNL     1      -0.227   1.524   0.136  0.00  0.00    +0.036 C 
ATOM     37  C   UNL     1      -0.192  -0.006   0.118  0.00  0.00    +0.182 C 
ENDBRANCH  35  37
ENDBRANCH  33  35
ENDBRANCH  32  33
ENDBRANCH   1  32
TORSDOF 11
