REMARK  Name = ZINC66639615
REMARK  8 active torsions:
REMARK  status: ('A' for Active; 'I' for Inactive)
REMARK    1  A    between atoms: C_1  and  C_2
REMARK    2  A    between atoms: C_2  and  C_3
REMARK    3  A    between atoms: C_2  and  N_4
REMARK    4  A    between atoms: C_5  and  C_10
REMARK    5  A    between atoms: C_10  and  N_11
REMARK    6  A    between atoms: C_12  and  C_14
REMARK    7  A    between atoms: C_17  and  N_20
REMARK    8  A    between atoms: C_21  and  C_23
REMARK                            x       y       z     vdW  Elec       q    Type
REMARK                         _______ _______ _______ _____ _____    ______ ____
ROOT
ATOM      1  N   UNL     1      -1.409  -2.660   3.389  0.00  0.00    -0.308 N 
ATOM      2  C   UNL     1      -2.598  -3.249   3.626  0.00  0.00    +0.216 C 
ATOM      3  O   UNL     1      -3.515  -3.097   2.846  0.00  0.00    -0.276 OA
ATOM      4  H   UNL     1      -0.675  -2.782   4.013  0.00  0.00    +0.149 HD
ENDROOT
BRANCH   2   5
ATOM      5  C   UNL     1      -2.788  -4.096   4.857  0.00  0.00    +0.075 C 
ATOM      6  C   UNL     1      -1.798  -5.261   4.833  0.00  0.00    +0.014 C 
ATOM      7  C   UNL     1      -1.991  -6.121   6.084  0.00  0.00    +0.023 C 
ATOM      8  C   UNL     1      -3.420  -6.667   6.112  0.00  0.00    +0.073 C 
ATOM      9  C   UNL     1      -4.411  -5.502   6.136  0.00  0.00    +0.023 C 
ATOM     10  C   UNL     1      -4.217  -4.642   4.885  0.00  0.00    +0.014 C 
BRANCH   8  11
ATOM     11  N   UNL     1      -3.605  -7.490   7.310  0.00  0.00    -0.312 N 
ATOM     12  C   UNL     1      -4.543  -8.457   7.324  0.00  0.00    +0.216 C 
ATOM     13  O   UNL     1      -5.234  -8.646   6.346  0.00  0.00    -0.276 OA
ATOM     14  H   UNL     1      -3.052  -7.339   8.092  0.00  0.00    +0.149 HD
BRANCH  12  15
ATOM     15  C   UNL     1      -4.733  -9.304   8.556  0.00  0.00    +0.075 C 
ATOM     16  C   UNL     1      -3.452 -10.113   8.845  0.00  0.00    +0.013 C 
ATOM     17  C   UNL     1      -3.972 -11.477   9.362  0.00  0.00    +0.001 C 
ATOM     18  C   UNL     1      -5.219 -11.725   8.477  0.00  0.00    +0.001 C 
ATOM     19  C   UNL     1      -5.857 -10.329   8.323  0.00  0.00    +0.013 C 
ENDBRANCH  12  15
ENDBRANCH   8  11
ENDBRANCH   2   5
BRANCH   1  20
ATOM     20  C   UNL     1      -1.224  -1.837   2.192  0.00  0.00    +0.180 C 
BRANCH  20  22
ATOM     21  N   UNL     1       0.711  -0.489   1.189  0.00  0.00    -0.303 N 
ATOM     22  C   UNL     1       0.184  -1.299   2.165  0.00  0.00    +0.149 A 
ATOM     23  N   UNL     1       1.093  -1.524   3.057  0.00  0.00    -0.157 NA
ATOM     24  N   UNL     1       2.260  -0.850   2.671  0.00  0.00    -0.254 N 
ATOM     25  C   UNL     1       1.993  -0.222   1.507  0.00  0.00    +0.176 A 
ATOM     26  S   UNL     1       3.082   0.741   0.602  0.00  0.00    -0.011 S 
ATOM     27  H   UNL     1       3.103  -0.839   3.150  0.00  0.00    +0.191 HD
BRANCH  21  29
ATOM     28  C   UNL     1      -0.019   1.526   0.010  0.00  0.00    +0.030 C 
ATOM     29  C   UNL     1       0.002  -0.004   0.002  0.00  0.00    +0.085 C 
ATOM     30  C   UNL     1       0.718  -0.497  -1.257  0.00  0.00    +0.030 C 
ENDBRANCH  21  29
ENDBRANCH  20  22
ENDBRANCH   1  20
TORSDOF 6
