REMARK  Name = ZINC30953997
REMARK  9 active torsions:
REMARK  status: ('A' for Active; 'I' for Inactive)
REMARK    1  A    between atoms: C_1  and  C_2
REMARK    2  A    between atoms: C_2  and  N_3
REMARK    3  A    between atoms: C_4  and  C_34
REMARK    4  A    between atoms: C_5  and  N_9
REMARK    5  A    between atoms: C_6  and  C_8
REMARK    6  A    between atoms: C_10  and  C_12
REMARK    7  A    between atoms: C_12  and  S_13
REMARK    8  A    between atoms: S_13  and  C_14
REMARK    9  A    between atoms: N_27  and  C_28
REMARK                            x       y       z     vdW  Elec       q    Type
REMARK                         _______ _______ _______ _____ _____    ______ ____
ROOT
ATOM      1  C   UNL     1       2.902   2.638   0.373  0.00  0.00    +0.178 A 
ATOM      2  N   UNL     1       2.085   2.749   1.411  0.00  0.00    -0.215 NA
ATOM      3  C   UNL     1       1.085   1.881   1.495  0.00  0.00    +0.117 A 
ATOM      4  C   UNL     1       0.848   0.856   0.550  0.00  0.00    +0.076 A 
ATOM      5  C   UNL     1      -0.298  -0.001   0.810  0.00  0.00    -0.023 A 
ATOM      6  C   UNL     1      -1.017   0.269   1.923  0.00  0.00    -0.004 A 
ATOM      7  S   UNL     1      -0.211   1.662   2.672  0.00  0.00    -0.073 S 
ATOM      8  C   UNL     1      -2.233  -0.454   2.415  0.00  0.00    +0.043 C 
ATOM      9  C   UNL     1      -2.775  -1.327   1.274  0.00  0.00    +0.005 C 
ATOM     10  C   UNL     1      -1.610  -2.107   0.659  0.00  0.00    +0.005 C 
ATOM     11  C   UNL     1      -0.694  -1.154  -0.108  0.00  0.00    +0.037 C 
ATOM     12  C   UNL     1       1.751   0.764  -0.558  0.00  0.00    +0.268 A 
ATOM     13  O   UNL     1       1.630  -0.086  -1.423  0.00  0.00    -0.267 OA
ATOM     14  N   UNL     1       2.748   1.679  -0.585  0.00  0.00    -0.255 N 
ENDROOT
BRANCH  14  15
ATOM     15  C   UNL     1       3.664   1.640  -1.645  0.00  0.00    +0.052 A 
ATOM     16  C   UNL     1       3.377   2.292  -2.837  0.00  0.00    +0.026 A 
ATOM     17  C   UNL     1       4.284   2.257  -3.878  0.00  0.00    +0.002 A 
ATOM     18  C   UNL     1       5.472   1.563  -3.738  0.00  0.00    +0.000 A 
ATOM     19  C   UNL     1       5.758   0.908  -2.554  0.00  0.00    +0.002 A 
ATOM     20  C   UNL     1       4.857   0.945  -1.508  0.00  0.00    +0.026 A 
ENDBRANCH  14  15
BRANCH   1  21
ATOM     21  S   UNL     1       4.242   3.773   0.226  0.00  0.00    -0.078 S 
BRANCH  21  22
ATOM     22  C   UNL     1       3.969   4.775   1.709  0.00  0.00    +0.173 C 
BRANCH  22  24
ATOM     23  N   UNL     1       5.025   6.714   2.823  0.00  0.00    -0.282 N 
ATOM     24  C   UNL     1       5.028   5.844   1.794  0.00  0.00    +0.228 C 
ATOM     25  O   UNL     1       5.883   5.920   0.938  0.00  0.00    -0.275 OA
ATOM     26  H   UNL     1       4.293   6.602   3.637  0.00  0.00    +0.155 HD
BRANCH  23  29
ATOM     27  N   UNL     1       6.848   9.764   3.005  0.00  0.00    -0.267 N 
ATOM     28  C   UNL     1       5.674   9.082   3.038  0.00  0.00    +0.058 A 
ATOM     29  C   UNL     1       5.958   7.768   2.857  0.00  0.00    +0.077 A 
ATOM     30  C   UNL     1       7.348   7.644   2.715  0.00  0.00    +0.081 A 
ATOM     31  N   UNL     1       7.878   8.838   2.797  0.00  0.00    -0.174 NA
ATOM     32  C   UNL     1       8.102   6.357   2.499  0.00  0.00    +0.069 C 
ATOM     33  C   UNL     1       4.304   9.677   3.239  0.00  0.00    +0.067 C 
BRANCH  27  35
ATOM     34  C   UNL     1       7.202  11.549   4.640  0.00  0.00    +0.029 C 
ATOM     35  C   UNL     1       7.009  11.212   3.160  0.00  0.00    +0.140 C 
ENDBRANCH  27  35
ENDBRANCH  23  29
ENDBRANCH  22  24
ENDBRANCH  21  22
ENDBRANCH   1  21
TORSDOF 6
