REMARK  Name = ZINC01874848
REMARK  11 active torsions:
REMARK  status: ('A' for Active; 'I' for Inactive)
REMARK    1  A    between atoms: C_1  and  C_2
REMARK    2  A    between atoms: C_2  and  O_3
REMARK    3  A    between atoms: O_3  and  C_4
REMARK    4  A    between atoms: C_7  and  N_10
REMARK    5  A    between atoms: C_11  and  N_42
REMARK    6  A    between atoms: C_12  and  C_23
REMARK    7  A    between atoms: N_25  and  C_26
REMARK    8  A    between atoms: C_27  and  C_37
REMARK    9  A    between atoms: C_37  and  O_39
REMARK   10  A    between atoms: O_39  and  C_40
REMARK   11  A    between atoms: C_40  and  C_41
REMARK                            x       y       z     vdW  Elec       q    Type
REMARK                         _______ _______ _______ _____ _____    ______ ____
ROOT
ATOM      1  N   UNL     1      -1.989  -5.991  -0.013  0.00  0.00    -0.280 N 
ATOM      2  C   UNL     1      -1.609  -6.811  -1.032  0.00  0.00    +0.117 A 
ATOM      3  C   UNL     1      -1.911  -8.135  -0.729  0.00  0.00    +0.104 A 
ATOM      4  C   UNL     1      -2.536  -8.127   0.604  0.00  0.00    +0.123 A 
ATOM      5  C   UNL     1      -2.553  -6.720   1.016  0.00  0.00    +0.166 A 
ATOM      6  N   UNL     1      -3.056  -6.396   2.188  0.00  0.00    -0.225 NA
ATOM      7  C   UNL     1      -3.544  -7.349   2.992  0.00  0.00    +0.092 A 
ATOM      8  C   UNL     1      -4.084  -7.011   4.247  0.00  0.00    +0.030 A 
ATOM      9  C   UNL     1      -4.578  -7.987   5.056  0.00  0.00    +0.002 A 
ATOM     10  C   UNL     1      -4.557  -9.324   4.663  0.00  0.00    +0.002 A 
ATOM     11  C   UNL     1      -4.043  -9.690   3.458  0.00  0.00    +0.030 A 
ATOM     12  C   UNL     1      -3.523  -8.709   2.592  0.00  0.00    +0.090 A 
ATOM     13  N   UNL     1      -3.022  -9.057   1.401  0.00  0.00    -0.241 NA
ENDROOT
BRANCH   1  17
ATOM     14  C   UNL     1      -1.498  -1.849   0.006  0.00  0.00    +0.121 A 
ATOM     15  C   UNL     1      -0.387  -2.679  -0.003  0.00  0.00    +0.047 A 
ATOM     16  C   UNL     1      -0.548  -4.050  -0.009  0.00  0.00    +0.030 A 
ATOM     17  C   UNL     1      -1.824  -4.598  -0.006  0.00  0.00    +0.050 A 
ATOM     18  C   UNL     1      -2.936  -3.767   0.004  0.00  0.00    +0.030 A 
ATOM     19  C   UNL     1      -2.773  -2.396   0.016  0.00  0.00    +0.047 A 
BRANCH  14  20
ATOM     20  O   UNL     1      -1.339  -0.499   0.012  0.00  0.00    -0.492 OA
BRANCH  20  22
ATOM     21  C   UNL     1      -0.019   1.526   0.010  0.00  0.00    +0.048 C 
ATOM     22  C   UNL     1       0.002  -0.004   0.002  0.00  0.00    +0.225 C 
ENDBRANCH  20  22
ENDBRANCH  14  20
ENDBRANCH   1  17
BRANCH   3  23
ATOM     23  C   UNL     1      -1.666  -9.269  -1.544  0.00  0.00    +0.254 C 
ATOM     24  O   UNL     1      -0.612  -9.871  -1.448  0.00  0.00    -0.270 OA
ATOM     25  N   UNL     1      -2.600  -9.681  -2.424  0.00  0.00    -0.276 N 
ATOM     26  H   UNL     1      -3.439  -9.201  -2.500  0.00  0.00    +0.156 HD
BRANCH  25  27
ATOM     27  C   UNL     1      -2.361 -10.782  -3.215  0.00  0.00    +0.078 C 
ATOM     28  C   UNL     1      -3.212 -11.333  -4.173  0.00  0.00    +0.068 C 
ATOM     29  C   UNL     1      -2.728 -12.537  -4.838  0.00  0.00    +0.042 C 
ATOM     30  C   UNL     1      -3.347 -13.155  -6.044  0.00  0.00    +0.009 C 
ATOM     31  C   UNL     1      -3.002 -14.657  -6.044  0.00  0.00    +0.001 C 
ATOM     32  C   UNL     1      -1.493 -14.864  -5.937  0.00  0.00    +0.001 C 
ATOM     33  C   UNL     1      -0.924 -14.191  -4.678  0.00  0.00    +0.015 C 
ATOM     34  C   UNL     1      -1.192 -12.683  -4.820  0.00  0.00    +0.060 C 
ATOM     35  S   UNL     1      -0.892 -11.803  -3.236  0.00  0.00    -0.106 S 
BRANCH  28  36
ATOM     36  C   UNL     1      -4.455 -10.764  -4.476  0.00  0.00    +0.338 C 
ATOM     37  O   UNL     1      -4.822  -9.757  -3.897  0.00  0.00    -0.245 OA
BRANCH  36  38
ATOM     38  O   UNL     1      -5.247 -11.333  -5.412  0.00  0.00    -0.462 OA
BRANCH  38  39
ATOM     39  C   UNL     1      -6.501 -10.700  -5.671  0.00  0.00    +0.229 C 
ATOM     40  C   UNL     1      -7.253 -11.480  -6.751  0.00  0.00    +0.048 C 
ENDBRANCH  38  39
ENDBRANCH  36  38
ENDBRANCH  28  36
ENDBRANCH  25  27
ENDBRANCH   3  23
BRANCH   2  41
ATOM     41  N   UNL     1      -1.015  -6.391  -2.193  0.00  0.00    -0.343 N 
ATOM     42  H   UNL     1      -0.836  -5.448  -2.333  0.00  0.00    +0.144 HD
ATOM     43  H   UNL     1      -0.773  -7.037  -2.876  0.00  0.00    +0.144 HD
ENDBRANCH   2  41
TORSDOF 9
