REMARK  Name = ZINC09647345
REMARK  5 active torsions:
REMARK  status: ('A' for Active; 'I' for Inactive)
REMARK    1  A    between atoms: C_1  and  C_2
REMARK    2  A    between atoms: C_2  and  C_28
REMARK    3  A    between atoms: N_5  and  C_9
REMARK    4  A    between atoms: C_9  and  C_10
REMARK    5  A    between atoms: C_16  and  C_19
REMARK                            x       y       z     vdW  Elec       q    Type
REMARK                         _______ _______ _______ _____ _____    ______ ____
ROOT
ATOM      1  C   UNL     1       2.026   1.597   1.233  0.00  0.00    +0.047 C 
ATOM      2  C   UNL     1       1.158   1.862   0.001  0.00  0.00    +0.136 C 
ATOM      3  C   UNL     1       0.519   3.234   0.084  0.00  0.00    +0.251 C 
ATOM      4  O   UNL     1       1.086   4.304   0.132  0.00  0.00    -0.272 OA
ATOM      5  N   UNL     1      -0.811   3.016   0.095  0.00  0.00    -0.215 N 
ATOM      6  C   UNL     1      -1.098   1.711   0.025  0.00  0.00    +0.310 C 
ATOM      7  O   UNL     1      -2.230   1.268   0.015  0.00  0.00    -0.252 OA
ATOM      8  N   UNL     1       0.006   0.944  -0.029  0.00  0.00    -0.281 N 
ATOM      9  H   UNL     1       0.037  -0.024  -0.081  0.00  0.00    +0.152 HD
ENDROOT
BRANCH   2  10
ATOM     10  C   UNL     1       1.972   1.732  -1.261  0.00  0.00    -0.008 A 
ATOM     11  C   UNL     1       1.626   0.817  -2.207  0.00  0.00    +0.007 A 
ATOM     12  C   UNL     1       2.362   0.686  -3.382  0.00  0.00    +0.001 A 
ATOM     13  C   UNL     1       3.457   1.462  -3.613  0.00  0.00    +0.008 A 
ATOM     14  C   UNL     1       3.848   2.414  -2.657  0.00  0.00    -0.018 A 
ATOM     15  C   UNL     1       3.095   2.551  -1.464  0.00  0.00    -0.012 A 
ATOM     16  C   UNL     1       3.487   3.503  -0.507  0.00  0.00    +0.009 A 
ATOM     17  C   UNL     1       4.582   4.279  -0.738  0.00  0.00    +0.001 A 
ATOM     18  C   UNL     1       5.322   4.144  -1.911  0.00  0.00    +0.001 A 
ATOM     19  C   UNL     1       4.972   3.233  -2.860  0.00  0.00    +0.008 A 
ENDBRANCH   2  10
BRANCH   5  20
ATOM     20  C   UNL     1      -1.818   4.077   0.167  0.00  0.00    +0.213 C 
BRANCH  20  21
ATOM     21  C   UNL     1      -2.187   4.516  -1.227  0.00  0.00    +0.234 C 
ATOM     22  O   UNL     1      -1.660   3.993  -2.186  0.00  0.00    -0.274 OA
ATOM     23  N   UNL     1      -3.102   5.489  -1.407  0.00  0.00    -0.300 N 
ATOM     24  C   UNL     1      -3.753   6.127  -0.255  0.00  0.00    +0.108 C 
ATOM     25  C   UNL     1      -5.269   6.043  -0.430  0.00  0.00    +0.020 C 
ATOM     26  C   UNL     1      -5.657   6.641  -1.784  0.00  0.00    +0.013 C 
ATOM     27  C   UNL     1      -4.995   5.841  -2.907  0.00  0.00    +0.062 C 
ATOM     28  C   UNL     1      -3.472   5.927  -2.760  0.00  0.00    +0.118 C 
BRANCH  27  29
ATOM     29  C   UNL     1      -5.404   6.410  -4.241  0.00  0.00    +0.084 A 
ATOM     30  N   UNL     1      -6.032   5.815  -5.215  0.00  0.00    -0.244 NA
ATOM     31  C   UNL     1      -6.342   6.444  -6.369  0.00  0.00    +0.078 A 
ATOM     32  C   UNL     1      -7.013   5.940  -7.505  0.00  0.00    +0.029 A 
ATOM     33  C   UNL     1      -7.238   6.733  -8.587  0.00  0.00    +0.002 A 
ATOM     34  C   UNL     1      -6.821   8.056  -8.620  0.00  0.00    +0.001 A 
ATOM     35  C   UNL     1      -6.161   8.587  -7.527  0.00  0.00    +0.017 A 
ATOM     36  C   UNL     1      -5.929   7.794  -6.429  0.00  0.00    +0.039 A 
ATOM     37  S   UNL     1      -5.158   8.019  -4.846  0.00  0.00    -0.072 S 
ENDBRANCH  27  29
ENDBRANCH  20  21
ENDBRANCH   5  20
TORSDOF 4
