REMARK  Name = ZINC39688423
REMARK  7 active torsions:
REMARK  status: ('A' for Active; 'I' for Inactive)
REMARK    1  A    between atoms: C_1  and  C_2
REMARK    2  A    between atoms: C_2  and  C_4
REMARK    3  A    between atoms: C_2  and  N_12
REMARK    4  A    between atoms: C_4  and  C_5
REMARK    5  A    between atoms: C_13  and  C_15
REMARK    6  A    between atoms: C_26  and  C_28
REMARK    7  A    between atoms: C_34  and  C_36
REMARK                            x       y       z     vdW  Elec       q    Type
REMARK                         _______ _______ _______ _____ _____    ______ ____
ROOT
ATOM      1  C   UNL     1       0.712  -1.094  -3.598  0.00  0.00    +0.100 C 
ATOM      2  C   UNL     1       1.732  -0.041  -4.085  0.00  0.00    +0.121 C 
ATOM      3  N   UNL     1       1.653  -0.098  -5.564  0.00  0.00    -0.299 N 
ATOM      4  C   UNL     1       0.208  -0.272  -5.849  0.00  0.00    +0.115 C 
ATOM      5  C   UNL     1      -0.287  -1.243  -4.759  0.00  0.00    -0.004 C 
ATOM      6  C   UNL     1      -0.277  -2.675  -5.284  0.00  0.00    -0.010 C 
ATOM      7  C   UNL     1      -1.318  -2.812  -6.399  0.00  0.00    -0.082 C 
ATOM      8  N   UNL     1      -2.646  -2.470  -5.875  0.00  0.00    +0.379 N 
ATOM      9  C   UNL     1      -2.673  -1.063  -5.458  0.00  0.00    -0.082 C 
ATOM     10  C   UNL     1      -1.689  -0.852  -4.303  0.00  0.00    -0.010 C 
ATOM     11  C   UNL     1       2.665  -0.011  -6.449  0.00  0.00    +0.236 C 
ATOM     12  O   UNL     1       2.438  -0.076  -7.638  0.00  0.00    -0.274 OA
ATOM     13  H   UNL     1      -3.338  -2.620  -6.594  0.00  0.00    -0.086 HD
ATOM     14  H   UNL     1      -2.856  -3.059  -5.083  0.00  0.00    -0.086 HD
ENDROOT
BRANCH  11  15
ATOM     15  C   UNL     1       4.080   0.166  -5.961  0.00  0.00    +0.162 C 
ATOM     16  C   UNL     1       4.332   1.646  -5.606  0.00  0.00    +0.033 C 
ATOM     17  C   UNL     1       5.785   1.879  -6.096  0.00  0.00    +0.021 C 
ATOM     18  C   UNL     1       5.830   0.994  -7.367  0.00  0.00    +0.109 C 
ATOM     19  N   UNL     1       5.026  -0.198  -7.026  0.00  0.00    -0.283 N 
ATOM     20  C   UNL     1       5.138  -1.415  -7.595  0.00  0.00    +0.320 C 
ATOM     21  O   UNL     1       4.420  -2.322  -7.232  0.00  0.00    -0.266 OA
BRANCH  20  22
ATOM     22  C   UNL     1       6.156  -1.647  -8.681  0.00  0.00    +0.470 C 
ATOM     23  F   UNL     1       6.084  -2.976  -9.111  0.00  0.00    -0.162 F 
ATOM     24  F   UNL     1       5.892  -0.794  -9.758  0.00  0.00    -0.162 F 
ATOM     25  F   UNL     1       7.438  -1.387  -8.184  0.00  0.00    -0.162 F 
ENDBRANCH  20  22
ENDBRANCH  11  15
BRANCH   1  27
ATOM     26  N   UNL     1      -0.407  -1.492  -1.428  0.00  0.00    -0.312 N 
ATOM     27  C   UNL     1       0.006  -0.608  -2.358  0.00  0.00    +0.218 C 
ATOM     28  O   UNL     1      -0.190   0.578  -2.198  0.00  0.00    -0.275 OA
ATOM     29  H   UNL     1      -0.250  -2.440  -1.556  0.00  0.00    +0.149 HD
BRANCH  26  31
ATOM     30  C   UNL     1      -0.056  -0.618   0.829  0.00  0.00    +0.028 C 
ATOM     31  C   UNL     1      -1.092  -1.019  -0.223  0.00  0.00    +0.074 C 
BRANCH  31  32
ATOM     32  C   UNL     1      -1.977  -2.137   0.333  0.00  0.00    +0.057 C 
BRANCH  32  33
ATOM     33  C   UNL     1      -3.073  -2.448  -0.654  0.00  0.00    -0.045 A 
ATOM     34  C   UNL     1      -4.276  -1.770  -0.586  0.00  0.00    +0.006 A 
ATOM     35  C   UNL     1      -5.282  -2.054  -1.490  0.00  0.00    +0.038 A 
ATOM     36  C   UNL     1      -5.084  -3.017  -2.465  0.00  0.00    +0.123 A 
ATOM     37  C   UNL     1      -3.879  -3.695  -2.533  0.00  0.00    +0.038 A 
ATOM     38  C   UNL     1      -2.872  -3.406  -1.630  0.00  0.00    +0.006 A 
ATOM     39  F   UNL     1      -6.067  -3.295  -3.349  0.00  0.00    -0.205 F 
ENDBRANCH  32  33
ENDBRANCH  31  32
ENDBRANCH  26  31
ENDBRANCH   1  27
TORSDOF 6
