REMARK  Name = ZINC62788497
REMARK  4 active torsions:
REMARK  status: ('A' for Active; 'I' for Inactive)
REMARK    1  A    between atoms: C_3  and  C_17
REMARK    2  A    between atoms: C_4  and  N_8
REMARK    3  A    between atoms: N_8  and  C_9
REMARK    4  A    between atoms: C_17  and  N_19
REMARK                            x       y       z     vdW  Elec       q    Type
REMARK                         _______ _______ _______ _____ _____    ______ ____
ROOT
ATOM      1  C   UNL     1      -0.015   1.387   0.007  0.00  0.00    +0.021 A 
ATOM      2  C   UNL     1       1.167   2.095  -0.008  0.00  0.00    +0.013 A 
ATOM      3  C   UNL     1       2.388   1.414  -0.020  0.00  0.00    +0.024 A 
ATOM      4  C   UNL     1       2.399   0.010  -0.018  0.00  0.00    +0.039 A 
ATOM      5  C   UNL     1       1.199  -0.687  -0.003  0.00  0.00    +0.043 A 
ATOM      6  C   UNL     1      -0.000  -0.000   0.009  0.00  0.00    +0.043 A 
ATOM      7 CL   UNL     1      -1.498  -0.878   0.028  0.00  0.00    -0.083 Cl
ENDROOT
BRANCH   4   8
ATOM      8  N   UNL     1       3.606  -0.679  -0.031  0.00  0.00    -0.332 N 
ATOM      9  H   UNL     1       4.443  -0.193   0.036  0.00  0.00    +0.147 HD
BRANCH   8  10
ATOM     10  C   UNL     1       3.615  -2.139  -0.146  0.00  0.00    +0.157 C 
ATOM     11  C   UNL     1       4.903  -2.690   0.471  0.00  0.00    +0.033 C 
ATOM     12  C   UNL     1       5.023  -4.173   0.098  0.00  0.00    +0.021 C 
ATOM     13  C   UNL     1       5.259  -4.282  -1.409  0.00  0.00    +0.104 C 
ATOM     14  N   UNL     1       4.266  -3.502  -2.138  0.00  0.00    -0.314 N 
ATOM     15  C   UNL     1       3.539  -2.525  -1.596  0.00  0.00    +0.233 C 
ATOM     16  O   UNL     1       2.773  -1.917  -2.312  0.00  0.00    -0.274 OA
ATOM     17  H   UNL     1       4.128  -3.705  -3.076  0.00  0.00    +0.149 HD
ENDBRANCH   8  10
ENDBRANCH   4   8
BRANCH   3  18
ATOM     18  C   UNL     1       3.654   2.165  -0.036  0.00  0.00    +0.079 C 
ATOM     19  S   UNL     1       4.343   2.713   1.432  0.00  0.00    -0.035 S 
BRANCH  18  20
ATOM     20  N   UNL     1       4.271   2.421  -1.207  0.00  0.00    -0.352 N 
ATOM     21  H   UNL     1       3.880   2.111  -2.039  0.00  0.00    +0.143 HD
ATOM     22  H   UNL     1       5.105   2.916  -1.218  0.00  0.00    +0.143 HD
ENDBRANCH  18  20
ENDBRANCH   3  18
TORSDOF 4
