REMARK  Name = ZINC00974947
REMARK  8 active torsions:
REMARK  status: ('A' for Active; 'I' for Inactive)
REMARK    1  A    between atoms: C_1  and  C_2
REMARK    2  A    between atoms: C_4  and  O_29
REMARK    3  A    between atoms: C_5  and  C_28
REMARK    4  A    between atoms: C_6  and  O_27
REMARK    5  A    between atoms: C_7  and  C_8
REMARK    6  A    between atoms: N_9  and  N_10
REMARK    7  A    between atoms: C_11  and  C_13
REMARK    8  A    between atoms: C_15  and  C_21
REMARK                            x       y       z     vdW  Elec       q    Type
REMARK                         _______ _______ _______ _____ _____    ______ ____
ROOT
ATOM      1  N   UNL     1       0.002  -0.004   0.002  0.00  0.00    -0.206 N 
ATOM      2  C   UNL     1      -1.156  -0.694   0.009  0.00  0.00    +0.245 C 
ATOM      3  O   UNL     1      -2.215  -0.102   0.023  0.00  0.00    -0.273 OA
ATOM      4  H   UNL     1       0.849  -0.478  -0.009  0.00  0.00    +0.177 HD
ENDROOT
BRANCH   2   5
ATOM      5  C   UNL     1      -1.135  -2.201   0.001  0.00  0.00    +0.171 C 
ATOM      6  C   UNL     1      -2.574  -2.761  -0.084  0.00  0.00    +0.057 C 
ATOM      7  C   UNL     1      -2.377  -4.002  -0.982  0.00  0.00    +0.113 C 
ATOM      8  N   UNL     1      -1.182  -3.718  -1.785  0.00  0.00    -0.314 N 
ATOM      9  C   UNL     1      -0.463  -2.714  -1.253  0.00  0.00    +0.226 C 
ATOM     10  O   UNL     1       0.573  -2.283  -1.712  0.00  0.00    -0.275 OA
ATOM     11  H   UNL     1      -0.941  -4.194  -2.595  0.00  0.00    +0.149 HD
BRANCH   6  12
ATOM     12  C   UNL     1      -3.080  -3.157   1.280  0.00  0.00    -0.042 A 
ATOM     13  C   UNL     1      -2.416  -4.125   2.009  0.00  0.00    +0.004 A 
ATOM     14  C   UNL     1      -2.877  -4.485   3.261  0.00  0.00    +0.000 A 
ATOM     15  C   UNL     1      -4.008  -3.883   3.781  0.00  0.00    +0.000 A 
ATOM     16  C   UNL     1      -4.675  -2.918   3.050  0.00  0.00    +0.000 A 
ATOM     17  C   UNL     1      -4.211  -2.555   1.799  0.00  0.00    +0.004 A 
ENDBRANCH   6  12
ENDBRANCH   2   5
BRANCH   1  19
ATOM     18  C   UNL     1       1.099   2.061   0.003  0.00  0.00    +0.142 C 
ATOM     19  N   UNL     1      -0.017   1.397   0.010  0.00  0.00    -0.188 NA
BRANCH  18  26
ATOM     20  C   UNL     1       3.594   3.520  -0.001  0.00  0.00    +0.044 C 
ATOM     21  C   UNL     1       2.277   4.252   0.009  0.00  0.00    -0.035 A 
ATOM     22  C   UNL     1       2.254   5.630   0.011  0.00  0.00    +0.050 A 
ATOM     23  C   UNL     1       1.042   6.309   0.025  0.00  0.00    +0.124 A 
ATOM     24  C   UNL     1      -0.154   5.605   0.034  0.00  0.00    +0.033 A 
ATOM     25  C   UNL     1      -0.144   4.222   0.026  0.00  0.00    +0.132 A 
ATOM     26  C   UNL     1       1.079   3.534   0.011  0.00  0.00    +0.039 A 
ATOM     27  C   UNL     1      -1.465   6.348   0.050  0.00  0.00    +0.051 C 
BRANCH  25  28
ATOM     28  O   UNL     1      -1.314   3.532   0.033  0.00  0.00    -0.506 OA
ATOM     29  H   UNL     1      -1.644   3.327   0.919  0.00  0.00    +0.292 HD
ENDBRANCH  25  28
BRANCH  23  30
ATOM     30  O   UNL     1       1.028   7.667   0.032  0.00  0.00    -0.506 OA
ATOM     31  H   UNL     1       1.032   8.056   0.918  0.00  0.00    +0.292 HD
ENDBRANCH  23  30
ENDBRANCH  18  26
ENDBRANCH   1  19
TORSDOF 6
