REMARK  Name = ZINC33926915
REMARK  4 active torsions:
REMARK  status: ('A' for Active; 'I' for Inactive)
REMARK    1  A    between atoms: C_4  and  C_7
REMARK    2  A    between atoms: C_9  and  C_29
REMARK    3  A    between atoms: C_12  and  C_24
REMARK    4  A    between atoms: C_14  and  C_18
REMARK                            x       y       z     vdW  Elec       q    Type
REMARK                         _______ _______ _______ _____ _____    ______ ____
ROOT
ATOM      1  C   UNL     1       3.708  -0.771   0.475  0.00  0.00    +0.110 C 
ATOM      2  C   UNL     1       3.671  -1.463  -0.893  0.00  0.00    +0.135 C 
ATOM      3  N   UNL     1       4.887  -2.269  -1.065  0.00  0.00    -0.296 NA
ATOM      4  C   UNL     1       4.939  -3.378  -0.104  0.00  0.00    +0.135 C 
ATOM      5  C   UNL     1       5.062  -2.816   1.317  0.00  0.00    +0.110 C 
ATOM      6  C   UNL     1       3.936  -1.827   1.536  0.00  0.00    +0.152 C 
ATOM      7  O   UNL     1       3.242  -1.880   2.523  0.00  0.00    -0.296 OA
ATOM      8  H   UNL     1       4.966  -2.607  -2.012  0.00  0.00    +0.123 HD
ENDROOT
BRANCH   1  12
ATOM      9  C   UNL     1      -0.009   1.210   1.185  0.00  0.00    +0.000 A 
ATOM     10  C   UNL     1       1.168   1.934   1.170  0.00  0.00    +0.000 A 
ATOM     11  C   UNL     1       2.371   1.293   0.940  0.00  0.00    +0.004 A 
ATOM     12  C   UNL     1       2.397  -0.072   0.726  0.00  0.00    -0.035 A 
ATOM     13  C   UNL     1       1.220  -0.797   0.742  0.00  0.00    +0.004 A 
ATOM     14  C   UNL     1       0.017  -0.156   0.971  0.00  0.00    +0.000 A 
ENDBRANCH   1  12
BRANCH   5  15
ATOM     15  C   UNL     1       4.957  -3.938   2.318  0.00  0.00    -0.035 A 
ATOM     16  C   UNL     1       3.817  -4.718   2.364  0.00  0.00    +0.004 A 
ATOM     17  C   UNL     1       3.721  -5.747   3.282  0.00  0.00    +0.000 A 
ATOM     18  C   UNL     1       4.764  -5.995   4.154  0.00  0.00    +0.000 A 
ATOM     19  C   UNL     1       5.904  -5.215   4.107  0.00  0.00    +0.000 A 
ATOM     20  C   UNL     1       6.003  -4.189   3.186  0.00  0.00    +0.004 A 
ENDBRANCH   5  15
BRANCH   4  21
ATOM     21  C   UNL     1       3.680  -4.198  -0.214  0.00  0.00    +0.123 A 
ATOM     22  C   UNL     1       3.620  -5.523  -0.434  0.00  0.00    +0.046 A 
ATOM     23  C   UNL     1       2.251  -5.873  -0.463  0.00  0.00    +0.041 A 
ATOM     24  C   UNL     1       1.555  -4.740  -0.258  0.00  0.00    +0.195 A 
ATOM     25  O   UNL     1       2.426  -3.729  -0.102  0.00  0.00    -0.466 OA
ENDBRANCH   4  21
BRANCH   2  26
ATOM     26  C   UNL     1       3.600  -0.423  -1.981  0.00  0.00    +0.123 A 
ATOM     27  C   UNL     1       2.486  -0.042  -2.633  0.00  0.00    +0.046 A 
ATOM     28  C   UNL     1       2.875   0.949  -3.563  0.00  0.00    +0.041 A 
ATOM     29  C   UNL     1       4.203   1.115  -3.424  0.00  0.00    +0.195 A 
ATOM     30  O   UNL     1       4.635   0.285  -2.460  0.00  0.00    -0.466 OA
ENDBRANCH   2  26
TORSDOF 4
