REMARK  Name = ZINC63796102
REMARK  5 active torsions:
REMARK  status: ('A' for Active; 'I' for Inactive)
REMARK    1  A    between atoms: C_1  and  O_2
REMARK    2  A    between atoms: O_2  and  C_3
REMARK    3  A    between atoms: C_6  and  C_9
REMARK    4  A    between atoms: C_11  and  C_16
REMARK    5  A    between atoms: C_16  and  N_18
REMARK                            x       y       z     vdW  Elec       q    Type
REMARK                         _______ _______ _______ _____ _____    ______ ____
ROOT
ATOM      1  C   UNL     1       2.351  -2.259  -4.402  0.00  0.00    +0.123 C 
ATOM      2  C   UNL     1       1.426  -3.089  -5.343  0.00  0.00    +0.173 C 
ATOM      3  S   UNL     1       2.650  -4.339  -5.926  0.00  0.00    -0.051 S 
ATOM      4  N   UNL     1       3.862  -4.168  -4.619  0.00  0.00    -0.199 NA
ATOM      5  N   UNL     1       3.240  -3.205  -3.700  0.00  0.00    -0.238 NA
ATOM      6  H   UNL     1       4.026  -5.052  -4.161  0.00  0.00    +0.154 HD
ATOM      7  H   UNL     1       3.939  -2.714  -3.163  0.00  0.00    +0.142 HD
ENDROOT
BRANCH   1  11
ATOM      8  C   UNL     1      -0.017  -0.118  -1.561  0.00  0.00    +0.120 A 
ATOM      9  C   UNL     1       0.246   0.437  -2.805  0.00  0.00    +0.046 A 
ATOM     10  C   UNL     1       1.012  -0.257  -3.722  0.00  0.00    +0.009 A 
ATOM     11  C   UNL     1       1.516  -1.504  -3.400  0.00  0.00    -0.027 A 
ATOM     12  C   UNL     1       1.255  -2.059  -2.161  0.00  0.00    +0.009 A 
ATOM     13  C   UNL     1       0.495  -1.366  -1.239  0.00  0.00    +0.046 A 
BRANCH   8  15
ATOM     14  C   UNL     1      -1.263   1.843  -1.058  0.00  0.00    +0.277 C 
ATOM     15  O   UNL     1      -0.770   0.563  -0.658  0.00  0.00    -0.495 OA
ENDBRANCH   8  15
ENDBRANCH   1  11
BRANCH   2  16
ATOM     16  C   UNL     1       0.299  -3.734  -4.579  0.00  0.00    +0.254 C 
ATOM     17  O   UNL     1       0.490  -4.158  -3.455  0.00  0.00    -0.272 OA
BRANCH  16  18
ATOM     18  N   UNL     1      -0.904  -3.840  -5.133  0.00  0.00    -0.156 NA
ATOM     19  C   UNL     1      -1.901  -4.410  -4.458  0.00  0.00    +0.164 A 
ATOM     20  N   UNL     1      -3.179  -4.604  -4.869  0.00  0.00    -0.335 N 
ATOM     21  H   UNL     1      -3.457  -4.313  -5.751  0.00  0.00    +0.168 HD
ATOM     22  C   UNL     1      -4.086  -5.220  -4.026  0.00  0.00    +0.055 A 
ATOM     23  C   UNL     1      -5.438  -5.516  -4.245  0.00  0.00    +0.027 A 
ATOM     24  C   UNL     1      -6.185  -6.140  -3.272  0.00  0.00    +0.002 A 
ATOM     25  C   UNL     1      -5.626  -6.491  -2.054  0.00  0.00    +0.001 A 
ATOM     26  C   UNL     1      -4.293  -6.210  -1.814  0.00  0.00    +0.017 A 
ATOM     27  C   UNL     1      -3.546  -5.587  -2.785  0.00  0.00    +0.039 A 
ATOM     28  S   UNL     1      -1.857  -5.058  -2.908  0.00  0.00    -0.052 S 
ENDBRANCH  16  18
ENDBRANCH   2  16
TORSDOF 4
