REMARK  Name = ZINC36584873
REMARK  7 active torsions:
REMARK  status: ('A' for Active; 'I' for Inactive)
REMARK    1  A    between atoms: C_1  and  O_2
REMARK    2  A    between atoms: O_2  and  C_3
REMARK    3  A    between atoms: C_3  and  C_5
REMARK    4  A    between atoms: C_5  and  C_7
REMARK    5  A    between atoms: C_5  and  N_14
REMARK    6  A    between atoms: C_7  and  C_8
REMARK    7  A    between atoms: C_26  and  C_28
REMARK                            x       y       z     vdW  Elec       q    Type
REMARK                         _______ _______ _______ _____ _____    ______ ____
ROOT
ATOM      1  N   UNL     1      -2.730  -2.426  -2.707  0.00  0.00    -0.286 N 
ATOM      2  C   UNL     1      -3.186  -2.609  -1.452  0.00  0.00    +0.304 C 
ATOM      3  O   UNL     1      -2.421  -2.532  -0.510  0.00  0.00    -0.253 OA
ATOM      4  N   UNL     1      -4.489  -2.877  -1.241  0.00  0.00    -0.273 N 
ATOM      5  C   UNL     1      -5.028  -2.968   0.124  0.00  0.00    +0.116 C 
ATOM      6  C   UNL     1      -5.518  -4.400   0.376  0.00  0.00    +0.074 C 
ATOM      7  C   UNL     1      -6.309  -4.860  -0.821  0.00  0.00    +0.040 A 
ATOM      8  C   UNL     1      -6.264  -4.286  -2.042  0.00  0.00    +0.062 A 
ATOM      9  N   UNL     1      -7.088  -4.960  -2.848  0.00  0.00    -0.348 N 
ATOM     10  C   UNL     1      -7.647  -5.930  -2.173  0.00  0.00    +0.171 A 
ATOM     11  N   UNL     1      -7.186  -5.899  -0.902  0.00  0.00    -0.349 N 
ATOM     12  H   UNL     1      -7.433  -6.502  -0.184  0.00  0.00    +0.166 HD
ATOM     13  C   UNL     1      -5.411  -3.080  -2.373  0.00  0.00    +0.159 C 
ATOM     14  H   UNL     1      -3.324  -2.555  -3.463  0.00  0.00    +0.151 HD
ATOM     15  H   UNL     1      -7.246  -4.761  -3.784  0.00  0.00    +0.167 HD
ENDROOT
BRANCH  13  16
ATOM     16  C   UNL     1      -6.283  -1.863  -2.549  0.00  0.00    +0.014 A 
ATOM     17  C   UNL     1      -7.627  -2.012  -2.838  0.00  0.00    +0.011 A 
ATOM     18  C   UNL     1      -8.428  -0.897  -2.999  0.00  0.00    +0.039 A 
ATOM     19  C   UNL     1      -7.885   0.370  -2.871  0.00  0.00    +0.126 A 
ATOM     20  C   UNL     1      -6.540   0.520  -2.581  0.00  0.00    +0.077 A 
ATOM     21  C   UNL     1      -5.739  -0.597  -2.415  0.00  0.00    +0.131 A 
ATOM     22  F   UNL     1      -4.428  -0.452  -2.126  0.00  0.00    -0.205 F 
ATOM     23  F   UNL     1      -8.668   1.460  -3.029  0.00  0.00    -0.205 F 
ENDBRANCH  13  16
BRANCH   1  24
ATOM     24  C   UNL     1      -1.336  -2.032  -2.930  0.00  0.00    +0.187 C 
BRANCH  24  25
ATOM     25  C   UNL     1      -0.464  -3.261  -2.947  0.00  0.00    +0.328 C 
ATOM     26  O   UNL     1      -0.955  -4.353  -2.789  0.00  0.00    -0.249 OA
BRANCH  25  28
ATOM     27  C   UNL     1       1.626  -4.348  -3.142  0.00  0.00    +0.280 C 
ATOM     28  O   UNL     1       0.860  -3.141  -3.138  0.00  0.00    -0.467 OA
ENDBRANCH  25  28
ENDBRANCH  24  25
BRANCH  24  29
ATOM     29  C   UNL     1      -1.220  -1.306  -4.272  0.00  0.00    +0.069 C 
BRANCH  29  30
ATOM     30  C   UNL     1      -1.995  -0.014  -4.212  0.00  0.00    -0.045 A 
ATOM     31  C   UNL     1      -3.329   0.008  -4.572  0.00  0.00    +0.004 A 
ATOM     32  C   UNL     1      -4.040   1.193  -4.518  0.00  0.00    +0.000 A 
ATOM     33  C   UNL     1      -3.416   2.355  -4.103  0.00  0.00    +0.000 A 
ATOM     34  C   UNL     1      -2.082   2.332  -3.742  0.00  0.00    +0.000 A 
ATOM     35  C   UNL     1      -1.372   1.146  -3.792  0.00  0.00    +0.004 A 
ENDBRANCH  29  30
ENDBRANCH  24  29
ENDBRANCH   1  24
TORSDOF 6
