REMARK  Name = ZINC55503431
REMARK  9 active torsions:
REMARK  status: ('A' for Active; 'I' for Inactive)
REMARK    1  A    between atoms: C_1  and  C_2
REMARK    2  A    between atoms: C_2  and  C_3
REMARK    3  A    between atoms: C_3  and  C_5
REMARK    4  A    between atoms: C_3  and  C_6
REMARK    5  A    between atoms: C_6  and  C_7
REMARK    6  A    between atoms: C_8  and  C_28
REMARK    7  A    between atoms: C_16  and  C_18
REMARK    8  A    between atoms: C_22  and  S_24
REMARK    9  A    between atoms: S_24  and  N_27
REMARK                            x       y       z     vdW  Elec       q    Type
REMARK                         _______ _______ _______ _____ _____    ______ ____
ROOT
ATOM      1  C   UNL     1       1.661  -2.496  -2.382  0.00  0.00    -0.023 A 
ATOM      2  C   UNL     1       1.058  -2.809  -3.541  0.00  0.00    -0.007 A 
ATOM      3  S   UNL     1       2.412  -3.301  -4.592  0.00  0.00    -0.073 S 
ATOM      4  C   UNL     1       3.747  -3.072  -3.445  0.00  0.00    +0.116 A 
ATOM      5  C   UNL     1       3.103  -2.614  -2.280  0.00  0.00    +0.075 A 
ATOM      6  C   UNL     1       3.958  -2.336  -1.163  0.00  0.00    +0.260 A 
ATOM      7  O   UNL     1       3.490  -1.940  -0.110  0.00  0.00    -0.267 OA
ATOM      8  N   UNL     1       5.285  -2.519  -1.294  0.00  0.00    -0.306 N 
ATOM      9  H   UNL     1       5.868  -2.333  -0.542  0.00  0.00    +0.170 HD
ATOM     10  C   UNL     1       5.826  -2.964  -2.469  0.00  0.00    +0.142 A 
ATOM     11  N   UNL     1       5.062  -3.235  -3.505  0.00  0.00    -0.222 NA
ATOM     12  C   UNL     1      -0.411  -2.758  -3.873  0.00  0.00    +0.052 C 
ENDROOT
BRANCH  10  13
ATOM     13  C   UNL     1       7.288  -3.152  -2.572  0.00  0.00    +0.019 A 
ATOM     14  C   UNL     1       8.109  -2.883  -1.475  0.00  0.00    +0.011 A 
ATOM     15  C   UNL     1       9.473  -3.061  -1.579  0.00  0.00    +0.003 A 
ATOM     16  C   UNL     1      10.028  -3.504  -2.766  0.00  0.00    +0.028 A 
ATOM     17  C   UNL     1       9.220  -3.773  -3.857  0.00  0.00    +0.106 A 
ATOM     18  C   UNL     1       7.854  -3.606  -3.765  0.00  0.00    +0.040 A 
BRANCH  17  19
ATOM     19  S   UNL     1       9.938  -4.338  -5.364  0.00  0.00    +0.056 S 
ATOM     20  O   UNL     1       9.027  -3.996  -6.400  0.00  0.00    -0.153 OA
ATOM     21  O   UNL     1      11.289  -3.897  -5.361  0.00  0.00    -0.153 OA
BRANCH  19  22
ATOM     22  N   UNL     1       9.979  -5.992  -5.297  0.00  0.00    -0.204 NA
ATOM     23  H   UNL     1       9.640  -6.454  -4.515  0.00  0.00    +0.144 HD
ATOM     24  H   UNL     1      10.343  -6.498  -6.040  0.00  0.00    +0.144 HD
ENDBRANCH  19  22
ENDBRANCH  17  19
ENDBRANCH  10  13
BRANCH   1  25
ATOM     25  C   UNL     1       0.849  -2.021  -1.205  0.00  0.00    +0.040 C 
BRANCH  25  26
ATOM     26  C   UNL     1       0.718  -0.497  -1.257  0.00  0.00    -0.010 C 
ATOM     27  C   UNL     1      -0.089  -0.097  -2.493  0.00  0.00    +0.008 C 
BRANCH  26  29
ATOM     28  C   UNL     1      -0.019   1.526   0.010  0.00  0.00    +0.004 C 
ATOM     29  C   UNL     1       0.002  -0.004   0.002  0.00  0.00    +0.000 C 
ENDBRANCH  26  29
ENDBRANCH  25  26
ENDBRANCH   1  25
TORSDOF 6
