REMARK  Name = ZINC39738271
REMARK  11 active torsions:
REMARK  status: ('A' for Active; 'I' for Inactive)
REMARK    1  A    between atoms: C_1  and  C_2
REMARK    2  A    between atoms: C_2  and  O_3
REMARK    3  A    between atoms: O_3  and  C_4
REMARK    4  A    between atoms: C_4  and  C_6
REMARK    5  A    between atoms: C_8  and  C_38
REMARK    6  A    between atoms: C_10  and  C_29
REMARK    7  A    between atoms: C_11  and  N_12
REMARK    8  A    between atoms: N_13  and  C_15
REMARK    9  A    between atoms: C_18  and  C_21
REMARK   10  A    between atoms: C_24  and  O_27
REMARK   11  A    between atoms: O_27  and  C_28
REMARK                            x       y       z     vdW  Elec       q    Type
REMARK                         _______ _______ _______ _____ _____    ______ ____
ROOT
ATOM      1  C   UNL     1      -4.063  -2.573   0.687  0.00  0.00    +0.188 C 
ATOM      2  C   UNL     1      -4.457  -2.150  -0.732  0.00  0.00    +0.051 C 
ATOM      3  C   UNL     1      -4.497  -3.364  -1.623  0.00  0.00    +0.025 C 
ATOM      4  C   UNL     1      -3.878  -4.499  -1.270  0.00  0.00    +0.090 C 
ATOM      5  N   UNL     1      -3.192  -4.589  -0.081  0.00  0.00    -0.225 N 
ATOM      6  N   UNL     1      -2.881  -3.448   0.609  0.00  0.00    -0.223 NA
ATOM      7  C   UNL     1      -5.839  -1.493  -0.703  0.00  0.00    +0.015 C 
ATOM      8  H   UNL     1      -2.104  -2.969   0.179  0.00  0.00    +0.145 HD
ENDROOT
BRANCH   3   9
ATOM      9  C   UNL     1      -5.223  -3.303  -2.894  0.00  0.00    +0.109 A 
ATOM     10  N   UNL     1      -5.003  -2.525  -3.937  0.00  0.00    -0.239 NA
ATOM     11  C   UNL     1      -5.760  -2.579  -5.051  0.00  0.00    +0.079 A 
ATOM     12  C   UNL     1      -5.633  -1.808  -6.230  0.00  0.00    +0.029 A 
ATOM     13  C   UNL     1      -6.494  -1.988  -7.281  0.00  0.00    +0.002 A 
ATOM     14  C   UNL     1      -7.514  -2.928  -7.229  0.00  0.00    +0.001 A 
ATOM     15  C   UNL     1      -7.667  -3.700  -6.092  0.00  0.00    +0.017 A 
ATOM     16  C   UNL     1      -6.811  -3.526  -5.034  0.00  0.00    +0.040 A 
ATOM     17  S   UNL     1      -6.628  -4.269  -3.430  0.00  0.00    -0.067 S 
ENDBRANCH   3   9
BRANCH   5  18
ATOM     18  C   UNL     1      -2.798  -5.898   0.447  0.00  0.00    +0.256 C 
ATOM     19  C   UNL     1      -1.356  -5.873   0.921  0.00  0.00    +0.052 C 
ATOM     20  C   UNL     1      -0.744  -6.784   0.139  0.00  0.00    +0.093 C 
ATOM     21  N   UNL     1      -1.632  -7.338  -0.728  0.00  0.00    -0.152 NA
ATOM     22  N   UNL     1      -2.786  -6.908  -0.624  0.00  0.00    -0.159 NA
BRANCH  20  23
ATOM     23  C   UNL     1       0.696  -7.132   0.214  0.00  0.00    +0.002 A 
ATOM     24  C   UNL     1       1.519  -6.504   1.147  0.00  0.00    +0.013 A 
ATOM     25  C   UNL     1       2.857  -6.831   1.215  0.00  0.00    +0.046 A 
ATOM     26  C   UNL     1       3.385  -7.783   0.353  0.00  0.00    +0.120 A 
ATOM     27  C   UNL     1       2.568  -8.410  -0.578  0.00  0.00    +0.046 A 
ATOM     28  C   UNL     1       1.228  -8.092  -0.646  0.00  0.00    +0.013 A 
BRANCH  26  29
ATOM     29  O   UNL     1       4.704  -8.102   0.422  0.00  0.00    -0.495 OA
ATOM     30  C   UNL     1       5.181  -9.090  -0.494  0.00  0.00    +0.277 C 
ENDBRANCH  26  29
ENDBRANCH  20  23
ENDBRANCH   5  18
BRANCH   4  31
ATOM     31  N   UNL     1      -3.930  -5.606  -2.122  0.00  0.00    -0.404 NA
ATOM     32  H   UNL     1      -4.107  -5.297  -3.066  0.00  0.00    +0.122 HD
ATOM     33  H   UNL     1      -3.049  -6.098  -2.089  0.00  0.00    +0.122 HD
ATOM     34  H   UNL     1      -4.671  -6.224  -1.826  0.00  0.00    +0.122 HD
ENDBRANCH   4  31
BRANCH   1  35
ATOM     35  C   UNL     1      -3.735  -1.351   1.506  0.00  0.00    +0.326 C 
ATOM     36  O   UNL     1      -2.583  -1.031   1.678  0.00  0.00    -0.249 OA
BRANCH  35  37
ATOM     37  O   UNL     1      -4.723  -0.619   2.043  0.00  0.00    -0.464 OA
BRANCH  37  39
ATOM     38  C   UNL     1      -5.591   1.230   3.336  0.00  0.00    +0.048 C 
ATOM     39  C   UNL     1      -4.339   0.526   2.808  0.00  0.00    +0.229 C 
ENDBRANCH  37  39
ENDBRANCH  35  37
ENDBRANCH   1  35
TORSDOF 8
