REMARK  Name = ZINC40784540
REMARK  6 active torsions:
REMARK  status: ('A' for Active; 'I' for Inactive)
REMARK    1  A    between atoms: C_4  and  C_7
REMARK    2  A    between atoms: C_7  and  N_8
REMARK    3  A    between atoms: C_16  and  N_32
REMARK    4  A    between atoms: C_17  and  N_21
REMARK    5  A    between atoms: N_21  and  N_22
REMARK    6  A    between atoms: C_23  and  C_25
REMARK                            x       y       z     vdW  Elec       q    Type
REMARK                         _______ _______ _______ _____ _____    ______ ____
ROOT
ATOM      1  N   UNL     1       4.134  -0.952   1.352  0.00  0.00    -0.264 N 
ATOM      2  C   UNL     1       2.748  -0.885   1.461  0.00  0.00    +0.127 A 
ATOM      3  C   UNL     1       1.960  -1.831   0.812  0.00  0.00    +0.044 A 
ATOM      4  C   UNL     1       0.584  -1.753   0.928  0.00  0.00    +0.005 A 
ATOM      5  C   UNL     1       0.040  -0.728   1.692  0.00  0.00    +0.020 A 
ATOM      6  C   UNL     1       0.882   0.176   2.308  0.00  0.00    +0.113 A 
ATOM      7  N   UNL     1       2.192   0.074   2.184  0.00  0.00    -0.240 NA
ATOM      8  C   UNL     1       4.933  -0.125   2.135  0.00  0.00    +0.153 A 
ATOM      9  C   UNL     1       5.446  -0.580   3.352  0.00  0.00    +0.107 A 
ATOM     10  C   UNL     1       6.242   0.291   4.098  0.00  0.00    +0.161 A 
ATOM     11  N   UNL     1       6.480   1.512   3.625  0.00  0.00    -0.217 NA
ATOM     12  C   UNL     1       5.977   1.902   2.472  0.00  0.00    +0.225 A 
ATOM     13  N   UNL     1       5.225   1.110   1.734  0.00  0.00    -0.218 NA
ENDROOT
BRANCH   9  14
ATOM     14  N   UNL     1       5.167  -1.877   3.812  0.00  0.00    -0.353 N 
ATOM     15  H   UNL     1       4.680  -2.497   3.248  0.00  0.00    +0.143 HD
ATOM     16  H   UNL     1       5.463  -2.152   4.694  0.00  0.00    +0.143 HD
ENDBRANCH   9  14
BRANCH  10  17
ATOM     17  N   UNL     1       6.777  -0.111   5.316  0.00  0.00    -0.247 N 
ATOM     18  H   UNL     1       6.598  -1.003   5.654  0.00  0.00    +0.172 HD
BRANCH  17  19
ATOM     19  N   UNL     1       7.575   0.771   6.056  0.00  0.00    -0.231 N 
ATOM     20  C   UNL     1       8.094   0.382   7.237  0.00  0.00    +0.260 C 
ATOM     21  O   UNL     1       7.870  -0.736   7.660  0.00  0.00    -0.269 OA
ATOM     22  H   UNL     1       7.754   1.663   5.718  0.00  0.00    +0.173 HD
BRANCH  20  23
ATOM     23  C   UNL     1       8.935   1.312   8.018  0.00  0.00    +0.038 A 
ATOM     24  C   UNL     1       9.190   2.598   7.537  0.00  0.00    +0.014 A 
ATOM     25  C   UNL     1       9.976   3.462   8.271  0.00  0.00    +0.016 A 
ATOM     26  C   UNL     1      10.512   3.057   9.481  0.00  0.00    +0.018 A 
ATOM     27  C   UNL     1      10.263   1.783   9.963  0.00  0.00    +0.016 A 
ATOM     28  C   UNL     1       9.474   0.911   9.242  0.00  0.00    +0.014 A 
ATOM     29 BR   UNL     1      11.590   4.247  10.480  0.00  0.00    -0.050 Br
ENDBRANCH  20  23
ENDBRANCH  17  19
ENDBRANCH  10  17
BRANCH   1  30
ATOM     30  C   UNL     1       4.751  -1.892   0.414  0.00  0.00    +0.149 C 
BRANCH  30  34
ATOM     31  C   UNL     1       5.262   0.006  -3.379  0.00  0.00    +0.000 A 
ATOM     32  C   UNL     1       6.264   0.078  -2.429  0.00  0.00    +0.000 A 
ATOM     33  C   UNL     1       6.099  -0.536  -1.202  0.00  0.00    +0.005 A 
ATOM     34  C   UNL     1       4.931  -1.222  -0.924  0.00  0.00    -0.030 A 
ATOM     35  C   UNL     1       3.928  -1.292  -1.873  0.00  0.00    +0.005 A 
ATOM     36  C   UNL     1       4.094  -0.679  -3.100  0.00  0.00    +0.000 A 
ENDBRANCH  30  34
ENDBRANCH   1  30
TORSDOF 6
