REMARK  Name = ZINC36633053
REMARK  12 active torsions:
REMARK  status: ('A' for Active; 'I' for Inactive)
REMARK    1  A    between atoms: C_1  and  C_2
REMARK    2  A    between atoms: C_2  and  N_3
REMARK    3  A    between atoms: C_9  and  N_15
REMARK    4  A    between atoms: C_10  and  C_11
REMARK    5  A    between atoms: C_11  and  O_13
REMARK    6  A    between atoms: O_13  and  C_14
REMARK    7  A    between atoms: C_16  and  C_18
REMARK    8  A    between atoms: C_21  and  S_24
REMARK    9  A    between atoms: S_24  and  N_27
REMARK   10  A    between atoms: N_27  and  C_28
REMARK   11  A    between atoms: N_27  and  C_29
REMARK   12  A    between atoms: C_29  and  C_30
REMARK                            x       y       z     vdW  Elec       q    Type
REMARK                         _______ _______ _______ _____ _____    ______ ____
ROOT
ATOM      1  N   UNL     1       5.524  -1.827  -5.039  0.00  0.00    -0.275 N 
ATOM      2  C   UNL     1       6.626  -1.051  -5.028  0.00  0.00    +0.249 C 
ATOM      3  O   UNL     1       6.719  -0.139  -4.229  0.00  0.00    -0.270 OA
ATOM      4  H   UNL     1       5.449  -2.555  -5.676  0.00  0.00    +0.156 HD
ENDROOT
BRANCH   1  11
ATOM      5  N   UNL     1       0.690  -0.478  -1.207  0.00  0.00    +0.383 N 
ATOM      6  C   UNL     1       0.601  -1.942  -1.277  0.00  0.00    -0.074 C 
ATOM      7  C   UNL     1       1.029  -2.431  -2.665  0.00  0.00    +0.018 C 
ATOM      8  C   UNL     1       2.386  -1.818  -2.979  0.00  0.00    -0.025 A 
ATOM      9  C   UNL     1       2.832  -0.755  -2.272  0.00  0.00    -0.021 A 
ATOM     10  S   UNL     1       4.416  -0.390  -2.963  0.00  0.00    -0.079 S 
ATOM     11  C   UNL     1       4.497  -1.585  -4.141  0.00  0.00    +0.086 A 
ATOM     12  C   UNL     1       3.300  -2.275  -4.008  0.00  0.00    +0.091 A 
ATOM     13  C   UNL     1       2.106  -0.068  -1.158  0.00  0.00    -0.035 C 
ATOM     14  H   UNL     1       0.251  -0.076  -2.022  0.00  0.00    -0.081 HD
BRANCH   5  16
ATOM     15  C   UNL     1      -0.019   1.526   0.010  0.00  0.00    -0.017 C 
ATOM     16  C   UNL     1       0.002  -0.004   0.002  0.00  0.00    -0.082 C 
ENDBRANCH   5  16
BRANCH  12  17
ATOM     17  C   UNL     1       2.975  -3.415  -4.867  0.00  0.00    +0.342 C 
ATOM     18  O   UNL     1       2.386  -3.237  -5.917  0.00  0.00    -0.245 OA
BRANCH  17  19
ATOM     19  O   UNL     1       3.327  -4.663  -4.495  0.00  0.00    -0.464 OA
ATOM     20  C   UNL     1       2.978  -5.727  -5.383  0.00  0.00    +0.280 C 
ENDBRANCH  17  19
ENDBRANCH  12  17
ENDBRANCH   1  11
BRANCH   2  21
ATOM     21  C   UNL     1       7.721  -1.309  -5.986  0.00  0.00    +0.037 A 
ATOM     22  C   UNL     1       7.614  -2.352  -6.908  0.00  0.00    +0.015 A 
ATOM     23  C   UNL     1       8.640  -2.587  -7.800  0.00  0.00    +0.029 A 
ATOM     24  C   UNL     1       9.773  -1.792  -7.782  0.00  0.00    +0.106 A 
ATOM     25  C   UNL     1       9.885  -0.757  -6.871  0.00  0.00    +0.029 A 
ATOM     26  C   UNL     1       8.864  -0.507  -5.977  0.00  0.00    +0.015 A 
BRANCH  24  27
ATOM     27  S   UNL     1      11.079  -2.100  -8.924  0.00  0.00    +0.061 S 
ATOM     28  O   UNL     1      12.260  -1.565  -8.344  0.00  0.00    -0.153 OA
ATOM     29  O   UNL     1      10.969  -3.464  -9.308  0.00  0.00    -0.153 OA
BRANCH  27  30
ATOM     30  N   UNL     1      10.767  -1.201 -10.279  0.00  0.00    -0.177 NA
ATOM     31  C   UNL     1      11.286   0.165 -10.387  0.00  0.00    +0.131 C 
BRANCH  30  32
ATOM     32  C   UNL     1       9.971  -1.770 -11.369  0.00  0.00    +0.140 C 
BRANCH  32  33
ATOM     33  C   UNL     1       8.507  -1.357 -11.202  0.00  0.00    +0.134 C 
ATOM     34  C   UNL     1       7.642  -2.050 -12.276  0.00  0.00    +0.035 C 
ATOM     35  C   UNL     1       6.639  -0.929 -12.665  0.00  0.00    +0.031 C 
ATOM     36  C   UNL     1       7.532   0.328 -12.518  0.00  0.00    +0.160 C 
ATOM     37  O   UNL     1       8.378   0.058 -11.386  0.00  0.00    -0.375 OA
ENDBRANCH  32  33
ENDBRANCH  30  32
ENDBRANCH  27  30
ENDBRANCH  24  27
ENDBRANCH   2  21
TORSDOF 9
