REMARK  Name = ZINC41584774
REMARK  6 active torsions:
REMARK  status: ('A' for Active; 'I' for Inactive)
REMARK    1  A    between atoms: C_1  and  C_2
REMARK    2  A    between atoms: C_2  and  C_3
REMARK    3  A    between atoms: C_6  and  C_9
REMARK    4  A    between atoms: C_16  and  O_37
REMARK    5  A    between atoms: C_17  and  C_20
REMARK    6  A    between atoms: C_20  and  N_21
REMARK                            x       y       z     vdW  Elec       q    Type
REMARK                         _______ _______ _______ _____ _____    ______ ____
ROOT
ATOM      1  C   UNL     1       2.782  -1.908   4.658  0.00  0.00    +0.058 C 
ATOM      2  C   UNL     1       2.117  -2.059   5.830  0.00  0.00    +0.176 C 
ATOM      3  C   UNL     1       0.671  -1.881   6.039  0.00  0.00    +0.231 C 
ATOM      4  O   UNL     1      -0.170  -1.573   5.213  0.00  0.00    -0.283 OA
ATOM      5  C   UNL     1       0.468  -2.159   7.473  0.00  0.00    +0.068 A 
ATOM      6  C   UNL     1      -0.660  -2.163   8.294  0.00  0.00    +0.019 A 
ATOM      7  C   UNL     1      -0.536  -2.468   9.620  0.00  0.00    +0.046 A 
ATOM      8  C   UNL     1       0.713  -2.776  10.153  0.00  0.00    +0.122 A 
ATOM      9  C   UNL     1       1.841  -2.776   9.349  0.00  0.00    +0.020 A 
ATOM     10  C   UNL     1       1.733  -2.468   7.999  0.00  0.00    +0.144 A 
ATOM     11  O   UNL     1       2.662  -2.405   7.020  0.00  0.00    -0.451 OA
ENDROOT
BRANCH   1  15
ATOM     12  C   UNL     1       0.784  -0.304   1.279  0.00  0.00    -0.048 A 
ATOM     13  C   UNL     1       1.675  -1.351   1.119  0.00  0.00    +0.004 A 
ATOM     14  C   UNL     1       2.329  -1.878   2.212  0.00  0.00    +0.008 A 
ATOM     15  C   UNL     1       2.090  -1.352   3.487  0.00  0.00    -0.021 A 
ATOM     16  C   UNL     1       1.187  -0.293   3.640  0.00  0.00    +0.008 A 
ATOM     17  C   UNL     1       0.546   0.226   2.536  0.00  0.00    +0.004 A 
BRANCH  12  19
ATOM     18  C   UNL     1       0.912   1.398  -0.519  0.00  0.00    +0.009 C 
ATOM     19  C   UNL     1       0.074   0.266   0.079  0.00  0.00    +0.032 C 
ENDBRANCH  12  19
ENDBRANCH   1  15
BRANCH   8  20
ATOM     20  O   UNL     1       0.825  -3.077  11.472  0.00  0.00    -0.506 OA
ATOM     21  H   UNL     1       0.726  -4.019  11.670  0.00  0.00    +0.292 HD
ENDBRANCH   8  20
BRANCH   9  22
ATOM     22  C   UNL     1       3.187  -3.111   9.940  0.00  0.00    -0.036 C 
BRANCH  22  23
ATOM     23  N   UNL     1       3.417  -4.558   9.844  0.00  0.00    +0.383 N 
ATOM     24  C   UNL     1       4.666  -4.899  10.532  0.00  0.00    -0.073 C 
ATOM     25  C   UNL     1       4.946  -6.393  10.454  0.00  0.00    -0.007 C 
ATOM     26  C   UNL     1       4.980  -6.862   8.997  0.00  0.00    +0.011 C 
ATOM     27  C   UNL     1       3.640  -6.476   8.359  0.00  0.00    +0.020 C 
ATOM     28  C   UNL     1       3.506  -4.946   8.428  0.00  0.00    -0.069 C 
ATOM     29  C   UNL     1       2.515  -7.080   9.169  0.00  0.00    +0.023 A 
ATOM     30  C   UNL     1       1.361  -7.379   8.516  0.00  0.00    +0.022 A 
ATOM     31  C   UNL     1       0.258  -7.879   9.216  0.00  0.00    +0.007 A 
ATOM     32  C   UNL     1       0.352  -8.039  10.568  0.00  0.00    +0.070 A 
ATOM     33  C   UNL     1       1.555  -7.717  11.211  0.00  0.00    +0.251 A 
ATOM     34  O   UNL     1       1.631  -7.797  12.427  0.00  0.00    -0.268 OA
ATOM     35  N   UNL     1       2.636  -7.319  10.496  0.00  0.00    -0.312 N 
ATOM     36  C   UNL     1       3.905  -7.202  11.209  0.00  0.00    +0.126 C 
ATOM     37  H   UNL     1       2.651  -5.050  10.278  0.00  0.00    -0.081 HD
ENDBRANCH  22  23
ENDBRANCH   9  22
TORSDOF 5
