REMARK  Name = ZINC14273323
REMARK  9 active torsions:
REMARK  status: ('A' for Active; 'I' for Inactive)
REMARK    1  A    between atoms: C_1  and  C_2
REMARK    2  A    between atoms: C_2  and  C_3
REMARK    3  A    between atoms: C_2  and  C_4
REMARK    4  A    between atoms: C_2  and  C_5
REMARK    5  A    between atoms: C_12  and  N_17
REMARK    6  A    between atoms: C_13  and  C_14
REMARK    7  A    between atoms: C_18  and  C_20
REMARK    8  A    between atoms: C_23  and  O_27
REMARK    9  A    between atoms: O_27  and  C_28
REMARK                            x       y       z     vdW  Elec       q    Type
REMARK                         _______ _______ _______ _____ _____    ______ ____
ROOT
ATOM      1  C   UNL     1      -9.184  -1.554  -0.347  0.00  0.00    -0.000 C 
ATOM      2  C   UNL     1      -9.548  -0.330   0.499  0.00  0.00    +0.009 C 
ATOM      3  C   UNL     1      -8.726   0.878   0.046  0.00  0.00    +0.037 C 
ATOM      4  C   UNL     1      -7.252   0.493   0.037  0.00  0.00    -0.023 A 
ATOM      5  C   UNL     1      -6.872  -0.803   0.028  0.00  0.00    -0.004 A 
ATOM      6  S   UNL     1      -5.102  -0.756   0.021  0.00  0.00    -0.077 S 
ATOM      7  C   UNL     1      -4.868   0.961   0.029  0.00  0.00    +0.085 A 
ATOM      8  C   UNL     1      -6.164   1.457   0.044  0.00  0.00    +0.068 A 
ATOM      9  C   UNL     1      -7.764  -2.006   0.024  0.00  0.00    +0.046 C 
ENDROOT
BRANCH   8  10
ATOM     10  C   UNL     1      -6.426   2.899   0.060  0.00  0.00    +0.244 C 
ATOM     11  O   UNL     1      -6.543   3.508  -0.987  0.00  0.00    -0.270 OA
ATOM     12  N   UNL     1      -6.538   3.550   1.235  0.00  0.00    -0.325 N 
ATOM     13  H   UNL     1      -6.445   3.064   2.070  0.00  0.00    +0.145 HD
ATOM     14  H   UNL     1      -6.712   4.504   1.246  0.00  0.00    +0.145 HD
ENDBRANCH   8  10
BRANCH   1  16
ATOM     15  C   UNL     1     -11.589  -2.226  -0.416  0.00  0.00    +0.011 C 
ATOM     16  C   UNL     1     -10.173  -2.686  -0.063  0.00  0.00    -0.035 C 
ATOM     17  C   UNL     1      -9.807  -3.907  -0.908  0.00  0.00    +0.011 C 
ATOM     18  C   UNL     1     -10.113  -3.056   1.421  0.00  0.00    +0.011 C 
ENDBRANCH   1  16
BRANCH   7  19
ATOM     19  N   UNL     1      -3.676   1.667   0.028  0.00  0.00    -0.275 N 
ATOM     20  C   UNL     1      -2.501   1.007   0.019  0.00  0.00    +0.249 C 
ATOM     21  O   UNL     1      -2.487  -0.209   0.012  0.00  0.00    -0.270 OA
ATOM     22  H   UNL     1      -3.687   2.637   0.034  0.00  0.00    +0.156 HD
BRANCH  20  23
ATOM     23  C   UNL     1      -1.232   1.759   0.017  0.00  0.00    +0.040 A 
ATOM     24  C   UNL     1      -0.013   1.076   0.008  0.00  0.00    +0.036 A 
ATOM     25  C   UNL     1       1.171   1.782   0.000  0.00  0.00    +0.085 A 
ATOM     26  C   UNL     1       1.153   3.172   0.008  0.00  0.00    +0.157 A 
ATOM     27  C   UNL     1      -0.058   3.856   0.023  0.00  0.00    +0.085 A 
ATOM     28  C   UNL     1      -1.246   3.156   0.032  0.00  0.00    +0.036 A 
ATOM     29 CL   UNL     1      -0.074   5.591   0.033  0.00  0.00    -0.080 Cl
ATOM     30 CL   UNL     1       2.686   0.934  -0.018  0.00  0.00    -0.080 Cl
BRANCH  26  31
ATOM     31  O   UNL     1       2.321   3.865   0.001  0.00  0.00    -0.492 OA
ATOM     32  C   UNL     1       2.867   4.202  -1.275  0.00  0.00    +0.277 C 
ENDBRANCH  26  31
ENDBRANCH  20  23
ENDBRANCH   7  19
TORSDOF 5
