REMARK  Name = ZINC14466028
REMARK  3 active torsions:
REMARK  status: ('A' for Active; 'I' for Inactive)
REMARK    1  A    between atoms: C_5  and  C_7
REMARK    2  A    between atoms: C_18  and  S_23
REMARK    3  A    between atoms: S_23  and  N_26
REMARK                            x       y       z     vdW  Elec       q    Type
REMARK                         _______ _______ _______ _____ _____    ______ ____
ROOT
ATOM      1  C   UNL     1       2.452   3.936   0.000  0.00  0.00    +0.106 C 
ATOM      2  C   UNL     1       2.815   4.314  -1.438  0.00  0.00    +0.029 C 
ATOM      3  C   UNL     1       1.528   4.879  -2.108  0.00  0.00    +0.033 C 
ATOM      4  C   UNL     1       0.777   3.632  -2.534  0.00  0.00    -0.030 C 
ATOM      5  C   UNL     1       1.597   2.614  -2.635  0.00  0.00    -0.023 C 
ATOM      6  C   UNL     1       3.004   3.040  -2.285  0.00  0.00    +0.049 C 
ATOM      7  C   UNL     1       3.737   1.959  -1.557  0.00  0.00    -0.018 A 
ATOM      8  C   UNL     1       4.197   0.864  -2.277  0.00  0.00    +0.034 A 
ATOM      9  C   UNL     1       4.879  -0.155  -1.644  0.00  0.00    +0.106 A 
ATOM     10  C   UNL     1       5.114  -0.098  -0.282  0.00  0.00    +0.030 A 
ATOM     11  C   UNL     1       4.662   0.986   0.444  0.00  0.00    +0.025 A 
ATOM     12  C   UNL     1       3.975   2.012  -0.193  0.00  0.00    +0.031 A 
ATOM     13  N   UNL     1       3.522   3.103   0.558  0.00  0.00    -0.336 N 
ATOM     14  H   UNL     1       3.907   3.303   1.426  0.00  0.00    +0.147 HD
ENDROOT
BRANCH   1  19
ATOM     15  C   UNL     1      -0.023   1.091  -0.193  0.00  0.00    +0.000 A 
ATOM     16  C   UNL     1      -1.220   1.751   0.017  0.00  0.00    +0.001 A 
ATOM     17  C   UNL     1      -1.228   3.116   0.232  0.00  0.00    +0.020 A 
ATOM     18  C   UNL     1      -0.040   3.825   0.225  0.00  0.00    +0.046 A 
ATOM     19  C   UNL     1       1.157   3.165   0.008  0.00  0.00    -0.009 A 
ATOM     20  C   UNL     1       1.165   1.799  -0.201  0.00  0.00    +0.007 A 
ATOM     21 CL   UNL     1      -0.050   5.541   0.486  0.00  0.00    -0.083 Cl
ENDBRANCH   1  19
BRANCH   9  22
ATOM     22  S   UNL     1       5.453  -1.536  -2.576  0.00  0.00    +0.061 S 
ATOM     23  O   UNL     1       5.587  -2.616  -1.661  0.00  0.00    -0.153 OA
ATOM     24  O   UNL     1       4.633  -1.615  -3.733  0.00  0.00    -0.153 OA
BRANCH  22  25
ATOM     25  N   UNL     1       6.980  -1.171  -3.102  0.00  0.00    -0.177 NA
ATOM     26  C   UNL     1       7.313  -0.508  -4.372  0.00  0.00    +0.109 C 
ATOM     27  C   UNL     1       8.851  -0.400  -4.443  0.00  0.00    +0.018 C 
ATOM     28  C   UNL     1       9.321  -1.521  -3.479  0.00  0.00    +0.018 C 
ATOM     29  C   UNL     1       8.231  -1.462  -2.379  0.00  0.00    +0.109 C 
ENDBRANCH  22  25
ENDBRANCH   9  22
TORSDOF 3
