REMARK  Name = ZINC39842523
REMARK  4 active torsions:
REMARK  status: ('A' for Active; 'I' for Inactive)
REMARK    1  A    between atoms: C_4  and  C_7
REMARK    2  A    between atoms: C_8  and  C_21
REMARK    3  A    between atoms: N_10  and  C_12
REMARK    4  A    between atoms: C_15  and  N_18
REMARK                            x       y       z     vdW  Elec       q    Type
REMARK                         _______ _______ _______ _____ _____    ______ ____
ROOT
ATOM      1  C   UNL     1       3.698  -0.687  -0.038  0.00  0.00    +0.100 A 
ATOM      2  C   UNL     1       3.996  -1.964   0.624  0.00  0.00    +0.024 A 
ATOM      3  C   UNL     1       5.319  -2.251   0.337  0.00  0.00    +0.123 A 
ATOM      4  N   UNL     1       5.799  -1.254  -0.428  0.00  0.00    -0.239 N 
ATOM      5  N   UNL     1       4.795  -0.308  -0.654  0.00  0.00    -0.166 NA
ENDROOT
BRANCH   2   6
ATOM      6  C   UNL     1       3.076  -2.772   1.429  0.00  0.00    +0.061 C 
ATOM      7  C   UNL     1       3.502  -3.939   1.982  0.00  0.00    +0.176 C 
ATOM      8  C   UNL     1       2.715  -4.819   2.776  0.00  0.00    +0.231 C 
ATOM      9  O   UNL     1       1.546  -4.686   3.094  0.00  0.00    -0.283 OA
ATOM     10  C   UNL     1       3.620  -5.929   3.131  0.00  0.00    +0.069 A 
ATOM     11  C   UNL     1       3.463  -7.093   3.881  0.00  0.00    +0.030 A 
ATOM     12  C   UNL     1       4.529  -7.955   4.034  0.00  0.00    +0.019 A 
ATOM     13  C   UNL     1       5.750  -7.664   3.443  0.00  0.00    +0.019 A 
ATOM     14  C   UNL     1       5.915  -6.514   2.699  0.00  0.00    +0.048 A 
ATOM     15  C   UNL     1       4.854  -5.632   2.533  0.00  0.00    +0.140 A 
ATOM     16  O   UNL     1       4.744  -4.464   1.865  0.00  0.00    -0.451 OA
ATOM     17 BR   UNL     1       4.326  -9.537   5.050  0.00  0.00    -0.050 Br
ENDBRANCH   2   6
BRANCH   1  21
ATOM     18  C   UNL     1      -0.017   1.379   0.010  0.00  0.00    +0.000 A 
ATOM     19  C   UNL     1       1.169   2.092   0.002  0.00  0.00    +0.001 A 
ATOM     20  C   UNL     1       2.377   1.427  -0.013  0.00  0.00    +0.010 A 
ATOM     21  C   UNL     1       2.403   0.033  -0.021  0.00  0.00    +0.003 A 
ATOM     22  C   UNL     1       1.205  -0.680  -0.013  0.00  0.00    +0.010 A 
ATOM     23  C   UNL     1       0.002  -0.004   0.002  0.00  0.00    +0.001 A 
ENDBRANCH   1  21
BRANCH   4  24
ATOM     24  C   UNL     1       7.105  -1.177  -0.927  0.00  0.00    +0.066 A 
ATOM     25  C   UNL     1       8.018  -2.186  -0.646  0.00  0.00    +0.030 A 
ATOM     26  C   UNL     1       9.305  -2.108  -1.140  0.00  0.00    +0.035 A 
ATOM     27  C   UNL     1       9.686  -1.028  -1.914  0.00  0.00    +0.126 A 
ATOM     28  C   UNL     1       8.780  -0.022  -2.196  0.00  0.00    +0.035 A 
ATOM     29  C   UNL     1       7.489  -0.096  -1.710  0.00  0.00    +0.030 A 
BRANCH  27  30
ATOM     30  N   UNL     1      11.066  -0.947  -2.442  0.00  0.00    +0.056 N 
ATOM     31  O   UNL     1      11.860  -1.826  -2.196  0.00  0.00    -0.126 OA
ATOM     32  O   UNL     1      11.401  -0.003  -3.119  0.00  0.00    -0.126 OA
ENDBRANCH  27  30
ENDBRANCH   4  24
TORSDOF 4
