REMARK  Name = ZINC19323174
REMARK  7 active torsions:
REMARK  status: ('A' for Active; 'I' for Inactive)
REMARK    1  A    between atoms: C_1  and  C_2
REMARK    2  A    between atoms: C_2  and  C_3
REMARK    3  A    between atoms: C_2  and  C_4
REMARK    4  A    between atoms: C_8  and  C_25
REMARK    5  A    between atoms: C_14  and  C_15
REMARK    6  A    between atoms: C_25  and  C_26
REMARK    7  A    between atoms: C_25  and  C_27
REMARK                            x       y       z     vdW  Elec       q    Type
REMARK                         _______ _______ _______ _____ _____    ______ ____
ROOT
ATOM      1  C   UNL     1      -1.433  -0.534   0.013  0.00  0.00    +0.030 C 
ATOM      2  C   UNL     1      -1.465  -2.069  -0.021  0.00  0.00    -0.060 C 
ATOM      3  N   UNL     1      -2.851  -2.541  -0.027  0.00  0.00    +0.394 N 
ATOM      4  C   UNL     1      -3.566  -2.103  -1.228  0.00  0.00    -0.060 C 
ATOM      5  C   UNL     1      -3.649  -0.569  -1.259  0.00  0.00    +0.030 C 
ATOM      6  C   UNL     1      -2.214  -0.054  -1.207  0.00  0.00    +0.145 C 
ATOM      7  O   UNL     1      -1.735   0.652  -2.062  0.00  0.00    -0.296 OA
ATOM      8  C   UNL     1      -4.332  -0.098   0.036  0.00  0.00    +0.095 C 
ATOM      9  N   UNL     1      -3.580  -0.610   1.190  0.00  0.00    -0.310 NA
ATOM     10  C   UNL     1      -2.204  -0.040   1.248  0.00  0.00    +0.095 C 
ATOM     11  C   UNL     1      -3.550  -2.080   1.176  0.00  0.00    +0.035 C 
ATOM     12  H   UNL     1      -2.843  -3.550  -0.022  0.00  0.00    -0.079 HD
ENDROOT
BRANCH  11  13
ATOM     13  C   UNL     1      -2.826  -2.579   2.401  0.00  0.00    -0.022 A 
ATOM     14  C   UNL     1      -2.033  -3.659   2.474  0.00  0.00    +0.086 A 
ATOM     15  N   UNL     1      -1.551  -3.799   3.747  0.00  0.00    -0.360 N 
ATOM     16  H   UNL     1      -0.957  -4.506   4.044  0.00  0.00    +0.165 HD
ATOM     17  C   UNL     1      -2.036  -2.786   4.544  0.00  0.00    +0.047 A 
ATOM     18  C   UNL     1      -2.851  -1.974   3.734  0.00  0.00    +0.002 A 
ATOM     19  C   UNL     1      -3.479  -0.853   4.280  0.00  0.00    +0.010 A 
ATOM     20  C   UNL     1      -3.296  -0.548   5.599  0.00  0.00    +0.001 A 
ATOM     21  C   UNL     1      -2.490  -1.343   6.402  0.00  0.00    +0.002 A 
ATOM     22  C   UNL     1      -1.867  -2.459   5.886  0.00  0.00    +0.026 A 
ENDBRANCH  11  13
BRANCH   1  24
ATOM     23  C   UNL     1      -0.019   1.526   0.010  0.00  0.00    +0.008 C 
ATOM     24  C   UNL     1       0.002  -0.004   0.002  0.00  0.00    -0.004 C 
ATOM     25  C   UNL     1       0.742  -0.511   1.242  0.00  0.00    +0.008 C 
ENDBRANCH   1  24
BRANCH   5  26
ATOM     26  C   UNL     1      -4.376  -0.075  -2.510  0.00  0.00    -0.004 C 
ATOM     27  C   UNL     1      -4.434   1.454  -2.496  0.00  0.00    +0.008 C 
ATOM     28  C   UNL     1      -3.624  -0.545  -3.757  0.00  0.00    +0.008 C 
ENDBRANCH   5  26
TORSDOF 3
