REMARK  Name = ZINC36205349
REMARK  15 active torsions:
REMARK  status: ('A' for Active; 'I' for Inactive)
REMARK    1  A    between atoms: C_1  and  C_2
REMARK    2  A    between atoms: C_5  and  C_9
REMARK    3  A    between atoms: C_7  and  C_8
REMARK    4  A    between atoms: C_18  and  C_20
REMARK    5  A    between atoms: C_20  and  N_21
REMARK    6  A    between atoms: N_21  and  C_22
REMARK    7  A    between atoms: N_21  and  C_32
REMARK    8  A    between atoms: C_22  and  C_23
REMARK    9  A    between atoms: C_23  and  C_25
REMARK   10  A    between atoms: C_23  and  O_31
REMARK   11  A    between atoms: C_25  and  O_26
REMARK   12  A    between atoms: O_26  and  C_27
REMARK   13  A    between atoms: C_27  and  C_28
REMARK   14  A    between atoms: C_27  and  C_29
REMARK   15  A    between atoms: C_27  and  C_30
REMARK                            x       y       z     vdW  Elec       q    Type
REMARK                         _______ _______ _______ _____ _____    ______ ____
ROOT
ATOM      1  C   UNL     1      -8.529  -6.970  -0.500  0.00  0.00    +0.004 A 
ATOM      2  C   UNL     1      -8.975  -8.091   0.118  0.00  0.00    +0.056 A 
ATOM      3  S   UNL     1      -7.632  -9.242  -0.096  0.00  0.00    -0.076 S 
ATOM      4  C   UNL     1      -6.514  -8.204  -1.001  0.00  0.00    +0.116 A 
ATOM      5  C   UNL     1      -7.211  -6.990  -1.121  0.00  0.00    +0.080 A 
ATOM      6  C   UNL     1      -6.527  -5.950  -1.829  0.00  0.00    +0.260 A 
ATOM      7  O   UNL     1      -7.049  -4.859  -1.982  0.00  0.00    -0.267 OA
ATOM      8  N   UNL     1      -5.300  -6.196  -2.324  0.00  0.00    -0.312 N 
ATOM      9  H   UNL     1      -4.832  -5.495  -2.804  0.00  0.00    +0.170 HD
ATOM     10  C   UNL     1      -4.703  -7.405  -2.163  0.00  0.00    +0.094 A 
ATOM     11  N   UNL     1      -5.297  -8.370  -1.513  0.00  0.00    -0.229 NA
ENDROOT
BRANCH   1  16
ATOM     12  C   UNL     1     -11.791  -2.229  -0.692  0.00  0.00    +0.044 C 
ATOM     13  C   UNL     1     -10.937  -3.470  -0.641  0.00  0.00    -0.048 A 
ATOM     14  C   UNL     1      -9.620  -3.384  -0.228  0.00  0.00    +0.004 A 
ATOM     15  C   UNL     1      -8.833  -4.516  -0.180  0.00  0.00    +0.009 A 
ATOM     16  C   UNL     1      -9.369  -5.750  -0.549  0.00  0.00    -0.016 A 
ATOM     17  C   UNL     1     -10.697  -5.830  -0.965  0.00  0.00    +0.012 A 
ATOM     18  C   UNL     1     -11.476  -4.691  -1.004  0.00  0.00    -0.047 A 
ATOM     19  C   UNL     1     -12.913  -4.778  -1.446  0.00  0.00    +0.044 C 
ENDBRANCH   1  16
BRANCH  10  20
ATOM     20  C   UNL     1      -3.327  -7.634  -2.733  0.00  0.00    -0.003 C 
BRANCH  20  21
ATOM     21  N   UNL     1      -2.950  -9.042  -2.551  0.00  0.00    +0.388 N 
ATOM     22  H   UNL     1      -3.053  -9.295  -1.580  0.00  0.00    -0.081 HD
BRANCH  21  23
ATOM     23  C   UNL     1      -1.552  -9.231  -2.961  0.00  0.00    -0.068 C 
ATOM     24  C   UNL     1      -0.587  -9.821  -1.930  0.00  0.00    -0.017 C 
ATOM     25  C   UNL     1      -0.496  -8.340  -2.303  0.00  0.00    -0.017 C 
ENDBRANCH  21  23
BRANCH  21  26
ATOM     26  C   UNL     1      -3.820  -9.892  -3.374  0.00  0.00    -0.044 C 
BRANCH  26  27
ATOM     27  C   UNL     1      -3.511 -11.364  -3.091  0.00  0.00    +0.124 C 
BRANCH  27  28
ATOM     28  O   UNL     1      -2.144 -11.633  -3.409  0.00  0.00    -0.391 OA
ATOM     29  H   UNL     1      -1.915 -11.466  -4.333  0.00  0.00    +0.210 HD
ENDBRANCH  27  28
BRANCH  27  30
ATOM     30  C   UNL     1      -4.418 -12.250  -3.947  0.00  0.00    +0.189 C 
BRANCH  30  31
ATOM     31  O   UNL     1      -4.211 -13.620  -3.599  0.00  0.00    -0.372 OA
BRANCH  31  32
ATOM     32  C   UNL     1      -5.014 -14.537  -4.346  0.00  0.00    +0.061 C 
ATOM     33  C   UNL     1      -4.697 -14.396  -5.836  0.00  0.00    +0.041 C 
ATOM     34  C   UNL     1      -4.712 -15.966  -3.892  0.00  0.00    +0.041 C 
ATOM     35  C   UNL     1      -6.494 -14.228  -4.108  0.00  0.00    +0.041 C 
ENDBRANCH  31  32
ENDBRANCH  30  31
ENDBRANCH  27  30
ENDBRANCH  26  27
ENDBRANCH  21  26
ENDBRANCH  20  21
ENDBRANCH  10  20
TORSDOF 10
