REMARK  Name = ZINC38661634
REMARK  8 active torsions:
REMARK  status: ('A' for Active; 'I' for Inactive)
REMARK    1  A    between atoms: C_1  and  N_2
REMARK    2  A    between atoms: C_3  and  C_28
REMARK    3  A    between atoms: C_7  and  S_9
REMARK    4  A    between atoms: S_9  and  C_10
REMARK    5  A    between atoms: C_10  and  C_11
REMARK    6  A    between atoms: N_13  and  N_14
REMARK    7  A    between atoms: C_15  and  C_16
REMARK    8  A    between atoms: C_21  and  C_22
REMARK                            x       y       z     vdW  Elec       q    Type
REMARK                         _______ _______ _______ _____ _____    ______ ____
ROOT
ATOM      1  C   UNL     1      -1.312  -2.217   1.845  0.00  0.00    +0.166 C 
ENDROOT
BRANCH   1   2
ATOM      2  C   UNL     1      -2.253  -2.686   2.925  0.00  0.00    +0.242 C 
ATOM      3  O   UNL     1      -2.189  -2.204   4.036  0.00  0.00    -0.273 OA
ATOM      4  N   UNL     1      -3.166  -3.641   2.655  0.00  0.00    -0.207 N 
ATOM      5  H   UNL     1      -3.216  -4.027   1.767  0.00  0.00    +0.177 HD
BRANCH   4   6
ATOM      6  N   UNL     1      -4.040  -4.077   3.659  0.00  0.00    -0.192 NA
ATOM      7  C   UNL     1      -4.907  -4.984   3.404  0.00  0.00    +0.118 C 
BRANCH   7   8
ATOM      8  C   UNL     1      -5.848  -5.452   4.484  0.00  0.00    +0.125 C 
ATOM      9  C   UNL     1      -5.735  -6.952   4.677  0.00  0.00    +0.123 C 
ATOM     10  N   UNL     1      -6.901  -7.438   4.400  0.00  0.00    -0.161 NA
ATOM     11  N   UNL     1      -7.815  -6.454   4.036  0.00  0.00    -0.153 NA
ATOM     12  C   UNL     1      -7.289  -5.257   4.058  0.00  0.00    +0.084 C 
BRANCH  12  13
ATOM     13  C   UNL     1      -7.955  -3.985   3.736  0.00  0.00    -0.001 A 
ATOM     14  C   UNL     1      -7.244  -2.782   3.803  0.00  0.00    +0.010 A 
ATOM     15  C   UNL     1      -7.875  -1.594   3.501  0.00  0.00    +0.001 A 
ATOM     16  C   UNL     1      -9.209  -1.590   3.132  0.00  0.00    +0.000 A 
ATOM     17  C   UNL     1      -9.920  -2.775   3.064  0.00  0.00    +0.001 A 
ATOM     18  C   UNL     1      -9.301  -3.972   3.357  0.00  0.00    +0.010 A 
ENDBRANCH  12  13
ENDBRANCH   7   8
ENDBRANCH   4   6
ENDBRANCH   1   2
BRANCH   1  19
ATOM     19  S   UNL     1      -0.214  -0.937   2.513  0.00  0.00    -0.150 S 
BRANCH  19  25
ATOM     20  C   UNL     1       0.015   1.495  -0.020  0.00  0.00    -0.090 C 
ATOM     21  N   UNL     1       0.009   0.026  -0.007  0.00  0.00    +0.409 N 
ATOM     22  C   UNL     1       0.672  -0.509  -1.226  0.00  0.00    +0.049 C 
ATOM     23  N   UNL     1       1.115  -1.861  -0.794  0.00  0.00    -0.267 NA
ATOM     24  N   UNL     1       1.540  -1.681   0.596  0.00  0.00    -0.262 NA
ATOM     25  C   UNL     1       0.840  -0.486   1.108  0.00  0.00    +0.077 C 
ATOM     26  H   UNL     1       0.358  -2.526  -0.858  0.00  0.00    +0.139 HD
ATOM     27  H   UNL     1       2.541  -1.567   0.656  0.00  0.00    +0.140 HD
ATOM     28  H   UNL     1      -0.934  -0.324   0.067  0.00  0.00    -0.076 HD
BRANCH  22  29
ATOM     29  C   UNL     1      -0.306  -0.603  -2.368  0.00  0.00    -0.045 A 
ATOM     30  C   UNL     1      -0.036   0.037  -3.563  0.00  0.00    +0.003 A 
ATOM     31  C   UNL     1      -0.933  -0.048  -4.612  0.00  0.00    +0.002 A 
ATOM     32  C   UNL     1      -2.101  -0.773  -4.465  0.00  0.00    +0.020 A 
ATOM     33  C   UNL     1      -2.372  -1.413  -3.269  0.00  0.00    +0.041 A 
ATOM     34  C   UNL     1      -1.471  -1.332  -2.222  0.00  0.00    +0.023 A 
ATOM     35 CL   UNL     1      -3.839  -2.323  -3.084  0.00  0.00    -0.084 Cl
ENDBRANCH  22  29
ENDBRANCH  19  25
ENDBRANCH   1  19
TORSDOF 7
