REMARK  Name = ZINC59016996
REMARK  8 active torsions:
REMARK  status: ('A' for Active; 'I' for Inactive)
REMARK    1  A    between atoms: C_1  and  C_2
REMARK    2  A    between atoms: C_2  and  C_3
REMARK    3  A    between atoms: C_9  and  C_11
REMARK    4  A    between atoms: C_11  and  S_12
REMARK    5  A    between atoms: S_12  and  C_13
REMARK    6  A    between atoms: N_18  and  N_19
REMARK    7  A    between atoms: C_20  and  C_21
REMARK    8  A    between atoms: C_26  and  O_27
REMARK                            x       y       z     vdW  Elec       q    Type
REMARK                         _______ _______ _______ _____ _____    ______ ____
ROOT
ATOM      1  C   UNL     1      -9.892  -3.659  -0.214  0.00  0.00    +0.211 A 
ATOM      2  N   UNL     1     -10.970  -4.062  -0.896  0.00  0.00    -0.186 NA
ATOM      3  C   UNL     1     -11.919  -4.413  -0.054  0.00  0.00    +0.232 A 
ATOM      4  N   UNL     1     -11.451  -4.237   1.200  0.00  0.00    -0.245 N 
ATOM      5  N   UNL     1     -10.139  -3.755   1.070  0.00  0.00    -0.144 NA
ATOM      6  N   UNL     1     -13.175  -4.881  -0.395  0.00  0.00    -0.205 N 
ATOM      7  H   UNL     1     -13.810  -5.116   0.300  0.00  0.00    +0.177 HD
ATOM      8  H   UNL     1     -11.927  -4.412   2.027  0.00  0.00    +0.192 HD
ENDROOT
BRANCH   6   9
ATOM      9  N   UNL     1     -13.530  -5.016  -1.743  0.00  0.00    -0.187 NA
ATOM     10  C   UNL     1     -14.710  -5.455  -2.063  0.00  0.00    +0.142 C 
BRANCH  10  11
ATOM     11  C   UNL     1     -15.084  -5.596  -3.482  0.00  0.00    +0.037 A 
ATOM     12  C   UNL     1     -16.353  -6.062  -3.830  0.00  0.00    +0.028 A 
ATOM     13  C   UNL     1     -16.697  -6.192  -5.161  0.00  0.00    +0.019 A 
ATOM     14  C   UNL     1     -15.787  -5.862  -6.152  0.00  0.00    +0.019 A 
ATOM     15  C   UNL     1     -14.528  -5.400  -5.819  0.00  0.00    +0.047 A 
ATOM     16  C   UNL     1     -14.169  -5.258  -4.489  0.00  0.00    +0.126 A 
ATOM     17 BR   UNL     1     -18.416  -6.824  -5.632  0.00  0.00    -0.050 Br
BRANCH  16  18
ATOM     18  O   UNL     1     -12.933  -4.799  -4.161  0.00  0.00    -0.506 OA
ATOM     19  H   UNL     1     -12.268  -5.494  -4.065  0.00  0.00    +0.292 HD
ENDBRANCH  16  18
ENDBRANCH  10  11
ENDBRANCH   6   9
BRANCH   1  20
ATOM     20  S   UNL     1      -8.381  -3.099  -0.927  0.00  0.00    -0.075 S 
BRANCH  20  21
ATOM     21  C   UNL     1      -7.335  -2.716   0.505  0.00  0.00    +0.173 C 
BRANCH  21  28
ATOM     22  C   UNL     1      -1.412  -0.526   0.013  0.00  0.00    +0.103 A 
ATOM     23  N   UNL     1      -2.212  -0.818  -0.993  0.00  0.00    -0.145 NA
ATOM     24  N   UNL     1      -3.375  -1.249  -0.747  0.00  0.00    -0.126 NA
ATOM     25  C   UNL     1      -3.811  -1.414   0.486  0.00  0.00    +0.188 A 
ATOM     26  S   UNL     1      -2.474  -0.930   1.392  0.00  0.00    -0.035 S 
ATOM     27  N   UNL     1      -5.048  -1.872   0.925  0.00  0.00    -0.263 N 
ATOM     28  C   UNL     1      -5.994  -2.219   0.030  0.00  0.00    +0.229 C 
ATOM     29  O   UNL     1      -5.766  -2.132  -1.158  0.00  0.00    -0.275 OA
ATOM     30  H   UNL     1      -5.231  -1.942   1.875  0.00  0.00    +0.157 HD
BRANCH  22  32
ATOM     31  C   UNL     1      -0.019   1.526   0.010  0.00  0.00    +0.011 C 
ATOM     32  C   UNL     1       0.002  -0.004   0.002  0.00  0.00    +0.061 C 
ENDBRANCH  22  32
ENDBRANCH  21  28
ENDBRANCH  20  21
ENDBRANCH   1  20
TORSDOF 7
