REMARK  Name = ZINC00861433
REMARK  9 active torsions:
REMARK  status: ('A' for Active; 'I' for Inactive)
REMARK    1  A    between atoms: C_1  and  C_2
REMARK    2  A    between atoms: C_3  and  C_24
REMARK    3  A    between atoms: C_4  and  C_14
REMARK    4  A    between atoms: C_16  and  O_22
REMARK    5  A    between atoms: C_17  and  O_21
REMARK    6  A    between atoms: O_22  and  C_23
REMARK    7  A    between atoms: C_24  and  O_26
REMARK    8  A    between atoms: O_26  and  C_27
REMARK    9  A    between atoms: C_27  and  C_28
REMARK                            x       y       z     vdW  Elec       q    Type
REMARK                         _______ _______ _______ _____ _____    ______ ____
ROOT
ATOM      1  C   UNL     1      -6.626  -3.744   1.157  0.00  0.00    +0.061 C 
ATOM      2  C   UNL     1      -6.255  -2.434   0.510  0.00  0.00    +0.016 C 
ATOM      3  C   UNL     1      -4.976  -2.197   0.170  0.00  0.00    +0.065 C 
ATOM      4  C   UNL     1      -4.568  -0.901  -0.467  0.00  0.00    +0.092 C 
ATOM      5  C   UNL     1      -5.763  -0.176  -1.033  0.00  0.00    +0.024 C 
ATOM      6  C   UNL     1      -7.014  -0.500  -0.644  0.00  0.00    +0.015 C 
ATOM      7  N   UNL     1      -7.220  -1.496   0.273  0.00  0.00    -0.321 N 
ATOM      8  C   UNL     1      -8.215   0.219  -1.208  0.00  0.00    +0.051 C 
ATOM      9  C   UNL     1      -7.834   1.659  -1.557  0.00  0.00    +0.014 C 
ATOM     10  C   UNL     1      -6.679   1.626  -2.564  0.00  0.00    +0.080 C 
ATOM     11  C   UNL     1      -5.537   0.846  -1.972  0.00  0.00    +0.162 C 
ATOM     12  O   UNL     1      -4.399   1.103  -2.313  0.00  0.00    -0.292 OA
ATOM     13  H   UNL     1      -8.173  -1.537   0.821  0.00  0.00    +0.152 HD
ENDROOT
BRANCH   4  14
ATOM     14  C   UNL     1      -3.904  -0.029   0.567  0.00  0.00    -0.030 A 
ATOM     15  C   UNL     1      -2.588   0.360   0.399  0.00  0.00    +0.054 A 
ATOM     16  C   UNL     1      -1.976   1.163   1.348  0.00  0.00    +0.163 A 
ATOM     17  C   UNL     1      -2.686   1.570   2.473  0.00  0.00    +0.177 A 
ATOM     18  C   UNL     1      -4.007   1.181   2.634  0.00  0.00    +0.086 A 
ATOM     19  C   UNL     1      -4.612   0.380   1.681  0.00  0.00    +0.028 A 
ATOM     20 CL   UNL     1      -4.899   1.692   4.033  0.00  0.00    -0.080 Cl
BRANCH  17  21
ATOM     21  O   UNL     1      -2.087   2.353   3.411  0.00  0.00    -0.502 OA
ATOM     22  H   UNL     1      -2.650   2.675   4.300  0.00  0.00    +0.292 HD
ENDBRANCH  17  21
BRANCH  16  23
ATOM     23  O   UNL     1      -0.682   1.547   1.184  0.00  0.00    -0.491 OA
ATOM     24  C   UNL     1      -0.013   1.086   0.008  0.00  0.00    +0.277 C 
ENDBRANCH  16  23
ENDBRANCH   4  14
BRANCH   3  25
ATOM     25  C   UNL     1      -3.997  -3.187   0.417  0.00  0.00    +0.338 C 
ATOM     26  O   UNL     1      -4.316  -4.242   0.933  0.00  0.00    -0.245 OA
BRANCH  25  27
ATOM     27  O   UNL     1      -2.710  -2.962   0.081  0.00  0.00    -0.459 OA
BRANCH  27  28
ATOM     28  C   UNL     1      -1.774  -4.006   0.359  0.00  0.00    +0.264 C 
BRANCH  28  29
ATOM     29  C   UNL     1      -0.377  -3.572  -0.088  0.00  0.00    +0.156 C 
ATOM     30  C   UNL     1       0.657  -4.640   0.314  0.00  0.00    +0.037 C 
ATOM     31  C   UNL     1       1.307  -5.062  -1.027  0.00  0.00    +0.031 C 
ATOM     32  C   UNL     1       0.987  -3.850  -1.938  0.00  0.00    +0.160 C 
ATOM     33  O   UNL     1      -0.338  -3.451  -1.520  0.00  0.00    -0.373 OA
ENDBRANCH  28  29
ENDBRANCH  27  28
ENDBRANCH  25  27
ENDBRANCH   3  25
TORSDOF 7
