REMARK  Name = ZINC59385207
REMARK  6 active torsions:
REMARK  status: ('A' for Active; 'I' for Inactive)
REMARK    1  A    between atoms: C_6  and  C_7
REMARK    2  A    between atoms: C_7  and  C_9
REMARK    3  A    between atoms: C_7  and  O_27
REMARK    4  A    between atoms: C_9  and  N_10
REMARK    5  A    between atoms: N_10  and  C_11
REMARK    6  A    between atoms: C_14  and  N_18
REMARK                            x       y       z     vdW  Elec       q    Type
REMARK                         _______ _______ _______ _____ _____    ______ ____
ROOT
ATOM      1  C   UNL     1      -3.446  -2.356   2.667  0.00  0.00    +0.046 A 
ATOM      2  C   UNL     1      -2.618  -2.542   3.766  0.00  0.00    +0.026 A 
ATOM      3  C   UNL     1      -3.145  -2.991   4.960  0.00  0.00    +0.030 A 
ATOM      4  C   UNL     1      -4.505  -3.256   5.062  0.00  0.00    +0.071 A 
ATOM      5  C   UNL     1      -5.335  -3.070   3.963  0.00  0.00    +0.049 A 
ATOM      6  C   UNL     1      -4.808  -2.616   2.770  0.00  0.00    +0.064 A 
ATOM      7 CL   UNL     1      -5.844  -2.377   1.398  0.00  0.00    -0.082 Cl
ENDROOT
BRANCH   4   8
ATOM      8  N   UNL     1      -5.040  -3.711   6.273  0.00  0.00    -0.195 N 
ATOM      9  C   UNL     1      -5.855  -4.785   6.287  0.00  0.00    +0.292 A 
ATOM     10  O   UNL     1      -6.128  -5.364   5.247  0.00  0.00    -0.264 OA
ATOM     11  C   UNL     1      -6.387  -5.235   7.510  0.00  0.00    +0.127 A 
ATOM     12  C   UNL     1      -6.067  -4.573   8.660  0.00  0.00    +0.084 A 
ATOM     13  C   UNL     1      -5.216  -3.458   8.607  0.00  0.00    +0.155 A 
ATOM     14  N   UNL     1      -4.723  -3.053   7.467  0.00  0.00    -0.170 NA
ATOM     15 CL   UNL     1      -6.710  -5.106  10.181  0.00  0.00    -0.080 Cl
ATOM     16 CL   UNL     1      -7.438  -6.616   7.556  0.00  0.00    -0.076 Cl
ENDBRANCH   4   8
BRANCH   1  17
ATOM     17  N   UNL     1      -2.911  -1.902   1.458  0.00  0.00    -0.340 N 
ATOM     18  H   UNL     1      -3.490  -1.768   0.691  0.00  0.00    +0.146 HD
BRANCH  17  19
ATOM     19  C   UNL     1      -1.476  -1.628   1.348  0.00  0.00    +0.137 C 
BRANCH  19  20
ATOM     20  C   UNL     1      -1.155  -1.147  -0.068  0.00  0.00    +0.161 C 
BRANCH  20  26
ATOM     21  C   UNL     1       0.795   0.420   0.008  0.00  0.00    +0.007 A 
ATOM     22  C   UNL     1       2.149   0.679  -0.094  0.00  0.00    +0.020 A 
ATOM     23  C   UNL     1       3.030  -0.347  -0.386  0.00  0.00    +0.041 A 
ATOM     24  C   UNL     1       2.554  -1.633  -0.574  0.00  0.00    +0.020 A 
ATOM     25  C   UNL     1       1.200  -1.891  -0.472  0.00  0.00    +0.007 A 
ATOM     26  C   UNL     1       0.321  -0.865  -0.180  0.00  0.00    -0.018 A 
ATOM     27 CL   UNL     1       4.730  -0.022  -0.515  0.00  0.00    -0.084 Cl
ENDBRANCH  20  26
BRANCH  20  28
ATOM     28  O   UNL     1      -1.520  -2.159  -1.009  0.00  0.00    -0.386 OA
ATOM     29  H   UNL     1      -1.058  -2.999  -0.881  0.00  0.00    +0.210 HD
ENDBRANCH  20  28
ENDBRANCH  19  20
ENDBRANCH  17  19
ENDBRANCH   1  17
TORSDOF 6
