REMARK  Name = ZINC35897301
REMARK  10 active torsions:
REMARK  status: ('A' for Active; 'I' for Inactive)
REMARK    1  A    between atoms: C_1  and  N_2
REMARK    2  A    between atoms: N_2  and  C_3
REMARK    3  A    between atoms: N_2  and  C_29
REMARK    4  A    between atoms: C_3  and  C_4
REMARK    5  A    between atoms: N_7  and  C_19
REMARK    6  A    between atoms: C_9  and  C_11
REMARK    7  A    between atoms: C_15  and  O_17
REMARK    8  A    between atoms: O_17  and  C_18
REMARK    9  A    between atoms: C_19  and  C_20
REMARK   10  A    between atoms: C_23  and  N_26
REMARK                            x       y       z     vdW  Elec       q    Type
REMARK                         _______ _______ _______ _____ _____    ______ ____
ROOT
ATOM      1  C   UNL     1       2.416  -0.607   1.002  0.00  0.00    -0.005 C 
ATOM      2  C   UNL     1       3.544  -1.417   0.328  0.00  0.00    +0.087 C 
ATOM      3  N   UNL     1       4.758  -1.104   1.125  0.00  0.00    -0.297 NA
ATOM      4  C   UNL     1       4.274  -1.071   2.529  0.00  0.00    +0.093 C 
ATOM      5  C   UNL     1       2.895  -0.377   2.450  0.00  0.00    +0.036 C 
ENDROOT
BRANCH   5   6
ATOM      6  C   UNL     1       1.935  -1.007   3.425  0.00  0.00    -0.039 A 
ATOM      7  C   UNL     1       1.121  -0.207   4.208  0.00  0.00    +0.004 A 
ATOM      8  C   UNL     1       0.238  -0.782   5.103  0.00  0.00    +0.004 A 
ATOM      9  C   UNL     1       0.168  -2.157   5.219  0.00  0.00    +0.045 A 
ATOM     10  C   UNL     1       0.983  -2.961   4.436  0.00  0.00    +0.120 A 
ATOM     11  C   UNL     1       1.863  -2.382   3.533  0.00  0.00    +0.049 A 
BRANCH  10  12
ATOM     12  O   UNL     1       0.915  -4.314   4.548  0.00  0.00    -0.495 OA
ATOM     13  C   UNL     1      -0.018  -4.840   5.493  0.00  0.00    +0.277 C 
ENDBRANCH  10  12
ENDBRANCH   5   6
BRANCH   1  14
ATOM     14  C   UNL     1       1.111  -1.404   0.994  0.00  0.00    -0.074 C 
BRANCH  14  16
ATOM     15  C   UNL     1       0.236  -0.149  -0.853  0.00  0.00    -0.096 C 
ATOM     16  N   UNL     1       0.598  -1.491  -0.380  0.00  0.00    +0.380 N 
ATOM     17  H   UNL     1       1.310  -1.879  -0.980  0.00  0.00    -0.082 HD
BRANCH  16  18
ATOM     18  C   UNL     1      -0.589  -2.357  -0.406  0.00  0.00    -0.069 C 
ATOM     19  C   UNL     1      -0.211  -3.755   0.088  0.00  0.00    -0.015 C 
ATOM     20  C   UNL     1      -1.448  -4.656   0.061  0.00  0.00    -0.002 C 
ATOM     21  C   UNL     1      -1.982  -4.747  -1.370  0.00  0.00    -0.000 C 
ATOM     22  C   UNL     1      -2.359  -3.348  -1.863  0.00  0.00    -0.002 C 
ATOM     23  C   UNL     1      -1.123  -2.447  -1.836  0.00  0.00    -0.015 C 
ENDBRANCH  16  18
ENDBRANCH  14  16
ENDBRANCH   1  14
BRANCH   3  24
ATOM     24  C   UNL     1       5.786  -2.138   0.946  0.00  0.00    +0.119 C 
BRANCH  24  25
ATOM     25  C   UNL     1       7.080  -1.672   1.563  0.00  0.00    -0.033 A 
ATOM     26  C   UNL     1       7.989  -0.957   0.806  0.00  0.00    +0.007 A 
ATOM     27  C   UNL     1       9.175  -0.529   1.373  0.00  0.00    +0.033 A 
ATOM     28  C   UNL     1       9.452  -0.817   2.696  0.00  0.00    +0.126 A 
ATOM     29  C   UNL     1       8.543  -1.531   3.453  0.00  0.00    +0.033 A 
ATOM     30  C   UNL     1       7.355  -1.955   2.888  0.00  0.00    +0.007 A 
BRANCH  28  31
ATOM     31  N   UNL     1      10.723  -0.360   3.302  0.00  0.00    +0.056 N 
ATOM     32  O   UNL     1      11.519   0.265   2.640  0.00  0.00    -0.126 OA
ATOM     33  O   UNL     1      10.966  -0.611   4.460  0.00  0.00    -0.126 OA
ENDBRANCH  28  31
ENDBRANCH  24  25
ENDBRANCH   3  24
TORSDOF 8
