REMARK  Name = ZINC35736704
REMARK  5 active torsions:
REMARK  status: ('A' for Active; 'I' for Inactive)
REMARK    1  A    between atoms: C_1  and  C_2
REMARK    2  A    between atoms: C_2  and  C_4
REMARK    3  A    between atoms: C_2  and  N_9
REMARK    4  A    between atoms: N_9  and  C_10
REMARK    5  A    between atoms: C_15  and  N_16
REMARK                            x       y       z     vdW  Elec       q    Type
REMARK                         _______ _______ _______ _____ _____    ______ ____
ROOT
ATOM      1  C   UNL     1       0.025  -0.639   2.403  0.00  0.00    +0.049 A 
ATOM      2  C   UNL     1      -1.326  -0.334   2.479  0.00  0.00    +0.030 A 
ATOM      3  C   UNL     1      -2.003  -0.481   3.675  0.00  0.00    -0.024 A 
ATOM      4  C   UNL     1      -1.333  -0.935   4.803  0.00  0.00    +0.038 A 
ATOM      5  C   UNL     1       0.019  -1.243   4.733  0.00  0.00    +0.048 A 
ATOM      6  C   UNL     1       0.699  -1.101   3.533  0.00  0.00    +0.047 A 
ATOM      7  N   UNL     1      -2.024  -1.082   6.013  0.00  0.00    -0.285 N 
ATOM      8  C   UNL     1      -3.368  -1.153   6.027  0.00  0.00    +0.218 C 
ATOM      9  O   UNL     1      -3.951  -1.265   7.084  0.00  0.00    -0.275 OA
ATOM     10  C   UNL     1      -4.154  -1.094   4.745  0.00  0.00    +0.101 C 
ATOM     11  C   UNL     1      -3.470  -0.148   3.757  0.00  0.00    +0.046 C 
ATOM     12  H   UNL     1      -1.530  -1.132   6.847  0.00  0.00    +0.155 HD
ENDROOT
BRANCH   6  13
ATOM     13  N   UNL     1       2.061  -1.416   3.457  0.00  0.00    -0.356 N 
ATOM     14  H   UNL     1       2.536  -1.313   2.618  0.00  0.00    +0.142 HD
ATOM     15  H   UNL     1       2.528  -1.738   4.244  0.00  0.00    +0.142 HD
ENDBRANCH   6  13
BRANCH   1  16
ATOM     16  N   UNL     1       0.711  -0.489   1.189  0.00  0.00    -0.335 N 
ATOM     17  H   UNL     1       1.654  -0.707   1.135  0.00  0.00    +0.147 HD
BRANCH  16  19
ATOM     18  C   UNL     1      -0.019   1.526   0.010  0.00  0.00    +0.033 C 
ATOM     19  C   UNL     1       0.002  -0.004   0.002  0.00  0.00    +0.104 C 
BRANCH  19  20
ATOM     20  C   UNL     1       0.707  -0.490  -1.238  0.00  0.00    +0.010 A 
ATOM     21  C   UNL     1       0.176  -0.943  -2.400  0.00  0.00    +0.013 A 
ATOM     22  C   UNL     1       1.026  -1.340  -3.415  0.00  0.00    +0.008 A 
ATOM     23  C   UNL     1       2.365  -1.266  -3.219  0.00  0.00    +0.045 A 
ATOM     24  S   UNL     1       2.459  -0.612  -1.560  0.00  0.00    -0.100 S 
ENDBRANCH  19  20
ENDBRANCH  16  19
ENDBRANCH   1  16
TORSDOF 4
