REMARK  Name = ZINC39363255
REMARK  9 active torsions:
REMARK  status: ('A' for Active; 'I' for Inactive)
REMARK    1  A    between atoms: C_1  and  N_2
REMARK    2  A    between atoms: N_2  and  C_3
REMARK    3  A    between atoms: N_2  and  C_31
REMARK    4  A    between atoms: C_3  and  C_4
REMARK    5  A    between atoms: C_8  and  O_10
REMARK    6  A    between atoms: O_10  and  C_11
REMARK    7  A    between atoms: C_11  and  C_12
REMARK    8  A    between atoms: C_19  and  C_21
REMARK    9  A    between atoms: C_31  and  C_32
REMARK                            x       y       z     vdW  Elec       q    Type
REMARK                         _______ _______ _______ _____ _____    ______ ____
ROOT
ATOM      1  C   UNL     1       2.137  -0.060  -1.158  0.00  0.00    -0.060 A 
ATOM      2  C   UNL     1       2.522   1.157  -1.689  0.00  0.00    +0.002 A 
ATOM      3  C   UNL     1       3.849   1.544  -1.646  0.00  0.00    +0.004 A 
ATOM      4  C   UNL     1       4.793   0.714  -1.072  0.00  0.00    +0.045 A 
ATOM      5  C   UNL     1       4.409  -0.507  -0.538  0.00  0.00    +0.121 A 
ATOM      6  C   UNL     1       3.076  -0.890  -0.578  0.00  0.00    +0.047 A 
ENDROOT
BRANCH   1   7
ATOM      7  C   UNL     1       0.690  -0.478  -1.207  0.00  0.00    -0.043 C 
BRANCH   7   9
ATOM      8  C   UNL     1      -0.018   1.465   0.010  0.00  0.00    -0.095 C 
ATOM      9  N   UNL     1       0.002  -0.004   0.002  0.00  0.00    +0.383 N 
ATOM     10  H   UNL     1       0.490  -0.338   0.820  0.00  0.00    -0.081 HD
BRANCH   9  11
ATOM     11  C   UNL     1      -1.376  -0.512   0.012  0.00  0.00    -0.043 C 
BRANCH  11  12
ATOM     12  C   UNL     1      -2.043  -0.130   1.309  0.00  0.00    -0.063 A 
ATOM     13  C   UNL     1      -1.957  -0.986   2.405  0.00  0.00    +0.004 A 
ATOM     14  C   UNL     1      -2.547  -0.671   3.590  0.00  0.00    +0.028 A 
ATOM     15  C   UNL     1      -3.256   0.536   3.717  0.00  0.00    +0.071 A 
ATOM     16  C   UNL     1      -3.342   1.405   2.601  0.00  0.00    +0.001 A 
ATOM     17  C   UNL     1      -2.716   1.050   1.395  0.00  0.00    +0.011 A 
ATOM     18  C   UNL     1      -4.052   2.614   2.730  0.00  0.00    +0.011 A 
ATOM     19  C   UNL     1      -4.631   2.896   3.935  0.00  0.00    +0.020 A 
ATOM     20  C   UNL     1      -4.508   1.997   4.992  0.00  0.00    +0.111 A 
ATOM     21  N   UNL     1      -3.845   0.872   4.868  0.00  0.00    -0.255 NA
ENDBRANCH  11  12
ENDBRANCH   9  11
ENDBRANCH   7   9
ENDBRANCH   1   7
BRANCH   5  22
ATOM     22  O   UNL     1       5.335  -1.325   0.026  0.00  0.00    -0.492 OA
BRANCH  22  23
ATOM     23  C   UNL     1       6.688  -0.864   0.037  0.00  0.00    +0.234 C 
BRANCH  23  24
ATOM     24  C   UNL     1       7.579  -1.911   0.708  0.00  0.00    +0.044 C 
ATOM     25  C   UNL     1       7.595  -3.186  -0.138  0.00  0.00    +0.010 C 
ATOM     26  C   UNL     1       8.459  -4.245   0.550  0.00  0.00    +0.019 C 
ATOM     27  C   UNL     1       9.896  -3.727   0.669  0.00  0.00    +0.108 C 
ATOM     28  N   UNL     1       9.874  -2.428   1.355  0.00  0.00    -0.299 N 
ATOM     29  C   UNL     1       9.005  -1.365   0.830  0.00  0.00    +0.114 C 
ATOM     30  C   UNL     1      10.636  -2.214   2.446  0.00  0.00    +0.246 C 
ATOM     31  O   UNL     1      10.610  -1.137   3.003  0.00  0.00    -0.273 OA
BRANCH  30  32
ATOM     32  C   UNL     1      11.522  -3.314   2.973  0.00  0.00    +0.241 C 
ATOM     33  C   UNL     1      10.738  -4.262   3.843  0.00  0.00    -0.012 C 
ATOM     34  C   UNL     1      11.309  -4.174   5.049  0.00  0.00    +0.065 C 
ATOM     35  C   UNL     1      10.831  -4.968   6.245  0.00  0.00    +0.057 C 
ATOM     36  C   UNL     1       9.418  -5.485   5.955  0.00  0.00    +0.006 C 
ATOM     37  C   UNL     1       9.393  -6.183   4.592  0.00  0.00    +0.005 C 
ATOM     38  C   UNL     1       9.570  -5.133   3.485  0.00  0.00    +0.035 C 
ATOM     39  N   UNL     1      12.335  -3.296   5.012  0.00  0.00    -0.158 NA
ATOM     40  N   UNL     1      12.530  -2.772   3.906  0.00  0.00    -0.170 NA
ENDBRANCH  30  32
ENDBRANCH  23  24
ENDBRANCH  22  23
ENDBRANCH   5  22
TORSDOF 8
