REMARK  Name = ZINC20833717
REMARK  8 active torsions:
REMARK  status: ('A' for Active; 'I' for Inactive)
REMARK    1  A    between atoms: C_1  and  C_2
REMARK    2  A    between atoms: C_4  and  C_28
REMARK    3  A    between atoms: C_6  and  N_8
REMARK    4  A    between atoms: C_9  and  C_11
REMARK    5  A    between atoms: C_11  and  S_12
REMARK    6  A    between atoms: S_12  and  C_13
REMARK    7  A    between atoms: N_18  and  N_19
REMARK    8  A    between atoms: C_20  and  C_21
REMARK                            x       y       z     vdW  Elec       q    Type
REMARK                         _______ _______ _______ _____ _____    ______ ____
ROOT
ATOM      1  C   UNL     1      -5.290   0.812   0.259  0.00  0.00    +0.211 A 
ATOM      2  N   UNL     1      -6.602   1.189   0.291  0.00  0.00    -0.186 NA
ATOM      3  C   UNL     1      -7.363   0.059   0.407  0.00  0.00    +0.232 A 
ATOM      4  N   UNL     1      -6.554  -0.972   0.444  0.00  0.00    -0.245 N 
ATOM      5  N   UNL     1      -5.240  -0.495   0.344  0.00  0.00    -0.144 NA
ATOM      6  N   UNL     1      -8.748   0.011   0.473  0.00  0.00    -0.205 N 
ATOM      7  H   UNL     1      -9.333   0.942   0.432  0.00  0.00    +0.177 HD
ATOM      8  H   UNL     1      -6.963  -1.989   0.538  0.00  0.00    +0.192 HD
ENDROOT
BRANCH   6   9
ATOM      9  N   UNL     1      -9.402  -1.222   0.590  0.00  0.00    -0.188 NA
ATOM     10  C   UNL     1     -10.698  -1.266   0.652  0.00  0.00    +0.138 C 
BRANCH  10  11
ATOM     11  C   UNL     1     -11.386  -2.564   0.776  0.00  0.00    -0.005 A 
ATOM     12  C   UNL     1     -10.647  -3.749   0.822  0.00  0.00    +0.010 A 
ATOM     13  C   UNL     1     -11.297  -4.959   0.943  0.00  0.00    +0.016 A 
ATOM     14  C   UNL     1     -12.679  -5.003   1.008  0.00  0.00    +0.018 A 
ATOM     15  C   UNL     1     -13.418  -3.833   0.959  0.00  0.00    +0.016 A 
ATOM     16  C   UNL     1     -12.781  -2.616   0.843  0.00  0.00    +0.010 A 
ATOM     17 BR   UNL     1     -13.562  -6.668   1.167  0.00  0.00    -0.050 Br
ENDBRANCH  10  11
ENDBRANCH   6   9
BRANCH   1  18
ATOM     18  S   UNL     1      -3.905   1.894   0.118  0.00  0.00    -0.075 S 
BRANCH  18  19
ATOM     19  C   UNL     1      -2.474   0.779   0.133  0.00  0.00    +0.173 C 
BRANCH  19  21
ATOM     20  N   UNL     1      -0.011   0.966   0.007  0.00  0.00    -0.285 N 
ATOM     21  C   UNL     1      -1.207   1.587   0.017  0.00  0.00    +0.227 C 
ATOM     22  O   UNL     1      -1.264   2.795  -0.067  0.00  0.00    -0.275 OA
ATOM     23  H   UNL     1       0.038  -0.133   0.011  0.00  0.00    +0.155 HD
BRANCH  20  29
ATOM     24  C   UNL     1       4.673   1.524   1.393  0.00  0.00    +0.044 C 
ATOM     25  C   UNL     1       3.454   2.013   0.655  0.00  0.00    -0.048 A 
ATOM     26  C   UNL     1       3.500   3.208  -0.039  0.00  0.00    +0.006 A 
ATOM     27  C   UNL     1       2.383   3.661  -0.718  0.00  0.00    -0.048 A 
ATOM     28  C   UNL     1       1.218   2.920  -0.704  0.00  0.00    +0.026 A 
ATOM     29  C   UNL     1       1.168   1.719  -0.008  0.00  0.00    +0.034 A 
ATOM     30  C   UNL     1       2.289   1.271   0.677  0.00  0.00    +0.026 A 
ATOM     31  C   UNL     1       2.438   4.964  -1.473  0.00  0.00    +0.044 C 
ENDBRANCH  20  29
ENDBRANCH  19  21
ENDBRANCH  18  19
ENDBRANCH   1  18
TORSDOF 6
