REMARK  Name = ZINC39631851
REMARK  14 active torsions:
REMARK  status: ('A' for Active; 'I' for Inactive)
REMARK    1  A    between atoms: C_1  and  C_2
REMARK    2  A    between atoms: C_5  and  O_8
REMARK    3  A    between atoms: O_8  and  C_9
REMARK    4  A    between atoms: C_10  and  C_15
REMARK    5  A    between atoms: C_19  and  C_28
REMARK    6  A    between atoms: N_30  and  C_31
REMARK    7  A    between atoms: C_31  and  C_33
REMARK    8  A    between atoms: C_31  and  C_34
REMARK    9  A    between atoms: C_34  and  C_35
REMARK   10  A    between atoms: C_35  and  C_36
REMARK   11  A    between atoms: C_36  and  C_37
REMARK   12  A    between atoms: C_37  and  C_38
REMARK   13  A    between atoms: C_37  and  C_39
REMARK   14  A    between atoms: C_37  and  O_40
REMARK                            x       y       z     vdW  Elec       q    Type
REMARK                         _______ _______ _______ _____ _____    ______ ____
ROOT
ATOM      1  C   UNL     1      -1.756  -5.919  -0.180  0.00  0.00    +0.252 C 
ATOM      2  O   UNL     1      -1.920  -5.488  -1.305  0.00  0.00    -0.270 OA
ATOM      3  N   UNL     1      -1.260  -7.159   0.002  0.00  0.00    -0.296 N 
ATOM      4  C   UNL     1      -0.896  -7.813   1.281  0.00  0.00    +0.121 C 
ATOM      5  C   UNL     1      -1.362  -9.277   1.118  0.00  0.00    +0.100 C 
ATOM      6  C   UNL     1      -1.398  -9.510  -0.402  0.00  0.00    -0.004 C 
ATOM      7  C   UNL     1      -0.962  -8.179  -1.032  0.00  0.00    +0.115 C 
ATOM      8  C   UNL     1      -0.427 -10.621  -0.789  0.00  0.00    -0.010 C 
ATOM      9  C   UNL     1      -0.523 -10.875  -2.296  0.00  0.00    -0.082 C 
ATOM     10  N   UNL     1      -1.897 -11.255  -2.644  0.00  0.00    +0.379 N 
ATOM     11  C   UNL     1      -2.812 -10.144  -2.354  0.00  0.00    -0.082 C 
ATOM     12  C   UNL     1      -2.813  -9.861  -0.850  0.00  0.00    -0.010 C 
ATOM     13  H   UNL     1      -1.944 -11.480  -3.627  0.00  0.00    -0.086 HD
ATOM     14  H   UNL     1      -2.168 -12.062  -2.103  0.00  0.00    -0.086 HD
ENDROOT
BRANCH   1  16
ATOM     15  C   UNL     1      -3.082  -4.086   0.885  0.00  0.00    +0.233 A 
ATOM     16  C   UNL     1      -2.102  -5.084   0.987  0.00  0.00    +0.099 A 
ATOM     17  C   UNL     1      -1.457  -5.274   2.215  0.00  0.00    +0.020 A 
ATOM     18  C   UNL     1      -1.818  -4.466   3.278  0.00  0.00    +0.021 A 
ATOM     19  C   UNL     1      -2.794  -3.502   3.100  0.00  0.00    +0.114 A 
ATOM     20  N   UNL     1      -3.385  -3.336   1.932  0.00  0.00    -0.220 NA
BRANCH  15  21
ATOM     21  O   UNL     1      -3.719  -3.884  -0.293  0.00  0.00    -0.437 OA
BRANCH  21  26
ATOM     22  C   UNL     1      -7.302   0.446  -0.658  0.00  0.00    +0.044 C 
ATOM     23  C   UNL     1      -6.343  -0.713  -0.560  0.00  0.00    -0.050 A 
ATOM     24  C   UNL     1      -4.980  -0.482  -0.558  0.00  0.00    +0.007 A 
ATOM     25  C   UNL     1      -4.099  -1.542  -0.469  0.00  0.00    +0.046 A 
ATOM     26  C   UNL     1      -4.583  -2.839  -0.381  0.00  0.00    +0.130 A 
ATOM     27  C   UNL     1      -5.952  -3.068  -0.383  0.00  0.00    +0.046 A 
ATOM     28  C   UNL     1      -6.828  -2.004  -0.467  0.00  0.00    +0.007 A 
ENDBRANCH  21  26
ENDBRANCH  15  21
ENDBRANCH   1  16
BRANCH   5  29
ATOM     29  C   UNL     1      -2.735  -9.460   1.711  0.00  0.00    +0.218 C 
ATOM     30  O   UNL     1      -3.524  -8.538   1.710  0.00  0.00    -0.275 OA
ATOM     31  N   UNL     1      -3.087 -10.647   2.243  0.00  0.00    -0.312 N 
ATOM     32  H   UNL     1      -2.435 -11.363   2.305  0.00  0.00    +0.149 HD
BRANCH  31  33
ATOM     33  C   UNL     1      -4.453 -10.857   2.728  0.00  0.00    +0.070 C 
ATOM     34  C   UNL     1      -5.351 -11.269   1.560  0.00  0.00    +0.028 C 
BRANCH  33  35
ATOM     35  C   UNL     1      -4.455 -11.960   3.787  0.00  0.00    +0.022 C 
BRANCH  35  36
ATOM     36  C   UNL     1      -3.608 -11.520   4.984  0.00  0.00    +0.005 C 
BRANCH  36  37
ATOM     37  C   UNL     1      -3.519 -12.666   5.994  0.00  0.00    +0.034 C 
BRANCH  37  38
ATOM     38  C   UNL     1      -2.798 -12.180   7.253  0.00  0.00    +0.061 C 
ATOM     39  C   UNL     1      -2.783 -13.300   8.296  0.00  0.00    +0.041 C 
ATOM     40  C   UNL     1      -1.360 -11.794   6.899  0.00  0.00    +0.041 C 
BRANCH  38  41
ATOM     41  O   UNL     1      -3.480 -11.043   7.785  0.00  0.00    -0.389 OA
ATOM     42  H   UNL     1      -3.076 -10.681   8.585  0.00  0.00    +0.210 HD
ENDBRANCH  38  41
ENDBRANCH  37  38
ENDBRANCH  36  37
ENDBRANCH  35  36
ENDBRANCH  33  35
ENDBRANCH  31  33
ENDBRANCH   5  29
TORSDOF 10
