REMARK  Name = ZINC45485069
REMARK  11 active torsions:
REMARK  status: ('A' for Active; 'I' for Inactive)
REMARK    1  A    between atoms: C_1  and  C_2
REMARK    2  A    between atoms: C_2  and  C_3
REMARK    3  A    between atoms: C_2  and  C_4
REMARK    4  A    between atoms: C_4  and  C_6
REMARK    5  A    between atoms: C_4  and  N_23
REMARK    6  A    between atoms: C_6  and  N_7
REMARK    7  A    between atoms: N_10  and  C_11
REMARK    8  A    between atoms: C_11  and  C_12
REMARK    9  A    between atoms: C_12  and  C_14
REMARK   10  A    between atoms: C_12  and  O_22
REMARK   11  A    between atoms: N_23  and  C_24
REMARK                            x       y       z     vdW  Elec       q    Type
REMARK                         _______ _______ _______ _____ _____    ______ ____
ROOT
ATOM      1  N   UNL     1      -3.592  -0.352   1.149  0.00  0.00    -0.298 N 
ATOM      2  C   UNL     1      -4.452   0.055   2.103  0.00  0.00    +0.300 C 
ATOM      3  O   UNL     1      -4.062   0.763   3.011  0.00  0.00    -0.253 OA
ATOM      4  N   UNL     1      -5.744  -0.324   2.051  0.00  0.00    -0.297 N 
ATOM      5  H   UNL     1      -3.903  -0.917   0.424  0.00  0.00    +0.150 HD
ATOM      6  H   UNL     1      -6.055  -0.889   1.327  0.00  0.00    +0.150 HD
ENDROOT
BRANCH   1   7
ATOM      7  C   UNL     1      -2.187   0.060   1.205  0.00  0.00    +0.128 C 
BRANCH   7   8
ATOM      8  C   UNL     1      -1.433  -0.534   0.013  0.00  0.00    +0.090 C 
BRANCH   8  10
ATOM      9  C   UNL     1      -0.019   1.526   0.010  0.00  0.00    +0.009 C 
ATOM     10  C   UNL     1       0.002  -0.004   0.002  0.00  0.00    +0.005 C 
ATOM     11  C   UNL     1       0.742  -0.511   1.242  0.00  0.00    +0.009 C 
ENDBRANCH   8  10
BRANCH   8  12
ATOM     12  N   UNL     1      -2.105  -0.148  -1.230  0.00  0.00    -0.339 N 
ATOM     13  H   UNL     1      -2.648   0.655  -1.260  0.00  0.00    +0.146 HD
BRANCH  12  14
ATOM     14  C   UNL     1      -1.965  -0.938  -2.374  0.00  0.00    +0.027 A 
ATOM     15  C   UNL     1      -1.193  -2.092  -2.333  0.00  0.00    +0.023 A 
ATOM     16  C   UNL     1      -1.056  -2.871  -3.465  0.00  0.00    +0.002 A 
ATOM     17  C   UNL     1      -1.687  -2.503  -4.639  0.00  0.00    +0.000 A 
ATOM     18  C   UNL     1      -2.456  -1.354  -4.684  0.00  0.00    +0.002 A 
ATOM     19  C   UNL     1      -2.602  -0.574  -3.554  0.00  0.00    +0.023 A 
ENDBRANCH  12  14
ENDBRANCH   8  12
ENDBRANCH   7   8
ENDBRANCH   1   7
BRANCH   4  20
ATOM     20  C   UNL     1      -6.679   0.118   3.089  0.00  0.00    +0.141 C 
BRANCH  20  21
ATOM     21  C   UNL     1      -8.071  -0.447   2.796  0.00  0.00    +0.162 C 
BRANCH  21  22
ATOM     22  C   UNL     1      -9.057   0.106   3.792  0.00  0.00    -0.015 A 
ATOM     23  C   UNL     1      -9.135  -0.437   5.061  0.00  0.00    +0.009 A 
ATOM     24  C   UNL     1     -10.040   0.069   5.976  0.00  0.00    +0.041 A 
ATOM     25  C   UNL     1     -10.868   1.120   5.622  0.00  0.00    +0.158 A 
ATOM     26  C   UNL     1     -10.789   1.664   4.350  0.00  0.00    +0.159 A 
ATOM     27  C   UNL     1      -9.879   1.159   3.437  0.00  0.00    +0.047 A 
ATOM     28  F   UNL     1     -11.597   2.690   4.002  0.00  0.00    -0.202 F 
ATOM     29  F   UNL     1     -11.752   1.614   6.516  0.00  0.00    -0.202 F 
ENDBRANCH  21  22
BRANCH  21  30
ATOM     30  O   UNL     1      -8.037  -1.872   2.899  0.00  0.00    -0.386 OA
ATOM     31  H   UNL     1      -7.775  -2.197   3.772  0.00  0.00    +0.210 HD
ENDBRANCH  21  30
ENDBRANCH  20  21
ENDBRANCH   4  20
TORSDOF 9
