REMARK  Name = ZINC43742718
REMARK  7 active torsions:
REMARK  status: ('A' for Active; 'I' for Inactive)
REMARK    1  A    between atoms: C_1  and  C_2
REMARK    2  A    between atoms: C_10  and  C_14
REMARK    3  A    between atoms: C_18  and  C_20
REMARK    4  A    between atoms: C_20  and  N_21
REMARK    5  A    between atoms: N_24  and  C_27
REMARK    6  A    between atoms: C_27  and  C_29
REMARK    7  A    between atoms: C_27  and  C_35
REMARK                            x       y       z     vdW  Elec       q    Type
REMARK                         _______ _______ _______ _____ _____    ______ ____
ROOT
ATOM      1  N   UNL     1      -3.032   1.651   4.297  0.00  0.00    +0.382 N 
ATOM      2  C   UNL     1      -1.606   1.976   4.166  0.00  0.00    -0.063 C 
ATOM      3  C   UNL     1      -1.035   2.334   5.540  0.00  0.00    +0.067 C 
ATOM      4  N   UNL     1      -1.768   3.484   6.087  0.00  0.00    -0.295 NA
ATOM      5  C   UNL     1      -3.202   3.182   6.202  0.00  0.00    +0.067 C 
ATOM      6  C   UNL     1      -3.755   2.817   4.822  0.00  0.00    -0.063 C 
ATOM      7  H   UNL     1      -3.143   0.874   4.931  0.00  0.00    -0.082 HD
ENDROOT
BRANCH   1   8
ATOM      8  C   UNL     1      -3.575   1.290   2.981  0.00  0.00    -0.064 C 
BRANCH   8  24
ATOM      9  C   UNL     1      -0.018   1.503   0.010  0.00  0.00    +0.039 C 
ATOM     10  C   UNL     1       0.002  -0.004   0.002  0.00  0.00    -0.073 C 
ATOM     11  C   UNL     1      -1.130  -0.641   0.004  0.00  0.00    -0.064 C 
ATOM     12  C   UNL     1      -2.420   0.154  -0.006  0.00  0.00    +0.039 C 
ATOM     13  C   UNL     1      -3.366  -0.334   1.059  0.00  0.00    +0.046 C 
ATOM     14  C   UNL     1      -3.486  -1.868   1.147  0.00  0.00    +0.181 C 
ATOM     15  C   UNL     1      -2.107  -2.529   1.201  0.00  0.00    +0.056 C 
ATOM     16  C   UNL     1      -1.259  -2.139   0.005  0.00  0.00    -0.007 C 
ATOM     17  C   UNL     1       0.083  -2.848   0.081  0.00  0.00    +0.011 C 
ATOM     18  C   UNL     1       1.157  -2.073  -0.679  0.00  0.00    +0.005 C 
ATOM     19  C   UNL     1       1.331  -0.706  -0.014  0.00  0.00    +0.030 C 
ATOM     20  C   UNL     1      -1.959  -2.575  -1.283  0.00  0.00    +0.016 C 
ATOM     21  O   UNL     1      -4.060  -2.019   2.479  0.00  0.00    -0.461 OA
ATOM     22  C   UNL     1      -3.395  -1.177   3.300  0.00  0.00    +0.309 C 
ATOM     23  O   UNL     1      -3.210  -1.346   4.482  0.00  0.00    -0.251 OA
ATOM     24  C   UNL     1      -2.909   0.004   2.490  0.00  0.00    +0.088 C 
ENDBRANCH   8  24
ENDBRANCH   1   8
BRANCH   4  25
ATOM     25  C   UNL     1      -1.212   3.894   7.383  0.00  0.00    +0.117 C 
BRANCH  25  26
ATOM     26  C   UNL     1       0.234   4.282   7.209  0.00  0.00    -0.026 A 
ATOM     27  C   UNL     1       0.627   5.003   6.097  0.00  0.00    +0.007 A 
ATOM     28  C   UNL     1       1.953   5.358   5.937  0.00  0.00    +0.020 A 
ATOM     29  C   UNL     1       2.887   4.993   6.890  0.00  0.00    +0.041 A 
ATOM     30  C   UNL     1       2.493   4.271   8.003  0.00  0.00    +0.020 A 
ATOM     31  C   UNL     1       1.166   3.921   8.165  0.00  0.00    +0.007 A 
ATOM     32 CL   UNL     1       4.553   5.439   6.689  0.00  0.00    -0.084 Cl
ENDBRANCH  25  26
BRANCH  25  33
ATOM     33  C   UNL     1      -1.988   5.073   7.912  0.00  0.00    -0.026 A 
ATOM     34  C   UNL     1      -2.401   6.072   7.050  0.00  0.00    +0.005 A 
ATOM     35  C   UNL     1      -3.112   7.153   7.535  0.00  0.00    +0.000 A 
ATOM     36  C   UNL     1      -3.411   7.236   8.883  0.00  0.00    +0.000 A 
ATOM     37  C   UNL     1      -2.999   6.236   9.744  0.00  0.00    +0.000 A 
ATOM     38  C   UNL     1      -2.291   5.153   9.258  0.00  0.00    +0.005 A 
ENDBRANCH  25  33
ENDBRANCH   4  25
TORSDOF 5
