REMARK  Name = ZINC50182773
REMARK  7 active torsions:
REMARK  status: ('A' for Active; 'I' for Inactive)
REMARK    1  A    between atoms: C_1  and  C_2
REMARK    2  A    between atoms: C_3  and  C_8
REMARK    3  A    between atoms: C_8  and  C_9
REMARK    4  A    between atoms: C_9  and  C_10
REMARK    5  A    between atoms: C_10  and  N_11
REMARK    6  A    between atoms: N_11  and  C_12
REMARK    7  A    between atoms: C_15  and  N_22
REMARK                            x       y       z     vdW  Elec       q    Type
REMARK                         _______ _______ _______ _____ _____    ______ ____
ROOT
ATOM      1  C   UNL     1       3.023   1.187  -6.168  0.00  0.00    +0.035 A 
ATOM      2  C   UNL     1       1.974   1.372  -7.045  0.00  0.00    +0.025 A 
ATOM      3  C   UNL     1       2.199   1.822  -8.342  0.00  0.00    +0.025 A 
ATOM      4  C   UNL     1       3.476   2.095  -8.786  0.00  0.00    +0.034 A 
ATOM      5  C   UNL     1       4.568   1.917  -7.914  0.00  0.00    +0.020 A 
ATOM      6  C   UNL     1       4.336   1.463  -6.589  0.00  0.00    +0.007 A 
ATOM      7  C   UNL     1       5.444   1.300  -5.738  0.00  0.00    +0.028 A 
ATOM      8  C   UNL     1       6.685   1.587  -6.219  0.00  0.00    +0.083 A 
ATOM      9  N   UNL     1       6.873   2.015  -7.460  0.00  0.00    -0.366 N 
ATOM     10  C   UNL     1       5.887   2.179  -8.312  0.00  0.00    +0.093 A 
ATOM     11  H   UNL     1       7.777   2.206  -7.755  0.00  0.00    +0.165 HD
ENDROOT
BRANCH   4  12
ATOM     12  N   UNL     1       3.685   2.545 -10.091  0.00  0.00    -0.357 N 
ATOM     13  H   UNL     1       2.931   2.667 -10.688  0.00  0.00    +0.142 HD
ATOM     14  H   UNL     1       4.584   2.736 -10.400  0.00  0.00    +0.142 HD
ENDBRANCH   4  12
BRANCH   1  15
ATOM     15  N   UNL     1       2.781   0.735  -4.867  0.00  0.00    -0.343 N 
ATOM     16  H   UNL     1       3.520   0.610  -4.252  0.00  0.00    +0.146 HD
BRANCH  15  17
ATOM     17  C   UNL     1       1.411   0.449  -4.434  0.00  0.00    +0.102 C 
BRANCH  17  18
ATOM     18  C   UNL     1       1.425  -0.028  -2.980  0.00  0.00    +0.023 C 
BRANCH  18  19
ATOM     19  C   UNL     1      -0.006  -0.327  -2.527  0.00  0.00    +0.040 C 
BRANCH  19  22
ATOM     20  C   UNL     1      -0.018   1.503   0.010  0.00  0.00    +0.065 C 
ATOM     21  C   UNL     1       0.002  -0.004   0.002  0.00  0.00    +0.036 A 
ATOM     22  C   UNL     1       0.008  -0.796  -1.095  0.00  0.00    -0.007 A 
ATOM     23  C   UNL     1       0.028  -2.127  -0.666  0.00  0.00    +0.138 A 
ATOM     24  N   UNL     1       0.035  -2.134   0.643  0.00  0.00    -0.182 NA
ATOM     25  N   UNL     1       0.024  -0.805   1.088  0.00  0.00    -0.282 N 
ATOM     26  H   UNL     1       0.029  -0.513   2.013  0.00  0.00    +0.189 HD
ENDBRANCH  19  22
ENDBRANCH  18  19
ENDBRANCH  17  18
ENDBRANCH  15  17
ENDBRANCH   1  15
TORSDOF 6
