REMARK  Name = ZINC19323770
REMARK  6 active torsions:
REMARK  status: ('A' for Active; 'I' for Inactive)
REMARK    1  A    between atoms: C_1  and  C_2
REMARK    2  A    between atoms: C_5  and  S_8
REMARK    3  A    between atoms: S_8  and  N_11
REMARK    4  A    between atoms: N_15  and  C_18
REMARK    5  A    between atoms: N_21  and  C_24
REMARK    6  A    between atoms: C_24  and  C_25
REMARK                            x       y       z     vdW  Elec       q    Type
REMARK                         _______ _______ _______ _____ _____    ______ ____
ROOT
ATOM      1  N   UNL     1       1.651  -4.999  -0.034  0.00  0.00    -0.097 NA
ATOM      2  C   UNL     1       1.956  -6.267  -0.043  0.00  0.00    +0.202 C 
ATOM      3  N   UNL     1       0.986  -7.260  -0.049  0.00  0.00    -0.303 N 
ATOM      4  C   UNL     1       1.232  -8.440   0.796  0.00  0.00    +0.193 C 
ATOM      5  N   UNL     1       2.596  -8.927   0.541  0.00  0.00    -0.268 NA
ATOM      6  C   UNL     1       3.589  -7.872   0.798  0.00  0.00    +0.193 C 
ATOM      7  N   UNL     1       3.272  -6.709  -0.052  0.00  0.00    -0.303 N 
ATOM      8  H   UNL     1       3.950  -6.272  -0.592  0.00  0.00    +0.150 HD
ATOM      9  H   UNL     1       0.182  -7.179  -0.585  0.00  0.00    +0.150 HD
ENDROOT
BRANCH   5  10
ATOM     10  C   UNL     1       2.885 -10.127   1.339  0.00  0.00    +0.056 C 
ATOM     11  C   UNL     1       1.899 -11.238   0.967  0.00  0.00    +0.000 C 
ATOM     12  C   UNL     1       2.254 -12.508   1.742  0.00  0.00    -0.077 C 
ATOM     13  N   UNL     1       3.618 -12.928   1.401  0.00  0.00    +0.382 N 
ATOM     14  C   UNL     1       4.576 -11.898   1.821  0.00  0.00    -0.077 C 
ATOM     15  C   UNL     1       4.310 -10.604   1.048  0.00  0.00    +0.000 C 
ATOM     16  H   UNL     1       3.688 -13.065   0.404  0.00  0.00    -0.081 HD
BRANCH  13  17
ATOM     17  C   UNL     1       3.927 -14.190   2.088  0.00  0.00    -0.043 C 
BRANCH  17  18
ATOM     18  C   UNL     1       5.279 -14.686   1.644  0.00  0.00    -0.064 A 
ATOM     19  C   UNL     1       5.383 -15.520   0.547  0.00  0.00    +0.002 A 
ATOM     20  C   UNL     1       6.623 -15.975   0.140  0.00  0.00    +0.000 A 
ATOM     21  C   UNL     1       7.759 -15.596   0.830  0.00  0.00    +0.000 A 
ATOM     22  C   UNL     1       7.655 -14.761   1.927  0.00  0.00    +0.000 A 
ATOM     23  C   UNL     1       6.415 -14.303   2.331  0.00  0.00    +0.002 A 
ENDBRANCH  17  18
ENDBRANCH  13  17
ENDBRANCH   5  10
BRANCH   1  24
ATOM     24  S   UNL     1       0.063  -4.530  -0.023  0.00  0.00    +0.102 S 
ATOM     25  O   UNL     1      -0.476  -4.950   1.223  0.00  0.00    -0.146 OA
ATOM     26  O   UNL     1      -0.490  -4.937  -1.267  0.00  0.00    -0.146 OA
BRANCH  24  31
ATOM     27  C   UNL     1      -0.018   1.503   0.010  0.00  0.00    +0.044 C 
ATOM     28  C   UNL     1       0.002  -0.004   0.002  0.00  0.00    -0.050 A 
ATOM     29  C   UNL     1       0.006  -0.689  -1.199  0.00  0.00    +0.005 A 
ATOM     30  C   UNL     1       0.025  -2.071  -1.206  0.00  0.00    +0.029 A 
ATOM     31  C   UNL     1       0.040  -2.768  -0.013  0.00  0.00    +0.113 A 
ATOM     32  C   UNL     1       0.037  -2.084   1.188  0.00  0.00    +0.029 A 
ATOM     33  C   UNL     1       0.023  -0.702   1.195  0.00  0.00    +0.005 A 
ENDBRANCH  24  31
ENDBRANCH   1  24
TORSDOF 5
