REMARK  Name = ZINC26991567
REMARK  14 active torsions:
REMARK  status: ('A' for Active; 'I' for Inactive)
REMARK    1  A    between atoms: C_1  and  C_2
REMARK    2  A    between atoms: C_4  and  C_8
REMARK    3  A    between atoms: C_5  and  C_7
REMARK    4  A    between atoms: N_10  and  N_11
REMARK    5  A    between atoms: C_12  and  C_14
REMARK    6  A    between atoms: C_14  and  C_16
REMARK    7  A    between atoms: C_14  and  N_19
REMARK    8  A    between atoms: C_16  and  C_17
REMARK    9  A    between atoms: C_16  and  C_18
REMARK   10  A    between atoms: C_20  and  C_22
REMARK   11  A    between atoms: C_24  and  O_30
REMARK   12  A    between atoms: C_26  and  O_28
REMARK   13  A    between atoms: O_28  and  C_29
REMARK   14  A    between atoms: O_30  and  C_31
REMARK                            x       y       z     vdW  Elec       q    Type
REMARK                         _______ _______ _______ _____ _____    ______ ____
ROOT
ATOM      1  C   UNL     1      -1.274   1.671   0.013  0.00  0.00    +0.163 C 
ENDROOT
BRANCH   1   3
ATOM      2  N   UNL     1      -3.640   1.178   0.539  0.00  0.00    -0.233 N 
ATOM      3  C   UNL     1      -2.353   0.781   0.575  0.00  0.00    +0.250 C 
ATOM      4  O   UNL     1      -2.063  -0.293   1.058  0.00  0.00    -0.272 OA
ATOM      5  H   UNL     1      -3.896   2.185   0.175  0.00  0.00    +0.173 HD
BRANCH   2   8
ATOM      6  C   UNL     1      -5.941   0.707   0.929  0.00  0.00    +0.263 C 
ATOM      7  O   UNL     1      -6.223   1.819   0.528  0.00  0.00    -0.269 OA
ATOM      8  N   UNL     1      -4.654   0.309   0.965  0.00  0.00    -0.230 N 
ATOM      9  H   UNL     1      -4.399  -0.697   1.328  0.00  0.00    +0.173 HD
BRANCH   6  13
ATOM     10  C   UNL     1      -8.428  -3.372   2.721  0.00  0.00    +0.086 C 
ATOM     11  C   UNL     1      -8.085  -2.013   2.168  0.00  0.00    +0.103 A 
ATOM     12  C   UNL     1      -6.848  -1.579   1.882  0.00  0.00    +0.057 A 
ATOM     13  C   UNL     1      -7.007  -0.207   1.377  0.00  0.00    +0.079 A 
ATOM     14  C   UNL     1      -8.348   0.040   1.404  0.00  0.00    +0.114 A 
ATOM     15  O   UNL     1      -8.968  -1.045   1.877  0.00  0.00    -0.464 OA
ATOM     16  C   UNL     1      -9.017   1.321   0.974  0.00  0.00    +0.087 C 
ENDBRANCH   6  13
ENDBRANCH   2   8
ENDBRANCH   1   3
BRANCH   1  17
ATOM     17  N   UNL     1       0.022   1.279   0.572  0.00  0.00    -0.300 N 
ATOM     18  C   UNL     1       1.026   2.175   0.637  0.00  0.00    +0.245 C 
ATOM     19  O   UNL     1       0.855   3.310   0.236  0.00  0.00    -0.270 OA
ATOM     20  H   UNL     1       0.175   0.254   0.939  0.00  0.00    +0.150 HD
BRANCH  18  21
ATOM     21  C   UNL     1       2.337   1.778   1.196  0.00  0.00    +0.044 A 
ATOM     22  C   UNL     1       2.533   0.478   1.662  0.00  0.00    +0.059 A 
ATOM     23  C   UNL     1       3.764   0.109   2.179  0.00  0.00    +0.124 A 
ATOM     24  C   UNL     1       4.797   1.033   2.245  0.00  0.00    +0.091 A 
ATOM     25  C   UNL     1       4.604   2.328   1.788  0.00  0.00    +0.124 A 
ATOM     26  C   UNL     1       3.378   2.704   1.264  0.00  0.00    +0.059 A 
BRANCH  25  27
ATOM     27  O   UNL     1       5.619   3.230   1.855  0.00  0.00    -0.495 OA
ATOM     28  C   UNL     1       6.855   2.774   2.407  0.00  0.00    +0.277 C 
ENDBRANCH  25  27
BRANCH  23  29
ATOM     29  O   UNL     1       3.959  -1.159   2.628  0.00  0.00    -0.495 OA
ATOM     30  C   UNL     1       5.250  -1.470   3.154  0.00  0.00    +0.277 C 
ENDBRANCH  23  29
ENDBRANCH  18  21
ENDBRANCH   1  17
BRANCH   1  31
ATOM     31  C   UNL     1      -1.237   1.528  -1.510  0.00  0.00    +0.012 C 
ATOM     32  C   UNL     1      -0.222   2.516  -2.090  0.00  0.00    +0.009 C 
ATOM     33  C   UNL     1      -0.827   0.101  -1.878  0.00  0.00    +0.009 C 
ENDBRANCH   1  31
TORSDOF 8
