REMARK  Name = ZINC27636571
REMARK  6 active torsions:
REMARK  status: ('A' for Active; 'I' for Inactive)
REMARK    1  A    between atoms: C_2  and  C_3
REMARK    2  A    between atoms: C_3  and  N_4
REMARK    3  A    between atoms: C_5  and  C_7
REMARK    4  A    between atoms: C_10  and  C_13
REMARK    5  A    between atoms: C_13  and  N_14
REMARK    6  A    between atoms: C_15  and  C_17
REMARK                            x       y       z     vdW  Elec       q    Type
REMARK                         _______ _______ _______ _____ _____    ______ ____
ROOT
ATOM      1  C   UNL     1       2.654  -6.123   5.721  0.00  0.00    +0.139 C 
ENDROOT
BRANCH   1   5
ATOM      2  C   UNL     1       2.507  -3.391   2.435  0.00  0.00    +0.037 A 
ATOM      3  C   UNL     1       1.427  -3.491   3.312  0.00  0.00    +0.013 A 
ATOM      4  C   UNL     1       1.480  -4.375   4.370  0.00  0.00    +0.006 A 
ATOM      5  C   UNL     1       2.602  -5.161   4.563  0.00  0.00    -0.030 A 
ATOM      6  C   UNL     1       3.677  -5.066   3.697  0.00  0.00    +0.006 A 
ATOM      7  C   UNL     1       3.634  -4.191   2.632  0.00  0.00    +0.013 A 
BRANCH   2   9
ATOM      8  N   UNL     1       1.367  -1.676   1.111  0.00  0.00    -0.308 N 
ATOM      9  C   UNL     1       2.457  -2.447   1.299  0.00  0.00    +0.244 C 
ATOM     10  O   UNL     1       3.398  -2.366   0.533  0.00  0.00    -0.270 OA
ATOM     11  H   UNL     1       0.617  -1.740   1.722  0.00  0.00    +0.149 HD
BRANCH   8  12
ATOM     12  C   UNL     1       1.317  -0.740  -0.015  0.00  0.00    +0.131 C 
BRANCH  12  14
ATOM     13  C   UNL     1      -0.016   1.306   0.009  0.00  0.00    +0.005 C 
ATOM     14  C   UNL     1       0.002  -0.004   0.002  0.00  0.00    -0.016 C 
ENDBRANCH  12  14
ENDBRANCH   8  12
ENDBRANCH   2   9
ENDBRANCH   1   5
BRANCH   1  15
ATOM     15  N   UNL     1       2.117  -7.420   5.303  0.00  0.00    -0.311 N 
ATOM     16  C   UNL     1       2.063  -8.443   6.179  0.00  0.00    +0.219 C 
ATOM     17  O   UNL     1       2.460  -8.289   7.315  0.00  0.00    -0.275 OA
ATOM     18  H   UNL     1       1.799  -7.544   4.394  0.00  0.00    +0.149 HD
BRANCH  16  19
ATOM     19  C   UNL     1       1.511  -9.777   5.749  0.00  0.00    +0.048 C 
ATOM     20  C   UNL     1       0.060  -9.605   5.293  0.00  0.00    +0.019 C 
ATOM     21  C   UNL     1      -0.500 -10.960   4.855  0.00  0.00    -0.009 C 
ATOM     22  C   UNL     1      -0.448 -11.937   6.031  0.00  0.00    +0.007 C 
ATOM     23  C   UNL     1       1.002 -12.109   6.487  0.00  0.00    -0.009 C 
ATOM     24  C   UNL     1       1.563 -10.754   6.925  0.00  0.00    +0.019 C 
ATOM     25  C   UNL     1       1.839 -12.658   5.330  0.00  0.00    +0.007 C 
ATOM     26  C   UNL     1       1.787 -11.680   4.154  0.00  0.00    -0.009 C 
ATOM     27  C   UNL     1       0.337 -11.509   3.698  0.00  0.00    +0.007 C 
ATOM     28  C   UNL     1       2.348 -10.326   4.591  0.00  0.00    +0.019 C 
ENDBRANCH  16  19
ENDBRANCH   1  15
TORSDOF 6
