REMARK  Name = ZINC38091817
REMARK  6 active torsions:
REMARK  status: ('A' for Active; 'I' for Inactive)
REMARK    1  A    between atoms: C_4  and  C_8
REMARK    2  A    between atoms: C_8  and  C_10
REMARK    3  A    between atoms: C_8  and  O_21
REMARK    4  A    between atoms: C_10  and  N_11
REMARK    5  A    between atoms: N_11  and  C_12
REMARK    6  A    between atoms: C_15  and  C_18
REMARK                            x       y       z     vdW  Elec       q    Type
REMARK                         _______ _______ _______ _____ _____    ______ ____
ROOT
ATOM      1  N   UNL     1       5.569  -1.465   1.368  0.00  0.00    +0.383 N 
ATOM      2  H   UNL     1       5.516  -2.374   0.935  0.00  0.00    -0.085 HD
ATOM      3  H   UNL     1       6.197  -0.877   0.841  0.00  0.00    -0.085 HD
ENDROOT
BRANCH   1   4
ATOM      4  C   UNL     1       6.069  -1.606   2.742  0.00  0.00    -0.072 C 
ATOM      5  C   UNL     1       6.268  -0.219   3.357  0.00  0.00    -0.015 C 
ATOM      6  C   UNL     1       6.789  -0.366   4.789  0.00  0.00    +0.011 C 
ATOM      7  C   UNL     1       8.124  -1.113   4.771  0.00  0.00    +0.075 C 
ATOM      8  C   UNL     1       7.925  -2.499   4.156  0.00  0.00    +0.011 C 
ATOM      9  C   UNL     1       7.404  -2.353   2.725  0.00  0.00    -0.015 C 
BRANCH   7  10
ATOM     10  C   UNL     1       9.122  -0.338   3.951  0.00  0.00    +0.214 C 
ATOM     11  O   UNL     1       8.798   0.709   3.431  0.00  0.00    -0.276 OA
ATOM     12  N   UNL     1      10.376  -0.808   3.795  0.00  0.00    -0.329 N 
ATOM     13  H   UNL     1      10.635  -1.645   4.210  0.00  0.00    +0.145 HD
ATOM     14  H   UNL     1      11.019  -0.309   3.266  0.00  0.00    +0.145 HD
ENDBRANCH   7  10
ENDBRANCH   1   4
BRANCH   1  15
ATOM     15  C   UNL     1       4.233  -0.855   1.394  0.00  0.00    -0.046 C 
BRANCH  15  16
ATOM     16  C   UNL     1       3.712  -0.708  -0.037  0.00  0.00    +0.129 C 
BRANCH  16  20
ATOM     17  C   UNL     1      -0.017   1.379   0.010  0.00  0.00    +0.021 A 
ATOM     18  C   UNL     1       1.171   2.086   0.002  0.00  0.00    +0.022 A 
ATOM     19  C   UNL     1       2.378   1.411  -0.013  0.00  0.00    +0.047 A 
ATOM     20  C   UNL     1       2.397   0.028  -0.021  0.00  0.00    -0.001 A 
ATOM     21  C   UNL     1       1.210  -0.680  -0.013  0.00  0.00    +0.027 A 
ATOM     22  C   UNL     1       0.002  -0.004   0.002  0.00  0.00    +0.041 A 
ATOM     23 CL   UNL     1      -1.489  -0.892   0.012  0.00  0.00    -0.084 Cl
ATOM     24 CL   UNL     1       3.869   2.300  -0.023  0.00  0.00    -0.083 Cl
ENDBRANCH  16  20
BRANCH  16  25
ATOM     25  O   UNL     1       3.526  -2.003  -0.612  0.00  0.00    -0.389 OA
ATOM     26  H   UNL     1       2.894  -2.558  -0.134  0.00  0.00    +0.210 HD
ENDBRANCH  16  25
ENDBRANCH  15  16
ENDBRANCH   1  15
TORSDOF 6
