REMARK  Name = ZINC05090954
REMARK  14 active torsions:
REMARK  status: ('A' for Active; 'I' for Inactive)
REMARK    1  A    between atoms: C_1  and  C_2
REMARK    2  A    between atoms: C_4  and  C_24
REMARK    3  A    between atoms: C_6  and  C_14
REMARK    4  A    between atoms: C_8  and  C_13
REMARK    5  A    between atoms: C_10  and  C_11
REMARK    6  A    between atoms: C_10  and  O_12
REMARK    7  A    between atoms: C_16  and  O_22
REMARK    8  A    between atoms: C_19  and  O_20
REMARK    9  A    between atoms: O_20  and  C_21
REMARK   10  A    between atoms: O_22  and  C_23
REMARK   11  A    between atoms: C_26  and  O_32
REMARK   12  A    between atoms: C_29  and  O_30
REMARK   13  A    between atoms: O_30  and  C_31
REMARK   14  A    between atoms: O_32  and  C_33
REMARK                            x       y       z     vdW  Elec       q    Type
REMARK                         _______ _______ _______ _____ _____    ______ ____
ROOT
ATOM      1  C   UNL     1       1.540   2.430   2.454  0.00  0.00    +0.009 C 
ATOM      2  C   UNL     1       2.067   1.583   1.294  0.00  0.00    +0.008 C 
ATOM      3  C   UNL     1       1.362   1.971  -0.000  0.00  0.00    -0.031 C 
ATOM      4  C   UNL     1       0.002  -0.004   0.002  0.00  0.00    -0.031 C 
ATOM      5  C   UNL     1       0.595  -0.509   1.313  0.00  0.00    +0.008 C 
ATOM      6  C   UNL     1       1.958   0.099   1.606  0.00  0.00    +0.066 C 
ATOM      7  C   UNL     1       3.029  -0.662   0.805  0.00  0.00    +0.042 C 
ATOM      8  C   UNL     1      -0.381  -0.259   2.463  0.00  0.00    +0.009 C 
ATOM      9  N   UNL     1      -0.017   1.466   0.010  0.00  0.00    +0.389 N 
ATOM     10  H   UNL     1      -0.513   1.807  -0.822  0.00  0.00    -0.084 HD
ATOM     11  H   UNL     1      -0.497   1.798   0.855  0.00  0.00    -0.084 HD
ENDROOT
BRANCH   4  12
ATOM     12  C   UNL     1      -1.407  -0.518  -0.147  0.00  0.00    -0.016 A 
ATOM     13  C   UNL     1      -2.477   0.301   0.160  0.00  0.00    +0.051 A 
ATOM     14  C   UNL     1      -3.773  -0.171   0.023  0.00  0.00    +0.121 A 
ATOM     15  C   UNL     1      -3.996  -1.466  -0.422  0.00  0.00    +0.049 A 
ATOM     16  C   UNL     1      -2.927  -2.285  -0.729  0.00  0.00    +0.049 A 
ATOM     17  C   UNL     1      -1.630  -1.810  -0.597  0.00  0.00    +0.122 A 
BRANCH  17  18
ATOM     18  O   UNL     1      -0.577  -2.614  -0.904  0.00  0.00    -0.495 OA
ATOM     19  C   UNL     1      -0.880  -3.933  -1.362  0.00  0.00    +0.277 C 
ENDBRANCH  17  18
BRANCH  14  20
ATOM     20  O   UNL     1      -4.826   0.635   0.325  0.00  0.00    -0.495 OA
ATOM     21  C   UNL     1      -6.134   0.083   0.160  0.00  0.00    +0.277 C 
ENDBRANCH  14  20
ENDBRANCH   4  12
BRANCH   3  22
ATOM     22  C   UNL     1       1.340   3.471  -0.134  0.00  0.00    -0.016 A 
ATOM     23  C   UNL     1       0.231   4.185   0.278  0.00  0.00    +0.051 A 
ATOM     24  C   UNL     1       0.213   5.567   0.160  0.00  0.00    +0.121 A 
ATOM     25  C   UNL     1       1.304   6.231  -0.382  0.00  0.00    +0.049 A 
ATOM     26  C   UNL     1       2.410   5.517  -0.799  0.00  0.00    +0.049 A 
ATOM     27  C   UNL     1       2.431   4.136  -0.676  0.00  0.00    +0.122 A 
BRANCH  27  28
ATOM     28  O   UNL     1       3.520   3.432  -1.086  0.00  0.00    -0.495 OA
ATOM     29  C   UNL     1       4.607   4.181  -1.634  0.00  0.00    +0.277 C 
ENDBRANCH  27  28
BRANCH  24  30
ATOM     30  O   UNL     1      -0.876   6.270   0.570  0.00  0.00    -0.495 OA
ATOM     31  C   UNL     1      -0.828   7.690   0.413  0.00  0.00    +0.277 C 
ENDBRANCH  24  30
ENDBRANCH   3  22
BRANCH   6  32
ATOM     32  O   UNL     1       2.249  -0.093   3.004  0.00  0.00    -0.388 OA
ATOM     33  H   UNL     1       3.103   0.266   3.282  0.00  0.00    +0.210 HD
ENDBRANCH   6  32
TORSDOF 7
