REMARK  Name = ZINC63426711
REMARK  7 active torsions:
REMARK  status: ('A' for Active; 'I' for Inactive)
REMARK    1  A    between atoms: C_1  and  C_2
REMARK    2  A    between atoms: C_5  and  N_8
REMARK    3  A    between atoms: C_12  and  C_13
REMARK    4  A    between atoms: C_12  and  N_14
REMARK    5  A    between atoms: N_14  and  C_15
REMARK    6  A    between atoms: C_15  and  C_16
REMARK    7  A    between atoms: C_16  and  C_17
REMARK                            x       y       z     vdW  Elec       q    Type
REMARK                         _______ _______ _______ _____ _____    ______ ____
ROOT
ATOM      1  N   UNL     1      -0.986  -4.351   0.113  0.00  0.00    -0.190 N 
ATOM      2  C   UNL     1      -0.473  -4.936   1.215  0.00  0.00    +0.265 C 
ATOM      3  O   UNL     1      -0.224  -4.283   2.211  0.00  0.00    -0.269 OA
ATOM      4  C   UNL     1      -0.223  -6.388   1.180  0.00  0.00    +0.116 C 
ATOM      5  C   UNL     1       0.301  -7.056   2.271  0.00  0.00    +0.018 C 
ATOM      6  C   UNL     1       0.531  -6.321   3.566  0.00  0.00    +0.061 C 
ATOM      7  C   UNL     1      -0.555  -7.096  -0.069  0.00  0.00    +0.258 C 
ATOM      8  O   UNL     1      -0.377  -8.296  -0.174  0.00  0.00    -0.270 OA
ATOM      9  N   UNL     1      -1.063  -6.380  -1.093  0.00  0.00    -0.235 N 
ATOM     10  C   UNL     1      -1.270  -5.059  -0.989  0.00  0.00    +0.320 C 
ATOM     11  O   UNL     1      -1.735  -4.473  -1.946  0.00  0.00    -0.251 OA
ATOM     12  H   UNL     1      -1.287  -6.831  -1.922  0.00  0.00    +0.159 HD
ENDROOT
BRANCH   1  17
ATOM     13  C   UNL     1      -1.984   1.236   0.152  0.00  0.00    +0.044 C 
ATOM     14  C   UNL     1      -1.719  -0.248   0.142  0.00  0.00    -0.050 A 
ATOM     15  C   UNL     1      -2.748  -1.135   0.403  0.00  0.00    +0.005 A 
ATOM     16  C   UNL     1      -2.508  -2.495   0.394  0.00  0.00    +0.024 A 
ATOM     17  C   UNL     1      -1.232  -2.971   0.122  0.00  0.00    +0.046 A 
ATOM     18  C   UNL     1      -0.202  -2.079  -0.140  0.00  0.00    +0.024 A 
ATOM     19  C   UNL     1      -0.449  -0.720  -0.134  0.00  0.00    +0.005 A 
ENDBRANCH   1  17
BRANCH   5  20
ATOM     20  N   UNL     1       0.606  -8.366   2.177  0.00  0.00    -0.346 N 
ATOM     21  H   UNL     1       0.537  -8.820   1.322  0.00  0.00    +0.146 HD
BRANCH  20  22
ATOM     22  C   UNL     1       1.040  -9.105   3.365  0.00  0.00    +0.105 C 
BRANCH  22  23
ATOM     23  C   UNL     1       1.321 -10.560   2.986  0.00  0.00    +0.052 C 
BRANCH  23  24
ATOM     24  C   UNL     1       1.767 -11.320   4.209  0.00  0.00    -0.040 C 
ATOM     25  C   UNL     1       0.994 -12.067   5.030  0.00  0.00    -0.001 A 
ATOM     26  C   UNL     1      -0.440 -12.382   5.031  0.00  0.00    +0.010 A 
ATOM     27  C   UNL     1      -0.936 -13.175   6.008  0.00  0.00    +0.001 A 
ATOM     28  C   UNL     1      -0.118 -13.703   7.016  0.00  0.00    +0.002 A 
ATOM     29  C   UNL     1       1.208 -13.458   7.081  0.00  0.00    +0.026 A 
ATOM     30  C   UNL     1       1.837 -12.637   6.105  0.00  0.00    +0.043 A 
ATOM     31  N   UNL     1       3.083 -12.257   5.955  0.00  0.00    -0.380 N 
ATOM     32  C   UNL     1       3.172 -11.408   4.762  0.00  0.00    +0.144 C 
ATOM     33  H   UNL     1       3.822 -12.501   6.533  0.00  0.00    +0.160 HD
ENDBRANCH  23  24
ENDBRANCH  22  23
ENDBRANCH  20  22
ENDBRANCH   5  20
TORSDOF 5
