REMARK  Name = ZINC09516972
REMARK  9 active torsions:
REMARK  status: ('A' for Active; 'I' for Inactive)
REMARK    1  A    between atoms: C_1  and  N_52
REMARK    2  A    between atoms: C_2  and  N_52
REMARK    3  A    between atoms: C_3  and  C_4
REMARK    4  A    between atoms: C_3  and  N_52
REMARK    5  A    between atoms: C_4  and  N_5
REMARK    6  A    between atoms: N_5  and  C_6
REMARK    7  A    between atoms: C_8  and  C_21
REMARK    8  A    between atoms: C_21  and  C_23
REMARK    9  A    between atoms: C_28  and  O_29
REMARK                            x       y       z     vdW  Elec       q    Type
REMARK                         _______ _______ _______ _____ _____    ______ ____
ROOT
ATOM      1  C   UNL     1       0.794  -1.841  -1.440  0.00  0.00    +0.071 A 
ATOM      2  C   UNL     1       0.302  -2.742  -0.548  0.00  0.00    +0.039 A 
ATOM      3  C   UNL     1       0.486  -4.128  -0.784  0.00  0.00    +0.041 A 
ATOM      4  C   UNL     1       1.158  -4.546  -1.909  0.00  0.00    +0.108 A 
ATOM      5  N   UNL     1       1.651  -3.643  -2.800  0.00  0.00    -0.266 N 
ATOM      6  C   UNL     1       1.481  -2.296  -2.600  0.00  0.00    +0.162 A 
ATOM      7  N   UNL     1       1.953  -1.393  -3.444  0.00  0.00    -0.227 NA
ATOM      8  C   UNL     1       2.616  -1.737  -4.557  0.00  0.00    +0.079 A 
ATOM      9  C   UNL     1       3.107  -0.773  -5.448  0.00  0.00    +0.028 A 
ATOM     10  C   UNL     1       3.777  -1.169  -6.569  0.00  0.00    +0.002 A 
ATOM     11  C   UNL     1       3.982  -2.516  -6.844  0.00  0.00    +0.001 A 
ATOM     12  C   UNL     1       3.517  -3.481  -5.995  0.00  0.00    +0.015 A 
ATOM     13  C   UNL     1       2.828  -3.108  -4.841  0.00  0.00    +0.065 A 
ATOM     14  C   UNL     1       2.306  -4.097  -3.894  0.00  0.00    +0.266 A 
ATOM     15  O   UNL     1       2.458  -5.290  -4.085  0.00  0.00    -0.267 OA
ENDROOT
BRANCH   1  16
ATOM     16  N   UNL     1       0.620  -0.472  -1.221  0.00  0.00    -0.343 N 
ATOM     17  H   UNL     1       0.972   0.170  -1.858  0.00  0.00    +0.146 HD
BRANCH  16  18
ATOM     18  C   UNL     1      -0.093  -0.005  -0.029  0.00  0.00    +0.083 C 
BRANCH  18  19
ATOM     19  C   UNL     1      -0.143   1.524  -0.031  0.00  0.00    -0.061 C 
BRANCH  19  22
ATOM     20  C   UNL     1      -0.723   3.446   1.323  0.00  0.00    -0.097 C 
ATOM     21  C   UNL     1      -2.272   1.596   1.120  0.00  0.00    -0.097 C 
ATOM     22  N   UNL     1      -0.846   1.979   1.187  0.00  0.00    +0.377 N 
ATOM     23  H   UNL     1      -0.418   1.531   2.006  0.00  0.00    -0.083 HD
ENDBRANCH  19  22
ENDBRANCH  18  19
ENDBRANCH  16  18
ENDBRANCH   1  16
BRANCH   3  24
ATOM     24  C   UNL     1      -0.042  -5.118   0.174  0.00  0.00    +0.198 C 
ATOM     25  O   UNL     1      -0.940  -5.867  -0.159  0.00  0.00    -0.286 OA
BRANCH  24  26
ATOM     26  C   UNL     1       0.519  -5.199   1.535  0.00  0.00    +0.065 A 
ATOM     27  C   UNL     1       1.486  -4.280   1.953  0.00  0.00    +0.035 A 
ATOM     28  C   UNL     1       2.003  -4.359   3.229  0.00  0.00    +0.042 A 
ATOM     29  C   UNL     1       1.575  -5.352   4.096  0.00  0.00    +0.023 A 
ATOM     30  C   UNL     1       0.625  -6.269   3.694  0.00  0.00    +0.047 A 
ATOM     31  C   UNL     1       0.090  -6.202   2.416  0.00  0.00    +0.128 A 
ATOM     32 CL   UNL     1       3.199  -3.213   3.749  0.00  0.00    -0.084 Cl
BRANCH  31  33
ATOM     33  O   UNL     1      -0.845  -7.102   2.021  0.00  0.00    -0.506 OA
ATOM     34  H   UNL     1      -0.476  -7.897   1.610  0.00  0.00    +0.292 HD
ENDBRANCH  31  33
ENDBRANCH  24  26
ENDBRANCH   3  24
TORSDOF 7
