REMARK  Name = ZINC58434569
REMARK  7 active torsions:
REMARK  status: ('A' for Active; 'I' for Inactive)
REMARK    1  A    between atoms: C_1  and  C_2
REMARK    2  A    between atoms: C_2  and  C_4
REMARK    3  A    between atoms: C_2  and  O_28
REMARK    4  A    between atoms: C_7  and  C_10
REMARK    5  A    between atoms: C_10  and  N_11
REMARK    6  A    between atoms: C_18  and  C_20
REMARK    7  A    between atoms: C_20  and  C_21
REMARK                            x       y       z     vdW  Elec       q    Type
REMARK                         _______ _______ _______ _____ _____    ______ ____
ROOT
ATOM      1  N   UNL     1       3.089  -3.105  -4.882  0.00  0.00    -0.295 N 
ATOM      2  C   UNL     1       3.625  -3.869  -5.855  0.00  0.00    +0.303 C 
ATOM      3  O   UNL     1       4.099  -3.348  -6.846  0.00  0.00    -0.253 OA
ATOM      4  N   UNL     1       3.636  -5.211  -5.729  0.00  0.00    -0.282 N 
ATOM      5  C   UNL     1       3.192  -5.966  -4.543  0.00  0.00    +0.110 C 
ATOM      6  C   UNL     1       3.947  -7.316  -4.627  0.00  0.00    +0.021 C 
ATOM      7  C   UNL     1       3.944  -7.580  -6.155  0.00  0.00    +0.024 C 
ATOM      8  C   UNL     1       4.085  -6.165  -6.753  0.00  0.00    +0.082 C 
ATOM      9  H   UNL     1       2.711  -3.521  -4.092  0.00  0.00    +0.151 HD
ENDROOT
BRANCH   1  10
ATOM     10  C   UNL     1       3.078  -1.647  -5.019  0.00  0.00    +0.141 C 
BRANCH  10  14
ATOM     11  C   UNL     1       1.236   0.095  -1.581  0.00  0.00    -0.019 A 
ATOM     12  C   UNL     1       2.600  -0.129  -1.596  0.00  0.00    +0.006 A 
ATOM     13  C   UNL     1       3.196  -0.693  -2.708  0.00  0.00    +0.005 A 
ATOM     14  C   UNL     1       2.428  -1.033  -3.806  0.00  0.00    -0.030 A 
ATOM     15  C   UNL     1       1.064  -0.810  -3.791  0.00  0.00    +0.005 A 
ATOM     16  C   UNL     1       0.467  -0.251  -2.676  0.00  0.00    +0.006 A 
BRANCH  11  18
ATOM     17  C   UNL     1       0.681   2.233  -0.456  0.00  0.00    +0.043 C 
ATOM     18  C   UNL     1       0.587   0.709  -0.368  0.00  0.00    +0.141 C 
BRANCH  18  19
ATOM     19  O   UNL     1       1.256   0.257   0.811  0.00  0.00    -0.387 OA
ATOM     20  H   UNL     1       0.890   0.614   1.632  0.00  0.00    +0.210 HD
ENDBRANCH  18  19
ENDBRANCH  11  18
ENDBRANCH  10  14
ENDBRANCH   1  10
BRANCH   8  21
ATOM     21  C   UNL     1       3.213  -6.035  -8.004  0.00  0.00    +0.057 C 
BRANCH  21  22
ATOM     22  C   UNL     1       3.770  -6.909  -9.097  0.00  0.00    -0.043 A 
ATOM     23  C   UNL     1       4.793  -6.443  -9.902  0.00  0.00    +0.004 A 
ATOM     24  C   UNL     1       5.304  -7.244 -10.906  0.00  0.00    +0.003 A 
ATOM     25  C   UNL     1       4.793  -8.512 -11.107  0.00  0.00    +0.038 A 
ATOM     26  C   UNL     1       3.769  -8.980 -10.302  0.00  0.00    +0.124 A 
ATOM     27  C   UNL     1       3.261  -8.179  -9.292  0.00  0.00    +0.042 A 
ATOM     28  F   UNL     1       3.268 -10.220 -10.497  0.00  0.00    -0.205 F 
ENDBRANCH  21  22
ENDBRANCH   8  21
TORSDOF 6
