REMARK  Name = ZINC66345349
REMARK  7 active torsions:
REMARK  status: ('A' for Active; 'I' for Inactive)
REMARK    1  A    between atoms: C_1  and  N_2
REMARK    2  A    between atoms: C_3  and  C_5
REMARK    3  A    between atoms: C_5  and  C_6
REMARK    4  A    between atoms: C_11  and  N_12
REMARK    5  A    between atoms: N_15  and  C_16
REMARK    6  A    between atoms: C_16  and  C_17
REMARK    7  A    between atoms: N_21  and  C_23
REMARK                            x       y       z     vdW  Elec       q    Type
REMARK                         _______ _______ _______ _____ _____    ______ ____
ROOT
ATOM      1  N   UNL     1      -2.643  -2.511  -2.392  0.00  0.00    -0.269 N 
ATOM      2  C   UNL     1      -3.284  -2.737  -3.556  0.00  0.00    +0.304 C 
ATOM      3  O   UNL     1      -4.425  -3.158  -3.549  0.00  0.00    -0.253 OA
ATOM      4  N   UNL     1      -2.662  -2.497  -4.727  0.00  0.00    -0.299 N 
ATOM      5  H   UNL     1      -1.758  -2.114  -2.396  0.00  0.00    +0.156 HD
ATOM      6  H   UNL     1      -1.752  -2.161  -4.732  0.00  0.00    +0.150 HD
ENDROOT
BRANCH   1  12
ATOM      7  C   UNL     1      -2.486  -3.317  -0.121  0.00  0.00    -0.017 A 
ATOM      8  C   UNL     1      -3.091  -3.643   1.077  0.00  0.00    +0.006 A 
ATOM      9  C   UNL     1      -4.460  -3.510   1.221  0.00  0.00    +0.000 A 
ATOM     10  C   UNL     1      -5.228  -3.050   0.167  0.00  0.00    +0.002 A 
ATOM     11  C   UNL     1      -4.629  -2.721  -1.033  0.00  0.00    +0.023 A 
ATOM     12  C   UNL     1      -3.253  -2.848  -1.179  0.00  0.00    +0.038 A 
BRANCH   7  13
ATOM     13  C   UNL     1      -0.994  -3.462  -0.277  0.00  0.00    +0.132 C 
BRANCH  13  16
ATOM     14  C   UNL     1       1.662  -0.750   0.217  0.00  0.00    +0.128 C 
ATOM     15  N   UNL     1       1.013  -2.033  -0.065  0.00  0.00    -0.318 N 
ATOM     16  C   UNL     1      -0.328  -2.142   0.013  0.00  0.00    +0.217 C 
ATOM     17  O   UNL     1      -0.998  -1.178   0.317  0.00  0.00    -0.275 OA
ATOM     18  H   UNL     1       1.549  -2.804  -0.308  0.00  0.00    +0.148 HD
ENDBRANCH  13  16
ENDBRANCH   7  13
ENDBRANCH   1  12
BRANCH   4  19
ATOM     19  C   UNL     1      -3.359  -2.743  -5.991  0.00  0.00    +0.110 C 
BRANCH  19  20
ATOM     20  C   UNL     1      -2.436  -2.392  -7.160  0.00  0.00    +0.025 C 
ATOM     21  C   UNL     1      -1.260  -3.400  -7.252  0.00  0.00    +0.025 C 
ATOM     22  C   UNL     1      -0.900  -3.321  -8.757  0.00  0.00    +0.105 C 
ATOM     23  N   UNL     1      -2.194  -3.168  -9.447  0.00  0.00    -0.330 N 
ATOM     24  C   UNL     1      -3.165  -2.580  -8.507  0.00  0.00    +0.110 C 
BRANCH  23  25
ATOM     25  C   UNL     1      -2.456  -3.518 -10.775  0.00  0.00    +0.030 A 
ATOM     26  C   UNL     1      -3.722  -3.316 -11.310  0.00  0.00    +0.026 A 
ATOM     27  C   UNL     1      -3.978  -3.663 -12.623  0.00  0.00    +0.040 A 
ATOM     28  C   UNL     1      -2.975  -4.210 -13.404  0.00  0.00    +0.124 A 
ATOM     29  C   UNL     1      -1.712  -4.412 -12.872  0.00  0.00    +0.040 A 
ATOM     30  C   UNL     1      -1.450  -4.062 -11.562  0.00  0.00    +0.026 A 
ATOM     31  F   UNL     1      -3.228  -4.548 -14.687  0.00  0.00    -0.205 F 
ENDBRANCH  23  25
ENDBRANCH  19  20
ENDBRANCH   4  19
TORSDOF 6
