REMARK  Name = ZINC14981552
REMARK  11 active torsions:
REMARK  status: ('A' for Active; 'I' for Inactive)
REMARK    1  A    between atoms: C_1  and  C_2
REMARK    2  A    between atoms: C_6  and  C_7
REMARK    3  A    between atoms: C_12  and  C_15
REMARK    4  A    between atoms: C_15  and  C_26
REMARK    5  A    between atoms: N_18  and  C_22
REMARK    6  A    between atoms: C_22  and  C_23
REMARK    7  A    between atoms: C_23  and  N_68
REMARK    8  A    between atoms: C_24  and  N_68
REMARK    9  A    between atoms: C_25  and  N_68
REMARK   10  A    between atoms: C_26  and  C_27
REMARK   11  A    between atoms: C_27  and  C_28
REMARK                            x       y       z     vdW  Elec       q    Type
REMARK                         _______ _______ _______ _____ _____    ______ ____
ROOT
ATOM      1  C   UNL     1       2.726  -1.100   1.229  0.00  0.00    +0.116 C 
ATOM      2  C   UNL     1       3.477  -2.009   2.181  0.00  0.00    +0.247 C 
ATOM      3  O   UNL     1       4.640  -1.923   2.513  0.00  0.00    -0.273 OA
ATOM      4  N   UNL     1       2.583  -2.934   2.583  0.00  0.00    -0.226 N 
ATOM      5  C   UNL     1       1.384  -2.738   2.022  0.00  0.00    +0.309 C 
ATOM      6  O   UNL     1       0.417  -3.443   2.231  0.00  0.00    -0.252 OA
ATOM      7  N   UNL     1       1.369  -1.672   1.202  0.00  0.00    -0.285 N 
ATOM      8  H   UNL     1       0.613  -1.346   0.689  0.00  0.00    +0.151 HD
ENDROOT
BRANCH   1  14
ATOM      9  C   UNL     1       4.126   2.984   4.557  0.00  0.00    +0.253 C 
ATOM     10  O   UNL     1       3.599   3.056   5.651  0.00  0.00    -0.269 OA
ATOM     11  N   UNL     1       3.474   2.399   3.533  0.00  0.00    -0.297 N 
ATOM     12  C   UNL     1       2.167   1.762   3.743  0.00  0.00    +0.108 C 
ATOM     13  C   UNL     1       2.229   0.323   3.221  0.00  0.00    +0.025 C 
ATOM     14  C   UNL     1       2.696   0.333   1.764  0.00  0.00    +0.024 C 
ATOM     15  C   UNL     1       4.099   0.938   1.680  0.00  0.00    +0.025 C 
ATOM     16  C   UNL     1       4.058   2.385   2.184  0.00  0.00    +0.108 C 
BRANCH   9  22
ATOM     17  C   UNL     1       6.566   2.616   6.433  0.00  0.00    +0.045 C 
ATOM     18  C   UNL     1       6.596   3.405   5.149  0.00  0.00    -0.031 A 
ATOM     19  C   UNL     1       7.742   4.025   4.716  0.00  0.00    +0.011 A 
ATOM     20  C   UNL     1       7.716   4.731   3.555  0.00  0.00    +0.046 A 
ATOM     21  S   UNL     1       6.079   4.547   3.016  0.00  0.00    -0.092 S 
ATOM     22  C   UNL     1       5.470   3.533   4.352  0.00  0.00    +0.077 A 
ENDBRANCH   9  22
ENDBRANCH   1  14
BRANCH   4  23
ATOM     23  C   UNL     1       2.886  -4.021   3.517  0.00  0.00    +0.099 C 
BRANCH  23  24
ATOM     24  C   UNL     1       3.370  -5.245   2.736  0.00  0.00    -0.060 C 
BRANCH  24  27
ATOM     25  C   UNL     1       3.913  -7.594   2.955  0.00  0.00    -0.097 C 
ATOM     26  C   UNL     1       4.819  -5.990   4.527  0.00  0.00    -0.097 C 
ATOM     27  N   UNL     1       3.652  -6.338   3.690  0.00  0.00    +0.377 N 
ATOM     28  H   UNL     1       2.834  -6.471   4.296  0.00  0.00    -0.083 HD
ENDBRANCH  24  27
ENDBRANCH  23  24
ENDBRANCH   4  23
BRANCH   1  29
ATOM     29  C   UNL     1       3.356  -1.142  -0.165  0.00  0.00    +0.040 C 
BRANCH  29  30
ATOM     30  C   UNL     1       3.310  -2.574  -0.702  0.00  0.00    +0.038 C 
BRANCH  30  31
ATOM     31  C   UNL     1       3.930  -2.616  -2.075  0.00  0.00    -0.047 A 
ATOM     32  C   UNL     1       3.143  -2.422  -3.195  0.00  0.00    +0.003 A 
ATOM     33  C   UNL     1       3.713  -2.455  -4.454  0.00  0.00    +0.000 A 
ATOM     34  C   UNL     1       5.068  -2.693  -4.593  0.00  0.00    +0.000 A 
ATOM     35  C   UNL     1       5.854  -2.892  -3.474  0.00  0.00    +0.000 A 
ATOM     36  C   UNL     1       5.285  -2.854  -2.214  0.00  0.00    +0.003 A 
ENDBRANCH  30  31
ENDBRANCH  29  30
ENDBRANCH   1  29
TORSDOF 8
