REMARK  Name = ZINC12580492
REMARK  11 active torsions:
REMARK  status: ('A' for Active; 'I' for Inactive)
REMARK    1  A    between atoms: C_1  and  C_2
REMARK    2  A    between atoms: C_2  and  C_4
REMARK    3  A    between atoms: C_2  and  O_22
REMARK    4  A    between atoms: N_6  and  N_7
REMARK    5  A    between atoms: C_8  and  C_10
REMARK    6  A    between atoms: C_10  and  O_11
REMARK    7  A    between atoms: O_11  and  C_12
REMARK    8  A    between atoms: C_15  and  C_19
REMARK    9  A    between atoms: C_19  and  C_20
REMARK   10  A    between atoms: C_19  and  C_21
REMARK   11  A    between atoms: O_22  and  C_23
REMARK                            x       y       z     vdW  Elec       q    Type
REMARK                         _______ _______ _______ _____ _____    ______ ____
ROOT
ATOM      1  N   UNL     1       2.616  -1.144   2.606  0.00  0.00    -0.231 N 
ATOM      2  C   UNL     1       3.953  -1.089   2.765  0.00  0.00    +0.267 C 
ATOM      3  O   UNL     1       4.650  -0.634   1.883  0.00  0.00    -0.271 OA
ATOM      4  H   UNL     1       2.058  -1.508   3.311  0.00  0.00    +0.173 HD
ENDROOT
BRANCH   1   7
ATOM      5  C   UNL     1       0.694  -0.732   1.263  0.00  0.00    +0.270 C 
ATOM      6  O   UNL     1      -0.004  -1.187   2.145  0.00  0.00    -0.270 OA
ATOM      7  N   UNL     1       2.031  -0.676   1.422  0.00  0.00    -0.231 N 
ATOM      8  H   UNL     1       2.588  -0.312   0.716  0.00  0.00    +0.173 HD
BRANCH   5  10
ATOM      9  C   UNL     1       0.291   1.280  -0.130  0.00  0.00    +0.062 C 
ATOM     10  C   UNL     1       0.064  -0.228  -0.010  0.00  0.00    +0.257 C 
BRANCH  10  11
ATOM     11  O   UNL     1      -1.339  -0.499   0.012  0.00  0.00    -0.478 OA
BRANCH  11  12
ATOM     12  C   UNL     1      -1.966  -0.607  -1.189  0.00  0.00    +0.140 A 
ATOM     13  C   UNL     1      -1.272  -0.344  -2.361  0.00  0.00    +0.048 A 
ATOM     14  C   UNL     1      -1.911  -0.454  -3.581  0.00  0.00    +0.023 A 
ATOM     15  C   UNL     1      -3.242  -0.827  -3.635  0.00  0.00    +0.043 A 
ATOM     16  C   UNL     1      -3.937  -1.090  -2.468  0.00  0.00    +0.043 A 
ATOM     17  C   UNL     1      -3.300  -0.986  -1.245  0.00  0.00    +0.084 A 
ATOM     18 CL   UNL     1      -4.169  -1.323   0.219  0.00  0.00    -0.080 Cl
ATOM     19 CL   UNL     1      -4.042  -0.964  -5.170  0.00  0.00    -0.083 Cl
ENDBRANCH  11  12
ENDBRANCH  10  11
ENDBRANCH   5  10
ENDBRANCH   1   7
BRANCH   2  20
ATOM     20  C   UNL     1       4.582  -1.592   4.038  0.00  0.00    +0.326 C 
BRANCH  20  21
ATOM     21  O   UNL     1       6.000  -1.427   3.966  0.00  0.00    -0.482 OA
BRANCH  21  22
ATOM     22  C   UNL     1       6.723  -1.835   5.043  0.00  0.00    +0.135 A 
ATOM     23  C   UNL     1       6.083  -2.387   6.142  0.00  0.00    +0.047 A 
ATOM     24  C   UNL     1       6.820  -2.800   7.235  0.00  0.00    +0.007 A 
ATOM     25  C   UNL     1       8.196  -2.664   7.233  0.00  0.00    -0.044 A 
ATOM     26  C   UNL     1       8.838  -2.114   6.139  0.00  0.00    +0.022 A 
ATOM     27  C   UNL     1       8.105  -1.704   5.041  0.00  0.00    +0.060 A 
ATOM     28 BR   UNL     1       8.984  -0.960   3.541  0.00  0.00    -0.047 Br
BRANCH  25  29
ATOM     29  C   UNL     1       8.998  -3.115   8.427  0.00  0.00    +0.013 C 
ATOM     30  C   UNL     1       9.989  -4.199   7.996  0.00  0.00    +0.012 C 
ATOM     31  C   UNL     1       9.765  -1.925   9.006  0.00  0.00    +0.012 C 
ENDBRANCH  25  29
ENDBRANCH  21  22
ENDBRANCH  20  21
ENDBRANCH   2  20
TORSDOF 8
