REMARK  Name = ZINC40284742
REMARK  2 active torsions:
REMARK  status: ('A' for Active; 'I' for Inactive)
REMARK    1  A    between atoms: C_3  and  N_8
REMARK    2  A    between atoms: C_17  and  C_19
REMARK                            x       y       z     vdW  Elec       q    Type
REMARK                         _______ _______ _______ _____ _____    ______ ____
ROOT
ATOM      1  N   UNL     1       3.586   2.129  -0.021  0.00  0.00    -0.287 N 
ATOM      2  C   UNL     1       3.914   3.160  -0.856  0.00  0.00    +0.205 A 
ATOM      3  N   UNL     1       5.120   3.573  -0.560  0.00  0.00    -0.238 NA
ATOM      4  C   UNL     1       5.601   2.845   0.446  0.00  0.00    +0.090 A 
ATOM      5  C   UNL     1       4.649   1.937   0.804  0.00  0.00    +0.133 A 
ATOM      6  N   UNL     1       4.847   1.028   1.844  0.00  0.00    -0.270 N 
ATOM      7  C   UNL     1       6.103   0.874   2.320  0.00  0.00    +0.219 C 
ATOM      8  O   UNL     1       6.278   0.178   3.298  0.00  0.00    -0.275 OA
ATOM      9  C   UNL     1       7.287   1.536   1.676  0.00  0.00    +0.111 C 
ATOM     10  C   UNL     1       6.935   2.923   1.143  0.00  0.00    +0.086 C 
ATOM     11  H   UNL     1       4.107   0.523   2.214  0.00  0.00    +0.156 HD
ENDROOT
BRANCH   1  14
ATOM     12  C   UNL     1      -0.017   1.378   0.010  0.00  0.00    +0.005 A 
ATOM     13  C   UNL     1       1.169   2.087   0.002  0.00  0.00    +0.026 A 
ATOM     14  C   UNL     1       2.381   1.411  -0.013  0.00  0.00    +0.052 A 
ATOM     15  C   UNL     1       2.400   0.023  -0.021  0.00  0.00    +0.064 A 
ATOM     16  C   UNL     1       1.210  -0.682  -0.013  0.00  0.00    +0.125 A 
ATOM     17  C   UNL     1       0.002  -0.004   0.002  0.00  0.00    +0.038 A 
ATOM     18  F   UNL     1       1.226  -2.033  -0.021  0.00  0.00    -0.205 F 
ENDBRANCH   1  14
BRANCH  10  19
ATOM     19  C   UNL     1       6.848   3.888   2.298  0.00  0.00    -0.001 A 
ATOM     20  C   UNL     1       7.550   5.028   2.511  0.00  0.00    +0.012 A 
ATOM     21  C   UNL     1       7.300   5.765   3.654  0.00  0.00    +0.008 A 
ATOM     22  C   UNL     1       6.360   5.325   4.527  0.00  0.00    +0.045 A 
ATOM     23  S   UNL     1       5.790   3.831   3.734  0.00  0.00    -0.101 S 
ENDBRANCH  10  19
TORSDOF 2
