REMARK  Name = ZINC36207583
REMARK  13 active torsions:
REMARK  status: ('A' for Active; 'I' for Inactive)
REMARK    1  A    between atoms: C_1  and  C_2
REMARK    2  A    between atoms: C_7  and  O_8
REMARK    3  A    between atoms: O_8  and  C_9
REMARK    4  A    between atoms: C_9  and  C_10
REMARK    5  A    between atoms: C_10  and  C_12
REMARK    6  A    between atoms: C_10  and  O_37
REMARK    7  A    between atoms: C_12  and  N_13
REMARK    8  A    between atoms: N_13  and  C_14
REMARK    9  A    between atoms: N_13  and  C_34
REMARK   10  A    between atoms: C_14  and  C_15
REMARK   11  A    between atoms: C_21  and  C_26
REMARK   12  A    between atoms: C_29  and  C_33
REMARK   13  A    between atoms: C_30  and  C_32
REMARK                            x       y       z     vdW  Elec       q    Type
REMARK                         _______ _______ _______ _____ _____    ______ ____
ROOT
ATOM      1  C   UNL     1      -0.233  -0.651   8.322  0.00  0.00    -0.003 C 
ENDROOT
BRANCH   1   2
ATOM      2  C   UNL     1      -0.396   0.168   9.577  0.00  0.00    +0.094 A 
ATOM      3  N   UNL     1      -0.436  -0.458  10.781  0.00  0.00    -0.312 N 
ATOM      4  H   UNL     1      -0.360  -1.424  10.818  0.00  0.00    +0.170 HD
ATOM      5  C   UNL     1      -0.580   0.236  11.925  0.00  0.00    +0.260 A 
ATOM      6  O   UNL     1      -0.614  -0.341  12.999  0.00  0.00    -0.267 OA
ATOM      7  C   UNL     1      -0.692   1.662  11.862  0.00  0.00    +0.080 A 
ATOM      8  C   UNL     1      -0.852   2.623  12.947  0.00  0.00    +0.004 A 
ATOM      9  C   UNL     1      -0.937   3.941  12.642  0.00  0.00    +0.056 A 
ATOM     10  S   UNL     1      -0.804   3.963  10.864  0.00  0.00    -0.076 S 
ATOM     11  C   UNL     1      -0.640   2.220  10.575  0.00  0.00    +0.116 A 
ATOM     12  N   UNL     1      -0.490   1.467   9.488  0.00  0.00    -0.229 NA
BRANCH   8  13
ATOM     13  C   UNL     1      -0.922   2.168  14.355  0.00  0.00    -0.016 A 
ATOM     14  C   UNL     1      -1.792   1.140  14.716  0.00  0.00    +0.009 A 
ATOM     15  C   UNL     1      -1.853   0.720  16.029  0.00  0.00    +0.004 A 
ATOM     16  C   UNL     1      -1.053   1.317  16.987  0.00  0.00    -0.048 A 
ATOM     17  C   UNL     1      -0.188   2.338  16.635  0.00  0.00    -0.047 A 
ATOM     18  C   UNL     1      -0.115   2.763  15.324  0.00  0.00    +0.012 A 
ATOM     19  C   UNL     1       0.680   2.984  17.684  0.00  0.00    +0.044 C 
ATOM     20  C   UNL     1      -1.124   0.855  18.419  0.00  0.00    +0.044 C 
ENDBRANCH   8  13
ENDBRANCH   1   2
BRANCH   1  21
ATOM     21  N   UNL     1      -0.210   0.241   7.155  0.00  0.00    +0.388 N 
ATOM     22  H   UNL     1      -1.039   0.817   7.155  0.00  0.00    -0.081 HD
BRANCH  21  23
ATOM     23  C   UNL     1       0.981   1.098   7.217  0.00  0.00    -0.068 C 
ATOM     24  C   UNL     1       0.760   2.607   7.342  0.00  0.00    -0.017 C 
ATOM     25  C   UNL     1       1.256   2.013   6.022  0.00  0.00    -0.017 C 
ENDBRANCH  21  23
BRANCH  21  26
ATOM     26  C   UNL     1      -0.172  -0.562   5.926  0.00  0.00    -0.043 C 
BRANCH  26  27
ATOM     27  C   UNL     1      -1.481  -1.343   5.786  0.00  0.00    +0.135 C 
BRANCH  27  28
ATOM     28  O   UNL     1      -2.576  -0.428   5.712  0.00  0.00    -0.390 OA
ATOM     29  H   UNL     1      -2.528   0.183   4.965  0.00  0.00    +0.210 HD
ENDBRANCH  27  28
BRANCH  27  30
ATOM     30  C   UNL     1      -1.436  -2.189   4.512  0.00  0.00    +0.258 C 
BRANCH  30  31
ATOM     31  O   UNL     1      -2.606  -3.006   4.441  0.00  0.00    -0.489 OA
BRANCH  31  38
ATOM     32  C   UNL     1      -4.913  -4.629   4.283  0.00  0.00    +0.047 C 
ATOM     33  C   UNL     1      -3.834  -4.644   3.230  0.00  0.00    -0.009 A 
ATOM     34  C   UNL     1      -3.954  -5.471   2.129  0.00  0.00    +0.007 A 
ATOM     35  C   UNL     1      -2.965  -5.485   1.163  0.00  0.00    +0.000 A 
ATOM     36  C   UNL     1      -1.854  -4.672   1.296  0.00  0.00    +0.004 A 
ATOM     37  C   UNL     1      -1.730  -3.844   2.394  0.00  0.00    +0.046 A 
ATOM     38  C   UNL     1      -2.724  -3.824   3.363  0.00  0.00    +0.124 A 
ENDBRANCH  31  38
ENDBRANCH  30  31
ENDBRANCH  27  30
ENDBRANCH  26  27
ENDBRANCH  21  26
ENDBRANCH   1  21
TORSDOF 10
