REMARK  Name = ZINC01831297
REMARK  9 active torsions:
REMARK  status: ('A' for Active; 'I' for Inactive)
REMARK    1  A    between atoms: C_1  and  C_2
REMARK    2  A    between atoms: C_2  and  O_3
REMARK    3  A    between atoms: O_3  and  C_4
REMARK    4  A    between atoms: C_7  and  C_10
REMARK    5  A    between atoms: C_11  and  C_28
REMARK    6  A    between atoms: C_12  and  C_21
REMARK    7  A    between atoms: N_29  and  N_30
REMARK    8  A    between atoms: C_31  and  C_33
REMARK    9  A    between atoms: C_36  and  N_38
REMARK                            x       y       z     vdW  Elec       q    Type
REMARK                         _______ _______ _______ _____ _____    ______ ____
ROOT
ATOM      1  C   UNL     1      -2.016  -6.013  -0.195  0.00  0.00    +0.141 C 
ATOM      2  C   UNL     1      -3.331  -6.571   0.147  0.00  0.00    +0.027 C 
ATOM      3  C   UNL     1      -3.474  -8.045   0.408  0.00  0.00    +0.088 C 
ATOM      4  C   UNL     1      -2.285  -8.792  -0.137  0.00  0.00    +0.007 A 
ATOM      5  C   UNL     1      -2.391 -10.159  -0.329  0.00  0.00    +0.008 A 
ATOM      6  C   UNL     1      -1.323 -10.880  -0.827  0.00  0.00    +0.001 A 
ATOM      7  C   UNL     1      -0.139 -10.235  -1.137  0.00  0.00    +0.004 A 
ATOM      8  C   UNL     1      -0.026  -8.874  -0.948  0.00  0.00    +0.046 A 
ATOM      9  C   UNL     1      -1.101  -8.143  -0.445  0.00  0.00    +0.133 A 
ATOM     10  O   UNL     1      -0.948  -6.809  -0.280  0.00  0.00    -0.455 OA
ENDROOT
BRANCH   3  11
ATOM     11  C   UNL     1      -3.570  -8.282   1.893  0.00  0.00    -0.035 A 
ATOM     12  C   UNL     1      -2.537  -7.887   2.723  0.00  0.00    +0.007 A 
ATOM     13  C   UNL     1      -2.623  -8.104   4.085  0.00  0.00    +0.038 A 
ATOM     14  C   UNL     1      -3.744  -8.716   4.619  0.00  0.00    +0.123 A 
ATOM     15  C   UNL     1      -4.778  -9.110   3.787  0.00  0.00    +0.038 A 
ATOM     16  C   UNL     1      -4.692  -8.889   2.425  0.00  0.00    +0.007 A 
ATOM     17  F   UNL     1      -3.830  -8.928   5.950  0.00  0.00    -0.205 F 
ENDBRANCH   3  11
BRANCH   1  21
ATOM     18  C   UNL     1      -1.621  -1.918  -0.923  0.00  0.00    +0.121 A 
ATOM     19  C   UNL     1      -2.619  -2.646  -1.575  0.00  0.00    +0.046 A 
ATOM     20  C   UNL     1      -2.754  -3.981  -1.343  0.00  0.00    +0.015 A 
ATOM     21  C   UNL     1      -1.883  -4.628  -0.442  0.00  0.00    +0.018 A 
ATOM     22  C   UNL     1      -0.877  -3.886   0.213  0.00  0.00    +0.015 A 
ATOM     23  C   UNL     1      -0.751  -2.553  -0.034  0.00  0.00    +0.046 A 
BRANCH  18  24
ATOM     24  O   UNL     1      -1.493  -0.591  -1.159  0.00  0.00    -0.492 OA
BRANCH  24  26
ATOM     25  C   UNL     1      -2.116   1.491  -2.217  0.00  0.00    +0.048 C 
ATOM     26  C   UNL     1      -2.415  -0.004  -2.079  0.00  0.00    +0.225 C 
ENDBRANCH  24  26
ENDBRANCH  18  24
ENDBRANCH   1  21
BRANCH   2  27
ATOM     27  C   UNL     1      -4.420  -5.755   0.228  0.00  0.00    +0.138 C 
ATOM     28  N   UNL     1      -5.634  -6.277   0.432  0.00  0.00    -0.188 NA
BRANCH  28  29
ATOM     29  N   UNL     1      -6.675  -5.516   0.412  0.00  0.00    -0.200 N 
ATOM     30  C   UNL     1      -7.906  -6.056   0.512  0.00  0.00    +0.299 C 
ATOM     31  O   UNL     1      -8.033  -7.253   0.688  0.00  0.00    -0.265 OA
ATOM     32  H   UNL     1      -6.572  -4.556   0.324  0.00  0.00    +0.178 HD
BRANCH  30  33
ATOM     33  C   UNL     1      -9.090  -5.202   0.408  0.00  0.00    +0.194 A 
ATOM     34  C   UNL     1     -10.402  -5.618   0.497  0.00  0.00    +0.057 A 
ATOM     35  C   UNL     1     -11.195  -4.473   0.342  0.00  0.00    +0.076 A 
ATOM     36  C   UNL     1     -10.355  -3.425   0.168  0.00  0.00    +0.280 A 
ATOM     37  O   UNL     1      -9.092  -3.866   0.214  0.00  0.00    -0.429 OA
BRANCH  36  38
ATOM     38  N   UNL     1     -10.767  -2.018  -0.034  0.00  0.00    +0.093 N 
ATOM     39  O   UNL     1     -12.046  -1.703  -0.055  0.00  0.00    -0.123 OA
ATOM     40  O   UNL     1      -9.855  -1.081  -0.193  0.00  0.00    -0.123 OA
ENDBRANCH  36  38
ENDBRANCH  30  33
ENDBRANCH  28  29
ENDBRANCH   2  27
TORSDOF 8
