REMARK  Name = ZINC34699107
REMARK  13 active torsions:
REMARK  status: ('A' for Active; 'I' for Inactive)
REMARK    1  A    between atoms: C_1  and  C_2
REMARK    2  A    between atoms: C_2  and  C_3
REMARK    3  A    between atoms: C_2  and  C_4
REMARK    4  A    between atoms: C_4  and  N_5
REMARK    5  A    between atoms: N_5  and  C_6
REMARK    6  A    between atoms: C_6  and  C_7
REMARK    7  A    between atoms: N_10  and  C_22
REMARK    8  A    between atoms: C_12  and  C_14
REMARK    9  A    between atoms: C_17  and  O_20
REMARK   10  A    between atoms: O_20  and  C_21
REMARK   11  A    between atoms: C_22  and  C_23
REMARK   12  A    between atoms: N_27  and  C_28
REMARK   13  A    between atoms: C_29  and  C_31
REMARK                            x       y       z     vdW  Elec       q    Type
REMARK                         _______ _______ _______ _____ _____    ______ ____
ROOT
ATOM      1  C   UNL     1      -3.184  -3.233   1.079  0.00  0.00    -0.005 C 
ATOM      2  C   UNL     1      -3.721  -4.054  -0.112  0.00  0.00    -0.073 C 
ATOM      3  N   UNL     1      -3.604  -5.469   0.325  0.00  0.00    +0.384 N 
ATOM      4  C   UNL     1      -3.997  -5.442   1.758  0.00  0.00    -0.070 C 
ATOM      5  C   UNL     1      -3.365  -4.144   2.311  0.00  0.00    +0.005 C 
ATOM      6  H   UNL     1      -2.654  -5.792   0.226  0.00  0.00    -0.081 HD
ENDROOT
BRANCH   5   7
ATOM      7  C   UNL     1      -4.288  -3.495   3.310  0.00  0.00    -0.046 A 
ATOM      8  C   UNL     1      -5.587  -3.185   2.950  0.00  0.00    +0.007 A 
ATOM      9  C   UNL     1      -6.434  -2.590   3.864  0.00  0.00    +0.046 A 
ATOM     10  C   UNL     1      -5.982  -2.304   5.144  0.00  0.00    +0.120 A 
ATOM     11  C   UNL     1      -4.679  -2.616   5.503  0.00  0.00    +0.046 A 
ATOM     12  C   UNL     1      -3.837  -3.216   4.587  0.00  0.00    +0.007 A 
BRANCH  10  13
ATOM     13  O   UNL     1      -6.814  -1.718   6.045  0.00  0.00    -0.495 OA
ATOM     14  C   UNL     1      -6.281  -1.452   7.344  0.00  0.00    +0.277 C 
ENDBRANCH  10  13
ENDBRANCH   5   7
BRANCH   1  15
ATOM     15  C   UNL     1      -1.703  -2.906   0.874  0.00  0.00    +0.110 C 
BRANCH  15  16
ATOM     16  N   UNL     1      -1.560  -1.973  -0.247  0.00  0.00    -0.297 N 
ATOM     17  C   UNL     1      -1.398  -2.444  -1.499  0.00  0.00    +0.247 C 
ATOM     18  O   UNL     1      -1.357  -3.643  -1.697  0.00  0.00    -0.270 OA
BRANCH  17  19
ATOM     19  C   UNL     1      -1.269  -1.504  -2.631  0.00  0.00    +0.037 A 
ATOM     20  C   UNL     1      -0.663  -0.260  -2.443  0.00  0.00    +0.016 A 
ATOM     21  C   UNL     1      -0.545   0.614  -3.503  0.00  0.00    +0.039 A 
ATOM     22  C   UNL     1      -1.027   0.259  -4.753  0.00  0.00    +0.123 A 
ATOM     23  C   UNL     1      -1.630  -0.975  -4.946  0.00  0.00    +0.039 A 
ATOM     24  C   UNL     1      -1.747  -1.858  -3.894  0.00  0.00    +0.016 A 
ATOM     25  F   UNL     1      -0.910   1.120  -5.788  0.00  0.00    -0.205 F 
ENDBRANCH  17  19
BRANCH  16  26
ATOM     26  C   UNL     1      -1.594  -0.528  -0.006  0.00  0.00    +0.111 C 
BRANCH  26  28
ATOM     27  C   UNL     1      -0.194   1.471   0.526  0.00  0.00    +0.009 C 
ATOM     28  C   UNL     1      -0.218  -0.058   0.467  0.00  0.00    +0.000 C 
ATOM     29  C   UNL     1       0.064  -0.626   1.859  0.00  0.00    +0.009 C 
ENDBRANCH  26  28
ENDBRANCH  16  26
ENDBRANCH  15  16
ENDBRANCH   1  15
BRANCH   3  30
ATOM     30  C   UNL     1      -4.522  -6.322  -0.443  0.00  0.00    -0.024 C 
BRANCH  30  31
ATOM     31  C   UNL     1      -4.298  -7.765  -0.069  0.00  0.00    +0.002 A 
ATOM     32  C   UNL     1      -4.997  -8.460   0.851  0.00  0.00    +0.021 A 
ATOM     33  C   UNL     1      -4.465  -9.764   0.887  0.00  0.00    +0.019 A 
ATOM     34  C   UNL     1      -3.462  -9.816  -0.013  0.00  0.00    +0.085 A 
ATOM     35  N   UNL     1      -3.359  -8.593  -0.607  0.00  0.00    -0.355 N 
ATOM     36  C   UNL     1      -2.395  -8.229  -1.649  0.00  0.00    +0.148 C 
ENDBRANCH  30  31
ENDBRANCH   3  30
TORSDOF 9
