REMARK  Name = ZINC04601360
REMARK  8 active torsions:
REMARK  status: ('A' for Active; 'I' for Inactive)
REMARK    1  A    between atoms: C_1  and  C_2
REMARK    2  A    between atoms: C_2  and  C_3
REMARK    3  A    between atoms: C_2  and  N_10
REMARK    4  A    between atoms: C_11  and  C_13
REMARK    5  A    between atoms: C_13  and  S_14
REMARK    6  A    between atoms: S_14  and  C_15
REMARK    7  A    between atoms: C_18  and  C_21
REMARK    8  A    between atoms: N_19  and  N_20
REMARK                            x       y       z     vdW  Elec       q    Type
REMARK                         _______ _______ _______ _____ _____    ______ ____
ROOT
ATOM      1  C   UNL     1       0.712  -1.094  -3.598  0.00  0.00    +0.173 C 
ENDROOT
BRANCH   1   3
ATOM      2  N   UNL     1       0.688  -0.476  -1.203  0.00  0.00    -0.308 N 
ATOM      3  C   UNL     1       0.006  -0.608  -2.358  0.00  0.00    +0.224 C 
ATOM      4  O   UNL     1      -1.175  -0.336  -2.400  0.00  0.00    -0.275 OA
ATOM      5  H   UNL     1       1.632  -0.695  -1.170  0.00  0.00    +0.149 HD
BRANCH   2   7
ATOM      6  C   UNL     1      -0.019   1.526   0.010  0.00  0.00    +0.033 C 
ATOM      7  C   UNL     1       0.002  -0.004   0.002  0.00  0.00    +0.100 C 
BRANCH   7   8
ATOM      8  C   UNL     1       0.731  -0.503   1.223  0.00  0.00    -0.027 A 
ATOM      9  C   UNL     1       2.113  -0.514   1.246  0.00  0.00    +0.007 A 
ATOM     10  C   UNL     1       2.782  -0.971   2.366  0.00  0.00    +0.020 A 
ATOM     11  C   UNL     1       2.068  -1.419   3.463  0.00  0.00    +0.041 A 
ATOM     12  C   UNL     1       0.685  -1.409   3.439  0.00  0.00    +0.020 A 
ATOM     13  C   UNL     1       0.017  -0.945   2.321  0.00  0.00    +0.007 A 
ATOM     14 CL   UNL     1       2.908  -1.995   4.869  0.00  0.00    -0.084 Cl
ENDBRANCH   7   8
ENDBRANCH   2   7
ENDBRANCH   1   3
BRANCH   1  15
ATOM     15  S   UNL     1      -0.466  -1.164  -4.976  0.00  0.00    -0.075 S 
BRANCH  15  16
ATOM     16  C   UNL     1       0.498  -1.742  -6.333  0.00  0.00    +0.209 A 
ATOM     17  N   UNL     1       1.775  -2.047  -6.306  0.00  0.00    -0.121 NA
ATOM     18  N   UNL     1       2.162  -2.435  -7.469  0.00  0.00    -0.126 NA
ATOM     19  C   UNL     1       1.154  -2.401  -8.312  0.00  0.00    +0.188 A 
ATOM     20  N   UNL     1       0.055  -1.961  -7.608  0.00  0.00    -0.223 N 
BRANCH  19  21
ATOM     21  C   UNL     1       1.191  -2.769  -9.736  0.00  0.00    +0.058 A 
ATOM     22  C   UNL     1       2.147  -3.474 -10.422  0.00  0.00    +0.019 A 
ATOM     23  C   UNL     1       1.963  -3.700 -11.768  0.00  0.00    +0.008 A 
ATOM     24  C   UNL     1       0.846  -3.220 -12.373  0.00  0.00    +0.046 A 
ATOM     25  S   UNL     1      -0.001  -2.421 -11.020  0.00  0.00    -0.093 S 
ENDBRANCH  19  21
BRANCH  20  26
ATOM     26  N   UNL     1      -1.212  -1.779  -8.084  0.00  0.00    -0.295 N 
ATOM     27  H   UNL     1      -1.335  -0.842  -8.437  0.00  0.00    +0.163 HD
ATOM     28  H   UNL     1      -1.435  -2.464  -8.791  0.00  0.00    +0.163 HD
ENDBRANCH  20  26
ENDBRANCH  15  16
ENDBRANCH   1  15
TORSDOF 7
