REMARK  Name = ZINC23817346
REMARK  7 active torsions:
REMARK  status: ('A' for Active; 'I' for Inactive)
REMARK    1  A    between atoms: C_1  and  C_2
REMARK    2  A    between atoms: C_2  and  C_4
REMARK    3  A    between atoms: C_2  and  N_12
REMARK    4  A    between atoms: C_13  and  C_15
REMARK    5  A    between atoms: C_15  and  N_16
REMARK    6  A    between atoms: N_19  and  S_22
REMARK    7  A    between atoms: S_22  and  C_25
REMARK                            x       y       z     vdW  Elec       q    Type
REMARK                         _______ _______ _______ _____ _____    ______ ____
ROOT
ATOM      1  N   UNL     1       0.659  -2.295  -0.900  0.00  0.00    +0.387 N 
ATOM      2  C   UNL     1       0.154  -2.852   0.361  0.00  0.00    -0.061 C 
ATOM      3  C   UNL     1      -0.392  -4.262   0.111  0.00  0.00    +0.091 C 
ATOM      4  N   UNL     1       0.655  -5.059  -0.546  0.00  0.00    -0.180 NA
ATOM      5  C   UNL     1       1.306  -4.502  -1.742  0.00  0.00    +0.091 C 
ATOM      6  C   UNL     1       1.786  -3.083  -1.418  0.00  0.00    -0.061 C 
ATOM      7  H   UNL     1      -0.154  -2.348  -1.639  0.00  0.00    -0.081 HD
ENDROOT
BRANCH   4   8
ATOM      8  S   UNL     1       1.089  -6.543   0.044  0.00  0.00    +0.061 S 
ATOM      9  O   UNL     1      -0.023  -7.028   0.784  0.00  0.00    -0.153 OA
ATOM     10  O   UNL     1       1.653  -7.264  -1.043  0.00  0.00    -0.153 OA
BRANCH   8  11
ATOM     11  C   UNL     1       2.390  -6.283   1.204  0.00  0.00    +0.108 A 
ATOM     12  C   UNL     1       3.707  -6.300   0.781  0.00  0.00    +0.029 A 
ATOM     13  C   UNL     1       4.728  -6.091   1.688  0.00  0.00    +0.005 A 
ATOM     14  C   UNL     1       4.435  -5.875   3.022  0.00  0.00    +0.038 A 
ATOM     15  C   UNL     1       3.118  -5.862   3.447  0.00  0.00    +0.125 A 
ATOM     16  C   UNL     1       2.095  -6.067   2.536  0.00  0.00    +0.066 A 
ATOM     17  F   UNL     1       2.830  -5.652   4.750  0.00  0.00    -0.205 F 
ENDBRANCH   8  11
ENDBRANCH   4   8
BRANCH   1  18
ATOM     18  C   UNL     1       1.034  -0.883  -0.740  0.00  0.00    +0.019 C 
BRANCH  18  20
ATOM     19  N   UNL     1      -0.096   1.264  -0.260  0.00  0.00    -0.310 N 
ATOM     20  C   UNL     1      -0.198  -0.067  -0.446  0.00  0.00    +0.197 C 
ATOM     21  O   UNL     1      -1.282  -0.607  -0.378  0.00  0.00    -0.278 OA
ATOM     22  H   UNL     1       0.887   1.754  -0.318  0.00  0.00    +0.149 HD
BRANCH  19  24
ATOM     23  C   UNL     1      -1.562   2.066   1.526  0.00  0.00    +0.033 C 
ATOM     24  C   UNL     1      -1.295   2.059   0.019  0.00  0.00    +0.101 C 
BRANCH  24  25
ATOM     25  C   UNL     1      -1.084   3.472  -0.460  0.00  0.00    -0.009 A 
ATOM     26  C   UNL     1       0.194   3.995  -0.527  0.00  0.00    +0.008 A 
ATOM     27  C   UNL     1       0.389   5.291  -0.966  0.00  0.00    +0.020 A 
ATOM     28  C   UNL     1      -0.696   6.066  -1.339  0.00  0.00    +0.042 A 
ATOM     29  C   UNL     1      -1.975   5.542  -1.273  0.00  0.00    +0.040 A 
ATOM     30  C   UNL     1      -2.168   4.243  -0.838  0.00  0.00    +0.047 A 
ATOM     31 CL   UNL     1      -3.772   3.583  -0.762  0.00  0.00    -0.083 Cl
ATOM     32 CL   UNL     1      -0.452   7.693  -1.891  0.00  0.00    -0.083 Cl
ENDBRANCH  24  25
ENDBRANCH  19  24
ENDBRANCH  18  20
ENDBRANCH   1  18
TORSDOF 6
