REMARK  Name = ZINC04624831
REMARK  4 active torsions:
REMARK  status: ('A' for Active; 'I' for Inactive)
REMARK    1  A    between atoms: C_1  and  C_2
REMARK    2  A    between atoms: C_6  and  C_13
REMARK    3  A    between atoms: C_9  and  O_11
REMARK    4  A    between atoms: O_11  and  C_12
REMARK                            x       y       z     vdW  Elec       q    Type
REMARK                         _______ _______ _______ _____ _____    ______ ____
ROOT
ATOM      1  C   UNL     1       0.030   1.503   0.006  0.00  0.00    +0.066 C 
ATOM      2  C   UNL     1       0.025  -0.004  -0.000  0.00  0.00    +0.049 C 
ATOM      3  N   UNL     1      -0.072  -0.634  -1.147  0.00  0.00    -0.256 NA
ATOM      4  C   UNL     1      -0.090  -1.952  -1.310  0.00  0.00    +0.049 C 
ATOM      5  C   UNL     1      -0.006  -2.807  -0.232  0.00  0.00    +0.029 C 
ATOM      6  C   UNL     1       0.113  -2.201   1.153  0.00  0.00    +0.099 C 
ATOM      7  C   UNL     1       0.129  -0.684   1.212  0.00  0.00    +0.070 C 
ATOM      8  C   UNL     1       0.237  -0.009   2.411  0.00  0.00    +0.338 C 
ATOM      9  O   UNL     1       0.459  -0.693   3.550  0.00  0.00    -0.245 OA
ATOM     10  C   UNL     1      -0.030  -4.188  -0.382  0.00  0.00    +0.162 C 
ATOM     11  O   UNL     1       0.051  -4.901   0.600  0.00  0.00    -0.292 OA
ATOM     12  C   UNL     1      -0.156  -4.812  -1.748  0.00  0.00    +0.080 C 
ATOM     13  C   UNL     1      -0.932  -3.858  -2.662  0.00  0.00    +0.014 C 
ATOM     14  C   UNL     1      -0.203  -2.514  -2.708  0.00  0.00    +0.056 C 
ENDROOT
BRANCH   6  15
ATOM     15  C   UNL     1      -1.044  -2.694   1.984  0.00  0.00    +0.002 A 
ATOM     16  C   UNL     1      -1.025  -3.405   3.138  0.00  0.00    +0.012 A 
ATOM     17  C   UNL     1      -2.224  -3.750   3.732  0.00  0.00    +0.008 A 
ATOM     18  C   UNL     1      -3.384  -3.367   3.144  0.00  0.00    +0.045 A 
ATOM     19  S   UNL     1      -2.795  -2.485   1.708  0.00  0.00    -0.101 S 
ENDBRANCH   6  15
BRANCH   8  20
ATOM     20  O   UNL     1       0.120   1.332   2.441  0.00  0.00    -0.465 OA
ATOM     21  C   UNL     1       0.242   1.965   3.717  0.00  0.00    +0.280 C 
ENDBRANCH   8  20
TORSDOF 2
