REMARK  Name = ZINC02488261
REMARK  5 active torsions:
REMARK  status: ('A' for Active; 'I' for Inactive)
REMARK    1  A    between atoms: C_1  and  O_2
REMARK    2  A    between atoms: O_2  and  C_3
REMARK    3  A    between atoms: C_6  and  O_21
REMARK    4  A    between atoms: C_7  and  N_9
REMARK    5  A    between atoms: O_21  and  C_22
REMARK                            x       y       z     vdW  Elec       q    Type
REMARK                         _______ _______ _______ _____ _____    ______ ____
ROOT
ATOM      1  N   UNL     1      -2.538  -4.068   0.016  0.00  0.00    -0.284 N 
ATOM      2  C   UNL     1      -1.388  -4.800  -0.097  0.00  0.00    +0.189 C 
ATOM      3  N   UNL     1      -0.209  -4.205  -0.101  0.00  0.00    -0.187 NA
ATOM      4  C   UNL     1       0.927  -4.909  -0.237  0.00  0.00    +0.191 C 
ATOM      5  N   UNL     1       0.922  -6.164  -0.608  0.00  0.00    -0.337 N 
ATOM      6  C   UNL     1      -0.341  -6.828  -0.930  0.00  0.00    +0.107 C 
ATOM      7  N   UNL     1      -1.434  -6.171  -0.202  0.00  0.00    -0.294 N 
ATOM      8  C   UNL     1      -0.273  -8.314  -0.539  0.00  0.00    +0.048 C 
ATOM      9  C   UNL     1      -1.068  -9.035  -1.656  0.00  0.00    +0.004 C 
ATOM     10  C   UNL     1      -0.679  -8.236  -2.925  0.00  0.00    +0.004 C 
ATOM     11  C   UNL     1      -0.600  -6.772  -2.442  0.00  0.00    +0.048 C 
ATOM     12  N   UNL     1       2.134  -4.291   0.021  0.00  0.00    -0.329 N 
ATOM     13  H   UNL     1      -3.393  -4.519   0.106  0.00  0.00    +0.155 HD
ATOM     14  H   UNL     1      -2.161  -6.681   0.187  0.00  0.00    +0.151 HD
ATOM     15  H   UNL     1       2.154  -3.361   0.296  0.00  0.00    +0.145 HD
ATOM     16  H   UNL     1       2.963  -4.787  -0.073  0.00  0.00    +0.145 HD
ATOM     17  H   UNL     1       1.756  -6.655  -0.668  0.00  0.00    +0.164 HD
ENDROOT
BRANCH   1  22
ATOM     18  C   UNL     1      -1.368  -0.637  -0.625  0.00  0.00    +0.122 A 
ATOM     19  C   UNL     1      -2.378   0.102  -0.027  0.00  0.00    +0.049 A 
ATOM     20  C   UNL     1      -3.439  -0.540   0.584  0.00  0.00    +0.051 A 
ATOM     21  C   UNL     1      -3.496  -1.924   0.601  0.00  0.00    +0.141 A 
ATOM     22  C   UNL     1      -2.483  -2.669   0.001  0.00  0.00    +0.079 A 
ATOM     23  C   UNL     1      -1.423  -2.022  -0.616  0.00  0.00    +0.072 A 
BRANCH  18  25
ATOM     24  C   UNL     1      -0.333   1.427  -1.196  0.00  0.00    +0.277 C 
ATOM     25  O   UNL     1      -0.326  -0.002  -1.225  0.00  0.00    -0.495 OA
ENDBRANCH  18  25
BRANCH  21  26
ATOM     26  O   UNL     1      -4.540  -2.555   1.202  0.00  0.00    -0.493 OA
ATOM     27  C   UNL     1      -5.543  -1.728   1.797  0.00  0.00    +0.277 C 
ENDBRANCH  21  26
ENDBRANCH   1  22
TORSDOF 3
