REMARK  Name = ZINC39953342
REMARK  7 active torsions:
REMARK  status: ('A' for Active; 'I' for Inactive)
REMARK    1  A    between atoms: C_1  and  O_2
REMARK    2  A    between atoms: O_2  and  C_3
REMARK    3  A    between atoms: C_6  and  S_9
REMARK    4  A    between atoms: S_9  and  N_12
REMARK    5  A    between atoms: N_12  and  C_13
REMARK    6  A    between atoms: C_19  and  C_23
REMARK    7  A    between atoms: N_25  and  C_26
REMARK                            x       y       z     vdW  Elec       q    Type
REMARK                         _______ _______ _______ _____ _____    ______ ____
ROOT
ATOM      1  C   UNL     1       4.485  -3.939  -2.887  0.00  0.00    +0.224 C 
ATOM      2  N   UNL     1       5.868  -4.351  -3.162  0.00  0.00    -0.318 N 
ATOM      3  C   UNL     1       6.834  -4.039  -2.216  0.00  0.00    +0.043 A 
ATOM      4  C   UNL     1       8.205  -4.355  -2.313  0.00  0.00    +0.025 A 
ATOM      5  C   UNL     1       9.089  -4.008  -1.326  0.00  0.00    +0.015 A 
ATOM      6  C   UNL     1       8.661  -3.324  -0.184  0.00  0.00    +0.038 A 
ATOM      7  C   UNL     1       7.304  -2.999  -0.066  0.00  0.00    +0.029 A 
ATOM      8  C   UNL     1       6.429  -3.354  -1.062  0.00  0.00    +0.033 A 
ATOM      9  S   UNL     1       4.676  -3.118  -1.255  0.00  0.00    -0.084 S 
ATOM     10  H   UNL     1       6.099  -4.824  -3.977  0.00  0.00    +0.148 HD
ENDROOT
BRANCH   6  11
ATOM     11  C   UNL     1       9.618  -2.954   0.874  0.00  0.00    +0.248 C 
ATOM     12  O   UNL     1       9.232  -2.359   1.862  0.00  0.00    -0.270 OA
ATOM     13  N   UNL     1      10.921  -3.273   0.746  0.00  0.00    -0.282 N 
ATOM     14  H   UNL     1      11.217  -3.810  -0.005  0.00  0.00    +0.155 HD
BRANCH  13  15
ATOM     15  C   UNL     1      11.838  -2.835   1.689  0.00  0.00    +0.034 C 
ATOM     16  C   UNL     1      12.631  -3.749   2.368  0.00  0.00    +0.029 C 
ATOM     17  C   UNL     1      13.478  -3.196   3.335  0.00  0.00    -0.016 C 
ATOM     18  C   UNL     1      14.688  -3.558   3.808  0.00  0.00    +0.025 C 
ATOM     19  C   UNL     1      15.226  -2.502   4.569  0.00  0.00    +0.106 C 
ATOM     20  N   UNL     1      14.389  -1.509   4.696  0.00  0.00    -0.279 NA
ATOM     21  C   UNL     1      13.139  -1.906   4.064  0.00  0.00    +0.158 C 
ATOM     22  C   UNL     1      12.599  -0.937   3.057  0.00  0.00    +0.006 C 
ATOM     23  C   UNL     1      11.979  -1.402   1.968  0.00  0.00    +0.021 C 
ENDBRANCH  13  15
ENDBRANCH   6  11
BRANCH   1  24
ATOM     24  N   UNL     1       4.005  -2.995  -3.900  0.00  0.00    -0.160 NA
ATOM     25  H   UNL     1       4.636  -2.434  -4.378  0.00  0.00    +0.151 HD
BRANCH  24  26
ATOM     26  S   UNL     1       2.386  -2.885  -4.228  0.00  0.00    +0.061 S 
ATOM     27  O   UNL     1       1.918  -4.214  -4.416  0.00  0.00    -0.153 OA
ATOM     28  O   UNL     1       2.240  -1.878  -5.220  0.00  0.00    -0.153 OA
BRANCH  26  32
ATOM     29  C   UNL     1       0.365  -1.321  -0.489  0.00  0.00    +0.120 A 
ATOM     30  C   UNL     1       0.830  -0.435  -1.450  0.00  0.00    +0.047 A 
ATOM     31  C   UNL     1       1.446  -0.915  -2.589  0.00  0.00    +0.032 A 
ATOM     32  C   UNL     1       1.600  -2.277  -2.773  0.00  0.00    +0.106 A 
ATOM     33  C   UNL     1       1.137  -3.162  -1.817  0.00  0.00    +0.032 A 
ATOM     34  C   UNL     1       0.525  -2.687  -0.672  0.00  0.00    +0.047 A 
BRANCH  29  36
ATOM     35  C   UNL     1      -0.371   0.566   0.755  0.00  0.00    +0.277 C 
ATOM     36  O   UNL     1      -0.241  -0.852   0.633  0.00  0.00    -0.495 OA
ENDBRANCH  29  36
ENDBRANCH  26  32
ENDBRANCH  24  26
ENDBRANCH   1  24
TORSDOF 6
