REMARK  Name = ZINC64197642
REMARK  10 active torsions:
REMARK  status: ('A' for Active; 'I' for Inactive)
REMARK    1  A    between atoms: C_1  and  C_2
REMARK    2  A    between atoms: C_7  and  N_8
REMARK    3  A    between atoms: C_9  and  S_14
REMARK    4  A    between atoms: S_14  and  C_15
REMARK    5  A    between atoms: C_15  and  C_16
REMARK    6  A    between atoms: N_18  and  C_19
REMARK    7  A    between atoms: C_19  and  C_20
REMARK    8  A    between atoms: C_20  and  C_21
REMARK    9  A    between atoms: C_25  and  O_30
REMARK   10  A    between atoms: O_30  and  C_31
REMARK                            x       y       z     vdW  Elec       q    Type
REMARK                         _______ _______ _______ _____ _____    ______ ____
ROOT
ATOM      1  C   UNL     1       0.818  -2.153   4.652  0.00  0.00    +0.167 C 
ENDROOT
BRANCH   1   2
ATOM      2  C   UNL     1       0.988  -3.558   5.170  0.00  0.00    +0.223 C 
ATOM      3  O   UNL     1       0.047  -4.323   5.169  0.00  0.00    -0.275 OA
ATOM      4  N   UNL     1       2.187  -3.964   5.634  0.00  0.00    -0.314 N 
ATOM      5  H   UNL     1       2.939  -3.353   5.635  0.00  0.00    +0.149 HD
BRANCH   4   6
ATOM      6  C   UNL     1       2.353  -5.330   6.137  0.00  0.00    +0.108 C 
BRANCH   6   7
ATOM      7  C   UNL     1       3.797  -5.532   6.599  0.00  0.00    +0.052 C 
BRANCH   7   8
ATOM      8  C   UNL     1       3.968  -6.936   7.117  0.00  0.00    -0.040 C 
ATOM      9  C   UNL     1       4.425  -8.005   6.428  0.00  0.00    -0.001 A 
ATOM     10  C   UNL     1       4.884  -8.171   5.043  0.00  0.00    +0.013 A 
ATOM     11  C   UNL     1       5.293  -9.389   4.628  0.00  0.00    +0.046 A 
ATOM     12  C   UNL     1       5.291 -10.502   5.491  0.00  0.00    +0.122 A 
ATOM     13  C   UNL     1       4.881 -10.423   6.782  0.00  0.00    +0.071 A 
ATOM     14  C   UNL     1       4.432  -9.190   7.317  0.00  0.00    +0.046 A 
ATOM     15  N   UNL     1       3.994  -8.863   8.511  0.00  0.00    -0.380 N 
ATOM     16  C   UNL     1       3.667  -7.433   8.513  0.00  0.00    +0.144 C 
ATOM     17  H   UNL     1       3.905  -9.466   9.266  0.00  0.00    +0.160 HD
BRANCH  12  18
ATOM     18  O   UNL     1       5.713 -11.699   5.013  0.00  0.00    -0.495 OA
ATOM     19  C   UNL     1       6.136 -11.740   3.648  0.00  0.00    +0.277 C 
ENDBRANCH  12  18
ENDBRANCH   7   8
ENDBRANCH   6   7
ENDBRANCH   4   6
ENDBRANCH   1   2
BRANCH   1  20
ATOM     20  S   UNL     1      -0.895  -1.914   4.104  0.00  0.00    -0.114 S 
BRANCH  20  22
ATOM     21  N   UNL     1       0.026  -0.016   2.415  0.00  0.00    -0.254 N 
ATOM     22  C   UNL     1      -0.933  -0.198   3.518  0.00  0.00    +0.203 C 
ATOM     23  N   UNL     1      -0.488   0.722   4.594  0.00  0.00    -0.320 NA
ATOM     24  N   UNL     1       0.930   0.946   4.263  0.00  0.00    +0.411 N 
ATOM     25  N   UNL     1       0.927   0.950   2.796  0.00  0.00    -0.265 NA
ATOM     26  H   UNL     1      -1.007   1.587   4.567  0.00  0.00    +0.106 HD
ATOM     27  H   UNL     1       1.245   1.833   4.624  0.00  0.00    -0.031 HD
ATOM     28  H   UNL     1       0.659   1.855   2.440  0.00  0.00    +0.125 HD
ATOM     29  H   UNL     1       1.502   0.192   4.613  0.00  0.00    -0.031 HD
BRANCH  21  36
ATOM     30  C   UNL     1      -0.018   1.503   0.010  0.00  0.00    +0.046 C 
ATOM     31  C   UNL     1       0.002  -0.004   0.002  0.00  0.00    -0.028 A 
ATOM     32  C   UNL     1       0.006  -0.689  -1.198  0.00  0.00    +0.006 A 
ATOM     33  C   UNL     1       0.024  -2.071  -1.207  0.00  0.00    +0.020 A 
ATOM     34  C   UNL     1       0.040  -2.774  -0.014  0.00  0.00    +0.043 A 
ATOM     35  C   UNL     1       0.035  -2.095   1.189  0.00  0.00    +0.044 A 
ATOM     36  C   UNL     1       0.023  -0.706   1.201  0.00  0.00    +0.050 A 
ATOM     37 CL   UNL     1       0.063  -4.509  -0.031  0.00  0.00    -0.083 Cl
ENDBRANCH  21  36
ENDBRANCH  20  22
ENDBRANCH   1  20
TORSDOF 8
