REMARK  Name = ZINC49937083
REMARK  9 active torsions:
REMARK  status: ('A' for Active; 'I' for Inactive)
REMARK    1  A    between atoms: C_1  and  C_2
REMARK    2  A    between atoms: C_10  and  C_20
REMARK    3  A    between atoms: C_16  and  S_18
REMARK    4  A    between atoms: S_18  and  C_19
REMARK    5  A    between atoms: C_23  and  O_26
REMARK    6  A    between atoms: O_26  and  C_27
REMARK    7  A    between atoms: C_28  and  C_31
REMARK    8  A    between atoms: C_35  and  O_37
REMARK    9  A    between atoms: O_37  and  C_38
REMARK                            x       y       z     vdW  Elec       q    Type
REMARK                         _______ _______ _______ _____ _____    ______ ____
ROOT
ATOM      1  C   UNL     1       0.140   1.585   0.994  0.00  0.00    +0.044 C 
ATOM      2  C   UNL     1       0.127   0.096   0.758  0.00  0.00    -0.050 A 
ATOM      3  C   UNL     1       0.135  -0.398  -0.537  0.00  0.00    +0.007 A 
ATOM      4  C   UNL     1       0.129  -1.759  -0.773  0.00  0.00    +0.046 A 
ATOM      5  C   UNL     1       0.113  -2.650   0.290  0.00  0.00    +0.130 A 
ATOM      6  C   UNL     1       0.096  -2.146   1.604  0.00  0.00    +0.039 A 
ATOM      7  C   UNL     1       0.114  -0.771   1.830  0.00  0.00    +0.016 A 
ATOM      8  C   UNL     1       0.056  -3.108   2.710  0.00  0.00    +0.065 C 
ATOM      9  C   UNL     1       0.455  -4.539   2.381  0.00  0.00    +0.113 C 
ATOM     10  C   UNL     1       0.105  -5.585   3.454  0.00  0.00    +0.154 C 
ATOM     11  N   UNL     1      -0.341  -5.039   4.745  0.00  0.00    -0.220 N 
ATOM     12  C   UNL     1      -0.492  -3.701   4.912  0.00  0.00    +0.250 A 
ATOM     13  N   UNL     1      -0.316  -2.805   3.908  0.00  0.00    -0.215 NA
ATOM     14  N   UNL     1      -0.854  -3.506   6.176  0.00  0.00    -0.184 NA
ATOM     15  C   UNL     1      -0.963  -4.678   6.802  0.00  0.00    +0.210 A 
ATOM     16  N   UNL     1      -0.667  -5.646   5.964  0.00  0.00    -0.141 NA
ATOM     17  C   UNL     1      -0.292  -4.880   1.093  0.00  0.00    +0.215 C 
ATOM     18  O   UNL     1       0.118  -3.984   0.058  0.00  0.00    -0.483 OA
ENDROOT
BRANCH  10  19
ATOM     19  C   UNL     1       1.323  -6.437   3.701  0.00  0.00    -0.022 A 
ATOM     20  C   UNL     1       2.493  -5.854   4.153  0.00  0.00    +0.009 A 
ATOM     21  C   UNL     1       3.611  -6.632   4.379  0.00  0.00    +0.046 A 
ATOM     22  C   UNL     1       3.561  -8.000   4.152  0.00  0.00    +0.120 A 
ATOM     23  C   UNL     1       2.386  -8.583   3.699  0.00  0.00    +0.046 A 
ATOM     24  C   UNL     1       1.268  -7.801   3.480  0.00  0.00    +0.009 A 
BRANCH  22  25
ATOM     25  O   UNL     1       4.660  -8.768   4.374  0.00  0.00    -0.495 OA
ATOM     26  C   UNL     1       4.534 -10.169   4.120  0.00  0.00    +0.277 C 
ENDBRANCH  22  25
ENDBRANCH  10  19
BRANCH  17  27
ATOM     27  C   UNL     1      -1.776  -4.742   1.321  0.00  0.00    -0.003 A 
ATOM     28  C   UNL     1      -2.397  -3.525   1.106  0.00  0.00    +0.007 A 
ATOM     29  C   UNL     1      -3.757  -3.394   1.314  0.00  0.00    +0.004 A 
ATOM     30  C   UNL     1      -4.500  -4.480   1.737  0.00  0.00    +0.045 A 
ATOM     31  C   UNL     1      -3.879  -5.701   1.954  0.00  0.00    +0.120 A 
ATOM     32  C   UNL     1      -2.514  -5.831   1.738  0.00  0.00    +0.053 A 
BRANCH  31  33
ATOM     33  O   UNL     1      -4.607  -6.771   2.370  0.00  0.00    -0.495 OA
ATOM     34  C   UNL     1      -6.008  -6.565   2.565  0.00  0.00    +0.277 C 
ENDBRANCH  31  33
ENDBRANCH  17  27
BRANCH  15  35
ATOM     35  S   UNL     1      -1.430  -4.894   8.487  0.00  0.00    -0.088 S 
ATOM     36  C   UNL     1      -1.702  -3.204   9.088  0.00  0.00    +0.093 C 
ENDBRANCH  15  35
TORSDOF 5
