REMARK  Name = ZINC05030065
REMARK  5 active torsions:
REMARK  status: ('A' for Active; 'I' for Inactive)
REMARK    1  A    between atoms: C_4  and  C_7
REMARK    2  A    between atoms: C_7  and  C_8
REMARK    3  A    between atoms: C_17  and  N_27
REMARK    4  A    between atoms: C_18  and  N_20
REMARK    5  A    between atoms: N_20  and  C_21
REMARK                            x       y       z     vdW  Elec       q    Type
REMARK                         _______ _______ _______ _____ _____    ______ ____
ROOT
ATOM      1  C   UNL     1      -0.019   1.527   0.010  0.00  0.00    -0.004 C 
ATOM      2  C   UNL     1       1.421   2.049  -0.001  0.00  0.00    +0.023 C 
ATOM      3  C   UNL     1       2.147   1.502  -1.231  0.00  0.00    +0.108 C 
ATOM      4  N   UNL     1       2.141   0.034  -1.192  0.00  0.00    -0.300 N 
ATOM      5  C   UNL     1       0.770  -0.492  -1.228  0.00  0.00    +0.108 C 
ATOM      6  C   UNL     1       0.002  -0.004   0.002  0.00  0.00    +0.023 C 
ATOM      7  C   UNL     1       2.901  -0.493  -2.221  0.00  0.00    +0.221 A 
ATOM      8  N   UNL     1       2.345  -1.356  -3.058  0.00  0.00    -0.197 NA
ATOM      9  C   UNL     1       3.045  -1.880  -4.062  0.00  0.00    +0.154 A 
ATOM     10  C   UNL     1       4.380  -1.518  -4.218  0.00  0.00    +0.205 A 
ATOM     11  C   UNL     1       4.931  -0.613  -3.316  0.00  0.00    +0.156 A 
ATOM     12  N   UNL     1       4.168  -0.126  -2.339  0.00  0.00    -0.197 NA
ATOM     13  N   UNL     1       2.454  -2.778  -4.936  0.00  0.00    -0.341 N 
ATOM     14  H   UNL     1       2.971  -3.159  -5.663  0.00  0.00    +0.144 HD
ATOM     15  H   UNL     1       1.523  -3.026  -4.821  0.00  0.00    +0.144 HD
ENDROOT
BRANCH  10  16
ATOM     16  N   UNL     1       5.194  -2.082  -5.318  0.00  0.00    +0.063 N 
ATOM     17  O   UNL     1       5.819  -3.113  -5.146  0.00  0.00    -0.126 OA
ATOM     18  O   UNL     1       5.239  -1.515  -6.395  0.00  0.00    -0.126 OA
ENDBRANCH  10  16
BRANCH  11  19
ATOM     19  N   UNL     1       6.256  -0.223  -3.433  0.00  0.00    -0.324 N 
ATOM     20  H   UNL     1       6.806  -0.581  -4.148  0.00  0.00    +0.148 HD
BRANCH  19  21
ATOM     21  C   UNL     1       6.826   0.731  -2.478  0.00  0.00    +0.072 C 
ATOM     22  C   UNL     1       6.518   2.158  -2.937  0.00  0.00    +0.022 C 
ATOM     23  C   UNL     1       7.114   3.153  -1.940  0.00  0.00    +0.002 C 
ATOM     24  C   UNL     1       8.629   2.957  -1.866  0.00  0.00    +0.000 C 
ATOM     25  C   UNL     1       8.937   1.530  -1.407  0.00  0.00    +0.002 C 
ATOM     26  C   UNL     1       8.341   0.534  -2.405  0.00  0.00    +0.022 C 
ENDBRANCH  19  21
ENDBRANCH  11  19
BRANCH   1  27
ATOM     27  C   UNL     1      -0.733   2.022   1.270  0.00  0.00    +0.038 C 
BRANCH  27  31
ATOM     28  C   UNL     1      -1.097   6.275   1.123  0.00  0.00    +0.000 A 
ATOM     29  C   UNL     1      -2.093   5.477   0.591  0.00  0.00    +0.000 A 
ATOM     30  C   UNL     1      -1.975   4.101   0.639  0.00  0.00    +0.003 A 
ATOM     31  C   UNL     1      -0.861   3.522   1.218  0.00  0.00    -0.047 A 
ATOM     32  C   UNL     1       0.133   4.320   1.754  0.00  0.00    +0.003 A 
ATOM     33  C   UNL     1       0.017   5.697   1.702  0.00  0.00    +0.000 A 
ENDBRANCH  27  31
ENDBRANCH   1  27
TORSDOF 5
