REMARK  Name = ZINC01426250
REMARK  7 active torsions:
REMARK  status: ('A' for Active; 'I' for Inactive)
REMARK    1  A    between atoms: C_1  and  C_2
REMARK    2  A    between atoms: C_5  and  N_8
REMARK    3  A    between atoms: C_11  and  C_16
REMARK    4  A    between atoms: C_16  and  S_17
REMARK    5  A    between atoms: S_17  and  C_18
REMARK    6  A    between atoms: C_21  and  C_29
REMARK    7  A    between atoms: N_22  and  C_23
REMARK                            x       y       z     vdW  Elec       q    Type
REMARK                         _______ _______ _______ _____ _____    ______ ____
ROOT
ATOM      1  N   UNL     1       1.162   3.484   0.009  0.00  0.00    -0.284 N 
ATOM      2  C   UNL     1       2.347   4.188   0.106  0.00  0.00    +0.224 A 
ATOM      3  N   UNL     1       2.328   5.515   0.208  0.00  0.00    -0.198 NA
ATOM      4  C   UNL     1       3.461   6.188   0.306  0.00  0.00    +0.146 A 
ATOM      5  N   UNL     1       4.617   5.548   0.292  0.00  0.00    -0.199 NA
ATOM      6  C   UNL     1       4.644   4.222   0.185  0.00  0.00    +0.217 A 
ATOM      7  N   UNL     1       3.507   3.541   0.092  0.00  0.00    -0.181 NA
ATOM      8  N   UNL     1       5.852   3.554   0.172  0.00  0.00    -0.327 N 
ATOM      9  H   UNL     1       0.320   3.960  -0.061  0.00  0.00    +0.155 HD
ATOM     10  H   UNL     1       5.872   2.588   0.094  0.00  0.00    +0.145 HD
ATOM     11  H   UNL     1       6.682   4.052   0.240  0.00  0.00    +0.145 HD
ENDROOT
BRANCH   1  16
ATOM     12  C   UNL     1       1.221  -2.188   0.024  0.00  0.00    +0.044 C 
ATOM     13  C   UNL     1       1.205  -0.681   0.021  0.00  0.00    -0.050 A 
ATOM     14  C   UNL     1       2.143   0.021   0.755  0.00  0.00    +0.005 A 
ATOM     15  C   UNL     1       2.132   1.402   0.754  0.00  0.00    +0.023 A 
ATOM     16  C   UNL     1       1.177   2.086   0.013  0.00  0.00    +0.034 A 
ATOM     17  C   UNL     1       0.236   1.378  -0.725  0.00  0.00    +0.023 A 
ATOM     18  C   UNL     1       0.253  -0.003  -0.718  0.00  0.00    +0.005 A 
ENDBRANCH   1  16
BRANCH   4  19
ATOM     19  C   UNL     1       3.434   7.690   0.428  0.00  0.00    +0.153 C 
BRANCH  19  20
ATOM     20  S   UNL     1       3.481   8.430  -1.224  0.00  0.00    -0.078 S 
BRANCH  20  21
ATOM     21  C   UNL     1       3.441  10.138  -0.794  0.00  0.00    +0.197 A 
ATOM     22  N   UNL     1       3.392  10.636   0.421  0.00  0.00    -0.122 NA
ATOM     23  N   UNL     1       3.374  11.920   0.375  0.00  0.00    -0.125 NA
ATOM     24  C   UNL     1       3.411  12.326  -0.876  0.00  0.00    +0.205 A 
ATOM     25  N   UNL     1       3.461  11.195  -1.665  0.00  0.00    -0.268 N 
BRANCH  25  26
ATOM     26  C   UNL     1       3.518  11.140  -3.064  0.00  0.00    +0.051 A 
ATOM     27  C   UNL     1       4.625  11.639  -3.736  0.00  0.00    +0.026 A 
ATOM     28  C   UNL     1       4.681  11.578  -5.114  0.00  0.00    +0.002 A 
ATOM     29  C   UNL     1       3.629  11.030  -5.827  0.00  0.00    +0.000 A 
ATOM     30  C   UNL     1       2.522  10.537  -5.161  0.00  0.00    +0.002 A 
ATOM     31  C   UNL     1       2.464  10.590  -3.782  0.00  0.00    +0.026 A 
ENDBRANCH  25  26
BRANCH  24  32
ATOM     32  C   UNL     1       3.406  13.720  -1.343  0.00  0.00    +0.172 A 
ATOM     33  C   UNL     1       3.643  14.822  -0.578  0.00  0.00    +0.053 A 
ATOM     34  C   UNL     1       3.542  15.938  -1.431  0.00  0.00    +0.042 A 
ATOM     35  C   UNL     1       3.242  15.471  -2.659  0.00  0.00    +0.196 A 
ATOM     36  O   UNL     1       3.161  14.131  -2.603  0.00  0.00    -0.460 OA
ENDBRANCH  24  32
ENDBRANCH  20  21
ENDBRANCH  19  20
ENDBRANCH   4  19
TORSDOF 6
