REMARK  Name = ZINC05650223
REMARK  5 active torsions:
REMARK  status: ('A' for Active; 'I' for Inactive)
REMARK    1  A    between atoms: C_8  and  C_9
REMARK    2  A    between atoms: C_10  and  O_25
REMARK    3  A    between atoms: N_11  and  N_15
REMARK    4  A    between atoms: C_16  and  C_18
REMARK    5  A    between atoms: C_23  and  O_24
REMARK                            x       y       z     vdW  Elec       q    Type
REMARK                         _______ _______ _______ _____ _____    ______ ____
ROOT
ATOM      1  C   UNL     1       0.527   4.091  -0.711  0.00  0.00    +0.076 A 
ATOM      2  C   UNL     1      -0.780   3.601  -0.722  0.00  0.00    +0.226 A 
ATOM      3  N   UNL     1      -1.062   2.509   0.003  0.00  0.00    -0.213 N 
ATOM      4  C   UNL     1      -0.096   1.909   0.735  0.00  0.00    +0.147 A 
ATOM      5  S   UNL     1      -0.207   0.523   1.734  0.00  0.00    -0.023 S 
ATOM      6  S   UNL     1       1.328   2.929   0.385  0.00  0.00    -0.057 S 
ENDROOT
BRANCH   1  14
ATOM      7  C   UNL     1       3.863   8.392  -3.276  0.00  0.00    +0.001 A 
ATOM      8  C   UNL     1       5.111   8.393  -2.666  0.00  0.00    +0.002 A 
ATOM      9  C   UNL     1       5.396   7.531  -1.646  0.00  0.00    +0.028 A 
ATOM     10  C   UNL     1       4.423   6.628  -1.199  0.00  0.00    +0.072 A 
ATOM     11  C   UNL     1       3.154   6.629  -1.822  0.00  0.00    +0.009 A 
ATOM     12  C   UNL     1       2.884   7.516  -2.859  0.00  0.00    +0.010 A 
ATOM     13  C   UNL     1       2.383   5.583  -1.129  0.00  0.00    +0.003 C 
ATOM     14  C   UNL     1       1.063   5.192  -1.375  0.00  0.00    +0.030 C 
ATOM     15  C   UNL     1       3.267   5.065  -0.157  0.00  0.00    +0.120 C 
ATOM     16  N   UNL     1       4.417   5.686  -0.238  0.00  0.00    -0.254 NA
ENDBRANCH   1  14
BRANCH   3  17
ATOM     17  N   UNL     1      -2.364   1.991   0.006  0.00  0.00    -0.215 N 
ATOM     18  C   UNL     1      -3.411   2.801   0.256  0.00  0.00    +0.266 C 
ATOM     19  O   UNL     1      -3.238   3.998   0.379  0.00  0.00    -0.268 OA
ATOM     20  H   UNL     1      -2.511   1.048  -0.172  0.00  0.00    +0.176 HD
BRANCH  18  21
ATOM     21  C   UNL     1      -4.768   2.235   0.379  0.00  0.00    +0.080 A 
ATOM     22  C   UNL     1      -4.972   0.860   0.237  0.00  0.00    +0.017 A 
ATOM     23  C   UNL     1      -6.242   0.338   0.354  0.00  0.00    +0.001 A 
ATOM     24  C   UNL     1      -7.319   1.171   0.611  0.00  0.00    +0.004 A 
ATOM     25  C   UNL     1      -7.132   2.531   0.753  0.00  0.00    +0.046 A 
ATOM     26  C   UNL     1      -5.860   3.073   0.644  0.00  0.00    +0.129 A 
BRANCH  26  27
ATOM     27  O   UNL     1      -5.673   4.409   0.790  0.00  0.00    -0.506 OA
ATOM     28  H   UNL     1      -5.744   4.908  -0.035  0.00  0.00    +0.292 HD
ENDBRANCH  26  27
ENDBRANCH  18  21
ENDBRANCH   3  17
BRANCH   2  29
ATOM     29  O   UNL     1      -1.739   4.210  -1.451  0.00  0.00    -0.492 OA
ATOM     30  H   UNL     1      -1.820   3.874  -2.354  0.00  0.00    +0.294 HD
ENDBRANCH   2  29
TORSDOF 5
