REMARK  Name = ZINC21870618
REMARK  11 active torsions:
REMARK  status: ('A' for Active; 'I' for Inactive)
REMARK    1  A    between atoms: C_1  and  C_2
REMARK    2  A    between atoms: C_2  and  C_14
REMARK    3  A    between atoms: N_4  and  S_10
REMARK    4  A    between atoms: N_8  and  C_9
REMARK    5  A    between atoms: S_10  and  C_13
REMARK    6  A    between atoms: N_16  and  C_17
REMARK    7  A    between atoms: C_17  and  C_18
REMARK    8  A    between atoms: N_20  and  C_21
REMARK    9  A    between atoms: C_21  and  C_22
REMARK   10  A    between atoms: C_22  and  C_23
REMARK   11  A    between atoms: C_23  and  N_24
REMARK                            x       y       z     vdW  Elec       q    Type
REMARK                         _______ _______ _______ _____ _____    ______ ____
ROOT
ATOM      1  C   UNL     1       6.035   7.010   3.484  0.00  0.00    +0.200 C 
ENDROOT
BRANCH   1   4
ATOM      2  C   UNL     1       7.493   8.846   4.146  0.00  0.00    +0.238 C 
ATOM      3  O   UNL     1       6.646   9.197   4.940  0.00  0.00    -0.273 OA
ATOM      4  N   UNL     1       7.263   7.794   3.336  0.00  0.00    -0.305 N 
ATOM      5  H   UNL     1       7.998   7.525   2.563  0.00  0.00    +0.149 HD
BRANCH   2   7
ATOM      6  C   UNL     1       9.087  10.254   5.414  0.00  0.00    +0.043 C 
ATOM      7  C   UNL     1       8.803   9.588   4.066  0.00  0.00    +0.124 C 
ATOM      8  C   UNL     1       8.707  10.663   2.982  0.00  0.00    +0.144 C 
ATOM      9  N   UNL     1       8.749   9.997   1.669  0.00  0.00    -0.170 NA
ATOM     10  C   UNL     1       9.960   9.230   1.340  0.00  0.00    +0.205 C 
ATOM     11  C   UNL     1      10.376   8.435   2.548  0.00  0.00    +0.232 C 
ATOM     12  O   UNL     1      11.208   7.565   2.409  0.00  0.00    -0.274 OA
ATOM     13  N   UNL     1       9.870   8.644   3.764  0.00  0.00    -0.288 N 
ATOM     14  C   UNL     1      10.428   7.868   4.874  0.00  0.00    +0.133 C 
BRANCH   9  15
ATOM     15  S   UNL     1       7.484  10.109   0.606  0.00  0.00    +0.029 S 
ATOM     16  O   UNL     1       7.575   8.936  -0.190  0.00  0.00    -0.158 OA
ATOM     17  O   UNL     1       6.345  10.344   1.422  0.00  0.00    -0.158 OA
ATOM     18  C   UNL     1       7.847  11.576  -0.398  0.00  0.00    +0.215 C 
ENDBRANCH   9  15
ENDBRANCH   2   7
ENDBRANCH   1   4
BRANCH   1  19
ATOM     19  C   UNL     1       6.022   5.900   2.465  0.00  0.00    +0.230 C 
ATOM     20  O   UNL     1       6.948   5.776   1.691  0.00  0.00    -0.274 OA
ATOM     21  N   UNL     1       4.982   5.044   2.413  0.00  0.00    -0.314 N 
ATOM     22  H   UNL     1       4.142   5.157   3.115  0.00  0.00    +0.149 HD
BRANCH  21  23
ATOM     23  C   UNL     1       4.969   3.965   1.423  0.00  0.00    +0.102 C 
BRANCH  23  24
ATOM     24  C   UNL     1       3.686   3.146   1.578  0.00  0.00    +0.000 C 
BRANCH  24  25
ATOM     25  C   UNL     1       3.673   2.018   0.543  0.00  0.00    -0.077 C 
BRANCH  25  26
ATOM     26  N   UNL     1       2.442   1.232   0.692  0.00  0.00    +0.383 N 
ATOM     27  C   UNL     1       2.499   0.004  -0.118  0.00  0.00    -0.074 C 
ATOM     28  C   UNL     1       1.386  -0.936   0.347  0.00  0.00    +0.017 C 
ATOM     29  C   UNL     1       0.074  -0.196   0.393  0.00  0.00    -0.048 A 
ATOM     30  C   UNL     1      -1.099  -0.934   0.443  0.00  0.00    +0.004 A 
ATOM     31  C   UNL     1      -2.323  -0.296   0.490  0.00  0.00    +0.000 A 
ATOM     32  C   UNL     1      -2.379   1.085   0.487  0.00  0.00    +0.000 A 
ATOM     33  C   UNL     1      -1.212   1.820   0.433  0.00  0.00    +0.002 A 
ATOM     34  C   UNL     1       0.019   1.181   0.388  0.00  0.00    -0.061 A 
ATOM     35  C   UNL     1       1.264   2.026   0.328  0.00  0.00    -0.043 C 
ATOM     36  H   UNL     1       2.353   0.949   1.751  0.00  0.00    -0.081 HD
ENDBRANCH  25  26
ENDBRANCH  24  25
ENDBRANCH  23  24
ENDBRANCH  21  23
ENDBRANCH   1  19
TORSDOF 8
