REMARK  Name = ZINC12496754
REMARK  7 active torsions:
REMARK  status: ('A' for Active; 'I' for Inactive)
REMARK    1  A    between atoms: C_1  and  O_2
REMARK    2  A    between atoms: O_2  and  C_3
REMARK    3  A    between atoms: C_3  and  C_5
REMARK    4  A    between atoms: C_5  and  C_31
REMARK    5  A    between atoms: C_10  and  C_12
REMARK    6  A    between atoms: C_15  and  O_18
REMARK    7  A    between atoms: N_21  and  C_24
REMARK                            x       y       z     vdW  Elec       q    Type
REMARK                         _______ _______ _______ _____ _____    ______ ____
ROOT
ATOM      1  C   UNL     1       1.479   1.805   0.067  0.00  0.00    +0.070 C 
ATOM      2  C   UNL     1       2.365   0.596  -0.225  0.00  0.00    +0.090 C 
ATOM      3  C   UNL     1       1.518  -0.479   0.570  0.00  0.00    +0.078 C 
ATOM      4  C   UNL     1       0.164  -0.228   0.040  0.00  0.00    -0.026 C 
ATOM      5  C   UNL     1       2.471  -1.560   0.675  0.00  0.00    +0.229 C 
ATOM      6  O   UNL     1       2.248  -2.751   0.629  0.00  0.00    -0.275 OA
ATOM      7  N   UNL     1       3.685  -0.940   0.839  0.00  0.00    -0.210 N 
ATOM      8  C   UNL     1       3.637   0.396   0.553  0.00  0.00    +0.229 C 
ATOM      9  O   UNL     1       4.449   1.241   0.862  0.00  0.00    -0.275 OA
ATOM     10  N   UNL     1       0.094   1.266   0.087  0.00  0.00    +0.398 N 
ATOM     11  H   UNL     1      -0.426   1.615  -0.727  0.00  0.00    -0.083 HD
ATOM     12  H   UNL     1      -0.381   1.563   0.948  0.00  0.00    -0.083 HD
ENDROOT
BRANCH   7  13
ATOM     13  C   UNL     1       4.848  -1.605   1.255  0.00  0.00    +0.044 A 
ATOM     14  C   UNL     1       6.038  -0.904   1.391  0.00  0.00    +0.027 A 
ATOM     15  C   UNL     1       7.181  -1.559   1.806  0.00  0.00    +0.040 A 
ATOM     16  C   UNL     1       7.143  -2.917   2.076  0.00  0.00    +0.124 A 
ATOM     17  C   UNL     1       5.957  -3.619   1.935  0.00  0.00    +0.040 A 
ATOM     18  C   UNL     1       4.811  -2.966   1.526  0.00  0.00    +0.027 A 
ATOM     19  F   UNL     1       8.262  -3.557   2.477  0.00  0.00    -0.205 F 
ENDBRANCH   7  13
BRANCH   4  20
ATOM     20  C   UNL     1       0.038  -0.729  -1.376  0.00  0.00    -0.060 A 
ATOM     21  C   UNL     1      -0.537  -1.962  -1.623  0.00  0.00    +0.005 A 
ATOM     22  C   UNL     1      -0.658  -2.421  -2.920  0.00  0.00    +0.045 A 
ATOM     23  C   UNL     1      -0.192  -1.649  -3.974  0.00  0.00    +0.117 A 
ATOM     24  C   UNL     1       0.390  -0.415  -3.723  0.00  0.00    +0.045 A 
ATOM     25  C   UNL     1       0.503   0.043  -2.425  0.00  0.00    +0.005 A 
BRANCH  23  26
ATOM     26  O   UNL     1      -0.304  -2.101  -5.251  0.00  0.00    -0.507 OA
ATOM     27  H   UNL     1       0.455  -2.619  -5.553  0.00  0.00    +0.292 HD
ENDBRANCH  23  26
ENDBRANCH   4  20
BRANCH   1  28
ATOM     28  C   UNL     1       1.629   2.837  -1.022  0.00  0.00    -0.047 A 
ATOM     29  C   UNL     1       2.844   2.995  -1.662  0.00  0.00    +0.003 A 
ATOM     30  C   UNL     1       2.980   3.938  -2.663  0.00  0.00    +0.000 A 
ATOM     31  C   UNL     1       1.903   4.730  -3.017  0.00  0.00    +0.000 A 
ATOM     32  C   UNL     1       0.690   4.576  -2.373  0.00  0.00    +0.000 A 
ATOM     33  C   UNL     1       0.553   3.629  -1.375  0.00  0.00    +0.003 A 
ENDBRANCH   1  28
BRANCH   1  34
ATOM     34  C   UNL     1       1.832   2.401   1.405  0.00  0.00    +0.301 C 
ATOM     35  O   UNL     1       2.571   3.355   1.466  0.00  0.00    -0.252 OA
BRANCH  34  37
ATOM     36  C   UNL     1       1.708   2.497   3.783  0.00  0.00    +0.280 C 
ATOM     37  O   UNL     1       1.325   1.871   2.530  0.00  0.00    -0.469 OA
ENDBRANCH  34  37
ENDBRANCH   1  34
TORSDOF 6
