REMARK  Name = ZINC15777021
REMARK  8 active torsions:
REMARK  status: ('A' for Active; 'I' for Inactive)
REMARK    1  A    between atoms: C_1  and  C_2
REMARK    2  A    between atoms: C_3  and  C_18
REMARK    3  A    between atoms: C_4  and  C_16
REMARK    4  A    between atoms: C_5  and  C_15
REMARK    5  A    between atoms: N_6  and  C_7
REMARK    6  A    between atoms: C_7  and  C_8
REMARK    7  A    between atoms: C_18  and  N_48
REMARK    8  A    between atoms: C_19  and  N_48
REMARK                            x       y       z     vdW  Elec       q    Type
REMARK                         _______ _______ _______ _____ _____    ______ ____
ROOT
ATOM      1  C   UNL     1      -1.792   1.439   1.329  0.00  0.00    +0.064 C 
ATOM      2  C   UNL     1      -1.344   2.251   2.517  0.00  0.00    +0.018 A 
ATOM      3  C   UNL     1      -0.070   2.564   2.812  0.00  0.00    -0.030 A 
ATOM      4  C   UNL     1      -0.115   3.365   4.041  0.00  0.00    +0.085 A 
ATOM      5  C   UNL     1      -1.447   3.457   4.384  0.00  0.00    +0.031 A 
ATOM      6  N   UNL     1      -2.166   2.784   3.466  0.00  0.00    -0.343 N 
ATOM      7  C   UNL     1      -2.002   4.185   5.581  0.00  0.00    +0.064 C 
ENDROOT
BRANCH   4   8
ATOM      8  C   UNL     1       1.028   3.949   4.760  0.00  0.00    +0.388 C 
ATOM      9  O   UNL     1       1.413   5.068   4.482  0.00  0.00    -0.241 OA
ATOM     10  O   UNL     1       1.648   3.243   5.726  0.00  0.00    -0.241 OA
ENDBRANCH   4   8
BRANCH   6  11
ATOM     11  C   UNL     1      -3.624   2.649   3.481  0.00  0.00    +0.158 C 
BRANCH  11  12
ATOM     12  C   UNL     1      -4.002   1.366   4.176  0.00  0.00    -0.009 A 
ATOM     13  C   UNL     1      -3.887   1.263   5.549  0.00  0.00    +0.007 A 
ATOM     14  C   UNL     1      -4.233   0.086   6.186  0.00  0.00    +0.000 A 
ATOM     15  C   UNL     1      -4.696  -0.989   5.450  0.00  0.00    +0.001 A 
ATOM     16  C   UNL     1      -4.812  -0.887   4.077  0.00  0.00    +0.020 A 
ATOM     17  C   UNL     1      -4.471   0.292   3.439  0.00  0.00    +0.046 A 
ATOM     18 CL   UNL     1      -4.623   0.423   1.715  0.00  0.00    -0.083 Cl
ENDBRANCH  11  12
ENDBRANCH   6  11
BRANCH   3  19
ATOM     19  C   UNL     1       1.159   2.176   2.031  0.00  0.00    -0.044 C 
BRANCH  19  20
ATOM     20  N   UNL     1       1.669   0.889   2.541  0.00  0.00    +0.384 N 
ATOM     21  H   UNL     1       0.945   0.170   2.431  0.00  0.00    -0.085 HD
ATOM     22  H   UNL     1       1.904   0.988   3.536  0.00  0.00    -0.085 HD
BRANCH  20  23
ATOM     23  C   UNL     1       2.875   0.484   1.794  0.00  0.00    -0.071 C 
ATOM     24  C   UNL     1       2.474  -0.326   0.544  0.00  0.00    -0.016 C 
ATOM     25  C   UNL     1       3.567  -1.418   0.432  0.00  0.00    -0.002 C 
ATOM     26  C   UNL     1       3.828  -1.793   1.912  0.00  0.00    -0.002 C 
ATOM     27  C   UNL     1       3.735  -0.449   2.665  0.00  0.00    -0.016 C 
ENDBRANCH  20  23
ENDBRANCH  19  20
ENDBRANCH   3  19
TORSDOF 6
