REMARK  Name = ZINC54506958
REMARK  5 active torsions:
REMARK  status: ('A' for Active; 'I' for Inactive)
REMARK    1  A    between atoms: C_6  and  S_7
REMARK    2  A    between atoms: S_7  and  C_10
REMARK    3  A    between atoms: C_10  and  C_11
REMARK    4  A    between atoms: C_11  and  N_12
REMARK    5  A    between atoms: C_21  and  O_25
REMARK                            x       y       z     vdW  Elec       q    Type
REMARK                         _______ _______ _______ _____ _____    ______ ____
ROOT
ATOM      1  N   UNL     1      -3.578  -2.100  -3.265  0.00  0.00    -0.298 N 
ATOM      2  C   UNL     1      -4.700  -2.763  -3.609  0.00  0.00    +0.303 C 
ATOM      3  O   UNL     1      -5.385  -3.285  -2.750  0.00  0.00    -0.253 OA
ATOM      4  N   UNL     1      -5.064  -2.846  -4.904  0.00  0.00    -0.281 N 
ATOM      5  C   UNL     1      -6.340  -3.463  -5.303  0.00  0.00    +0.114 C 
ATOM      6  C   UNL     1      -7.205  -2.380  -5.946  0.00  0.00    +0.054 C 
ATOM      7  C   UNL     1      -6.415  -1.594  -6.959  0.00  0.00    -0.041 A 
ATOM      8  C   UNL     1      -7.126  -0.883  -7.918  0.00  0.00    +0.007 A 
ATOM      9  C   UNL     1      -6.468  -0.135  -8.871  0.00  0.00    +0.045 A 
ATOM     10  C   UNL     1      -5.081  -0.088  -8.872  0.00  0.00    +0.117 A 
ATOM     11  C   UNL     1      -4.372  -0.798  -7.918  0.00  0.00    +0.050 A 
ATOM     12  C   UNL     1      -5.038  -1.555  -6.965  0.00  0.00    -0.023 A 
ATOM     13  C   UNL     1      -4.207  -2.320  -5.972  0.00  0.00    +0.144 C 
ATOM     14  H   UNL     1      -2.993  -1.747  -3.954  0.00  0.00    +0.150 HD
ENDROOT
BRANCH  10  15
ATOM     15  O   UNL     1      -4.423   0.651  -9.804  0.00  0.00    -0.507 OA
ATOM     16  H   UNL     1      -4.256   1.564  -9.536  0.00  0.00    +0.292 HD
ENDBRANCH  10  15
BRANCH   1  17
ATOM     17  C   UNL     1      -3.242  -1.913  -1.852  0.00  0.00    +0.129 C 
BRANCH  17  18
ATOM     18  C   UNL     1      -1.929  -1.136  -1.738  0.00  0.00    +0.190 C 
BRANCH  18  19
ATOM     19  S   UNL     1      -1.512  -0.904   0.012  0.00  0.00    -0.002 S 
ATOM     20  O   UNL     1      -1.189  -2.154   0.607  0.00  0.00    -0.169 OA
ATOM     21  O   UNL     1      -2.448  -0.030   0.626  0.00  0.00    -0.169 OA
BRANCH  19  27
ATOM     22  C   UNL     1      -0.013   1.377   0.007  0.00  0.00    +0.028 A 
ATOM     23  C   UNL     1       1.175   2.082  -0.001  0.00  0.00    +0.022 A 
ATOM     24  C   UNL     1       2.382   1.405  -0.014  0.00  0.00    +0.041 A 
ATOM     25  C   UNL     1       2.398   0.021  -0.019  0.00  0.00    +0.022 A 
ATOM     26  C   UNL     1       1.208  -0.683  -0.011  0.00  0.00    +0.028 A 
ATOM     27  C   UNL     1       0.004  -0.006   0.002  0.00  0.00    +0.088 A 
ATOM     28 CL   UNL     1       3.875   2.290  -0.024  0.00  0.00    -0.084 Cl
ENDBRANCH  19  27
ENDBRANCH  18  19
ENDBRANCH  17  18
ENDBRANCH   1  17
TORSDOF 5
