REMARK  Name = ZINC35489744
REMARK  7 active torsions:
REMARK  status: ('A' for Active; 'I' for Inactive)
REMARK    1  A    between atoms: C_1  and  C_2
REMARK    2  A    between atoms: C_2  and  C_3
REMARK    3  A    between atoms: C_2  and  C_4
REMARK    4  A    between atoms: C_4  and  C_5
REMARK    5  A    between atoms: C_5  and  O_6
REMARK    6  A    between atoms: O_6  and  C_7
REMARK    7  A    between atoms: C_11  and  C_13
REMARK                            x       y       z     vdW  Elec       q    Type
REMARK                         _______ _______ _______ _____ _____    ______ ____
ROOT
ATOM      1  C   UNL     1      -5.739  -6.409  -0.341  0.00  0.00    +0.152 C 
ATOM      2  C   UNL     1      -6.154  -6.740  -1.737  0.00  0.00    +0.072 A 
ATOM      3  C   UNL     1      -6.341  -5.890  -2.917  0.00  0.00    +0.199 A 
ATOM      4  O   UNL     1      -5.998  -4.722  -2.959  0.00  0.00    -0.287 OA
ATOM      5  C   UNL     1      -6.988  -6.588  -4.057  0.00  0.00    +0.066 A 
ATOM      6  C   UNL     1      -7.414  -5.871  -5.174  0.00  0.00    +0.035 A 
ATOM      7  C   UNL     1      -8.017  -6.535  -6.220  0.00  0.00    +0.042 A 
ATOM      8  C   UNL     1      -8.198  -7.911  -6.159  0.00  0.00    +0.023 A 
ATOM      9  C   UNL     1      -7.780  -8.629  -5.062  0.00  0.00    +0.048 A 
ATOM     10  C   UNL     1      -7.165  -7.980  -3.991  0.00  0.00    +0.140 A 
ATOM     11  O   UNL     1      -6.755  -8.711  -2.929  0.00  0.00    -0.450 OA
ATOM     12  C   UNL     1      -6.372  -8.088  -1.798  0.00  0.00    +0.199 A 
ATOM     13  C   UNL     1      -6.115  -8.658  -0.465  0.00  0.00    +0.289 C 
ATOM     14  O   UNL     1      -6.222  -9.834  -0.179  0.00  0.00    -0.266 OA
ATOM     15  N   UNL     1      -5.745  -7.684   0.394  0.00  0.00    -0.230 N 
ATOM     16  C   UNL     1      -5.424  -7.854   1.734  0.00  0.00    +0.191 A 
ATOM     17  N   UNL     1      -5.057  -6.962   2.644  0.00  0.00    -0.126 NA
ATOM     18  N   UNL     1      -4.800  -7.292   3.834  0.00  0.00    -0.148 NA
ATOM     19  C   UNL     1      -4.878  -8.541   4.248  0.00  0.00    +0.183 A 
ATOM     20  S   UNL     1      -5.394  -9.341   2.732  0.00  0.00    -0.038 S 
ATOM     21 CL   UNL     1      -8.551  -5.651  -7.616  0.00  0.00    -0.084 Cl
ENDROOT
BRANCH   1  26
ATOM     22  C   UNL     1      -2.919  -3.897  -0.222  0.00  0.00    +0.121 A 
ATOM     23  C   UNL     1      -1.810  -4.724  -0.333  0.00  0.00    +0.045 A 
ATOM     24  C   UNL     1      -1.978  -6.090  -0.445  0.00  0.00    +0.004 A 
ATOM     25  C   UNL     1      -3.249  -6.634  -0.448  0.00  0.00    +0.006 A 
ATOM     26  C   UNL     1      -4.355  -5.812  -0.338  0.00  0.00    -0.019 A 
ATOM     27  C   UNL     1      -4.193  -4.446  -0.220  0.00  0.00    +0.051 A 
BRANCH  22  28
ATOM     28  O   UNL     1      -2.756  -2.552  -0.111  0.00  0.00    -0.492 OA
BRANCH  28  29
ATOM     29  C   UNL     1      -1.416  -2.058  -0.121  0.00  0.00    +0.229 C 
BRANCH  29  30
ATOM     30  C   UNL     1      -1.433  -0.534   0.013  0.00  0.00    +0.044 C 
BRANCH  30  32
ATOM     31  C   UNL     1      -0.019   1.526   0.010  0.00  0.00    +0.007 C 
ATOM     32  C   UNL     1       0.002  -0.004   0.002  0.00  0.00    -0.014 C 
ATOM     33  C   UNL     1       0.742  -0.511   1.242  0.00  0.00    +0.007 C 
ENDBRANCH  30  32
ENDBRANCH  29  30
ENDBRANCH  28  29
ENDBRANCH  22  28
ENDBRANCH   1  26
TORSDOF 5
