REMARK  Name = ZINC66340574
REMARK  7 active torsions:
REMARK  status: ('A' for Active; 'I' for Inactive)
REMARK    1  A    between atoms: C_1  and  C_2
REMARK    2  A    between atoms: C_2  and  C_3
REMARK    3  A    between atoms: C_2  and  C_4
REMARK    4  A    between atoms: C_4  and  N_5
REMARK    5  A    between atoms: N_8  and  C_9
REMARK    6  A    between atoms: C_9  and  C_10
REMARK    7  A    between atoms: N_14  and  C_16
REMARK                            x       y       z     vdW  Elec       q    Type
REMARK                         _______ _______ _______ _____ _____    ______ ____
ROOT
ATOM      1  C   UNL     1      -3.522  -6.267  -0.406  0.00  0.00    +0.025 C 
ATOM      2  C   UNL     1      -2.848  -6.818   0.879  0.00  0.00    +0.025 C 
ATOM      3  C   UNL     1      -3.256  -8.311   0.828  0.00  0.00    +0.105 C 
ATOM      4  N   UNL     1      -4.630  -8.309   0.294  0.00  0.00    -0.330 N 
ATOM      5  C   UNL     1      -4.832  -7.078  -0.489  0.00  0.00    +0.110 C 
ENDROOT
BRANCH   4   6
ATOM      6  C   UNL     1      -5.583  -9.311   0.494  0.00  0.00    +0.031 A 
ATOM      7  C   UNL     1      -6.847  -9.193  -0.070  0.00  0.00    +0.023 A 
ATOM      8  C   UNL     1      -7.787 -10.185   0.130  0.00  0.00    +0.003 A 
ATOM      9  C   UNL     1      -7.471 -11.295   0.891  0.00  0.00    +0.015 A 
ATOM     10  C   UNL     1      -6.213 -11.417   1.455  0.00  0.00    +0.020 A 
ATOM     11  C   UNL     1      -5.266 -10.430   1.253  0.00  0.00    +0.038 A 
ATOM     12 BR   UNL     1      -5.787 -12.937   2.495  0.00  0.00    -0.050 Br
ENDBRANCH   4   6
BRANCH   1  13
ATOM     13  C   UNL     1      -3.818  -4.773  -0.263  0.00  0.00    +0.110 C 
BRANCH  13  17
ATOM     14  N   UNL     1      -1.416  -1.993  -0.116  0.00  0.00    -0.299 N 
ATOM     15  C   UNL     1      -2.575  -2.682  -0.130  0.00  0.00    +0.300 C 
ATOM     16  O   UNL     1      -3.634  -2.092  -0.036  0.00  0.00    -0.253 OA
ATOM     17  N   UNL     1      -2.559  -4.024  -0.248  0.00  0.00    -0.299 N 
ATOM     18  H   UNL     1      -0.572  -2.463  -0.190  0.00  0.00    +0.150 HD
ATOM     19  H   UNL     1      -1.714  -4.495  -0.323  0.00  0.00    +0.150 HD
BRANCH  14  20
ATOM     20  C   UNL     1      -1.433  -0.534   0.013  0.00  0.00    +0.108 C 
BRANCH  20  22
ATOM     21  C   UNL     1      -0.019   1.526   0.010  0.00  0.00    +0.009 C 
ATOM     22  C   UNL     1       0.002  -0.004   0.002  0.00  0.00    -0.000 C 
ATOM     23  C   UNL     1       0.742  -0.511   1.242  0.00  0.00    +0.009 C 
ENDBRANCH  20  22
ENDBRANCH  14  20
ENDBRANCH  13  17
ENDBRANCH   1  13
TORSDOF 5
