REMARK  Name = ZINC38815325
REMARK  8 active torsions:
REMARK  status: ('A' for Active; 'I' for Inactive)
REMARK    1  A    between atoms: C_1  and  C_2
REMARK    2  A    between atoms: C_2  and  C_3
REMARK    3  A    between atoms: C_3  and  C_5
REMARK    4  A    between atoms: C_3  and  N_21
REMARK    5  A    between atoms: N_7  and  N_8
REMARK    6  A    between atoms: C_9  and  C_10
REMARK    7  A    between atoms: C_19  and  O_20
REMARK    8  A    between atoms: N_21  and  C_22
REMARK                            x       y       z     vdW  Elec       q    Type
REMARK                         _______ _______ _______ _____ _____    ______ ____
ROOT
ATOM      1  C   UNL     1       1.147  -1.877   0.998  0.00  0.00    +0.218 C 
ATOM      2  O   UNL     1       0.935  -2.767   1.795  0.00  0.00    -0.276 OA
ATOM      3  N   UNL     1       1.604  -2.171  -0.235  0.00  0.00    -0.208 N 
ATOM      4  H   UNL     1       1.773  -1.459  -0.872  0.00  0.00    +0.177 HD
ENDROOT
BRANCH   3   5
ATOM      5  N   UNL     1       1.834  -3.505  -0.597  0.00  0.00    -0.188 NA
ATOM      6  C   UNL     1       2.190  -3.796  -1.813  0.00  0.00    +0.142 C 
BRANCH   6   7
ATOM      7  C   UNL     1       2.489  -2.721  -2.769  0.00  0.00    +0.044 A 
ATOM      8  C   UNL     1       1.788  -2.644  -4.050  0.00  0.00    -0.006 A 
ATOM      9  C   UNL     1       0.816  -3.586  -4.408  0.00  0.00    +0.009 A 
ATOM     10  C   UNL     1       0.186  -3.479  -5.612  0.00  0.00    +0.001 A 
ATOM     11  C   UNL     1       0.496  -2.445  -6.492  0.00  0.00    +0.001 A 
ATOM     12  C   UNL     1       1.436  -1.513  -6.175  0.00  0.00    +0.008 A 
ATOM     13  C   UNL     1       2.106  -1.592  -4.942  0.00  0.00    -0.017 A 
ATOM     14  C   UNL     1       3.082  -0.646  -4.580  0.00  0.00    +0.012 A 
ATOM     15  C   UNL     1       3.723  -0.732  -3.385  0.00  0.00    +0.046 A 
ATOM     16  C   UNL     1       3.442  -1.747  -2.471  0.00  0.00    +0.126 A 
BRANCH  16  17
ATOM     17  O   UNL     1       4.103  -1.790  -1.286  0.00  0.00    -0.506 OA
ATOM     18  H   UNL     1       4.959  -2.239  -1.330  0.00  0.00    +0.292 HD
ENDBRANCH  16  17
ENDBRANCH   6   7
ENDBRANCH   3   5
BRANCH   1  19
ATOM     19  C   UNL     1       0.899  -0.442   1.387  0.00  0.00    +0.021 C 
BRANCH  19  20
ATOM     20  N   UNL     1       0.408  -0.388   2.770  0.00  0.00    +0.408 N 
ATOM     21  H   UNL     1       0.132   0.557   2.993  0.00  0.00    -0.081 HD
ATOM     22  H   UNL     1      -0.387  -1.002   2.870  0.00  0.00    -0.081 HD
BRANCH  20  23
ATOM     23  C   UNL     1       1.474  -0.815   3.686  0.00  0.00    +0.158 C 
ATOM     24  C   UNL     1       0.857  -1.040   5.054  0.00  0.00    +0.229 C 
ATOM     25  O   UNL     1      -0.045  -1.831   5.226  0.00  0.00    -0.275 OA
ATOM     26  N   UNL     1       1.368  -0.308   6.074  0.00  0.00    -0.237 N 
ATOM     27  C   UNL     1       2.367   0.557   5.841  0.00  0.00    +0.347 C 
ATOM     28  O   UNL     1       2.799   1.195   6.780  0.00  0.00    -0.249 OA
ATOM     29  N   UNL     1       2.915   0.761   4.639  0.00  0.00    -0.068 NA
ATOM     30  N   UNL     1       2.562   0.174   3.611  0.00  0.00    -0.200 NA
ATOM     31  H   UNL     1       1.013  -0.411   6.971  0.00  0.00    +0.159 HD
ENDBRANCH  20  23
ENDBRANCH  19  20
BRANCH  19  33
ATOM     32  C   UNL     1      -0.309   1.655   0.767  0.00  0.00    +0.002 C 
ATOM     33  C   UNL     1      -0.146   0.167   0.450  0.00  0.00    -0.010 C 
ENDBRANCH  19  33
ENDBRANCH   1  19
TORSDOF 7
