REMARK  Name = ZINC67266077
REMARK  7 active torsions:
REMARK  status: ('A' for Active; 'I' for Inactive)
REMARK    1  A    between atoms: C_4  and  C_7
REMARK    2  A    between atoms: C_7  and  C_8
REMARK    3  A    between atoms: C_8  and  C_10
REMARK    4  A    between atoms: C_8  and  N_17
REMARK    5  A    between atoms: N_12  and  C_13
REMARK    6  A    between atoms: C_13  and  C_14
REMARK    7  A    between atoms: C_18  and  C_20
REMARK                            x       y       z     vdW  Elec       q    Type
REMARK                         _______ _______ _______ _____ _____    ______ ____
ROOT
ATOM      1  C   UNL     1       4.171  -0.963   1.399  0.00  0.00    +0.163 C 
ENDROOT
BRANCH   1   2
ATOM      2  C   UNL     1       5.543  -1.588   1.383  0.00  0.00    +0.234 C 
ATOM      3  O   UNL     1       5.715  -2.683   1.875  0.00  0.00    -0.274 OA
ATOM      4  N   UNL     1       6.577  -0.931   0.823  0.00  0.00    -0.305 N 
ATOM      5  H   UNL     1       6.438  -0.055   0.429  0.00  0.00    +0.149 HD
BRANCH   4   6
ATOM      6  C   UNL     1       7.910  -1.538   0.807  0.00  0.00    +0.199 C 
BRANCH   6   7
ATOM      7  C   UNL     1       8.879  -0.606   0.128  0.00  0.00    +0.228 C 
ATOM      8  O   UNL     1       8.494   0.461  -0.301  0.00  0.00    -0.274 OA
ATOM      9  N   UNL     1      10.174  -0.958  -0.003  0.00  0.00    -0.328 N 
ATOM     10  H   UNL     1      10.481  -1.811   0.341  0.00  0.00    +0.145 HD
ATOM     11  H   UNL     1      10.797  -0.357  -0.440  0.00  0.00    +0.145 HD
ENDBRANCH   6   7
ENDBRANCH   4   6
ENDBRANCH   1   2
BRANCH   1  12
ATOM     12  N   UNL     1       3.229  -1.870   2.059  0.00  0.00    -0.303 N 
ATOM     13  C   UNL     1       2.116  -1.379   2.640  0.00  0.00    +0.220 C 
ATOM     14  O   UNL     1       1.895  -0.187   2.616  0.00  0.00    -0.275 OA
ATOM     15  H   UNL     1       3.406  -2.823   2.078  0.00  0.00    +0.149 HD
BRANCH  13  16
ATOM     16  C   UNL     1       1.147  -2.312   3.320  0.00  0.00    +0.048 C 
ATOM     17  C   UNL     1       1.860  -3.051   4.453  0.00  0.00    +0.019 C 
ATOM     18  C   UNL     1       0.876  -3.998   5.143  0.00  0.00    -0.009 C 
ATOM     19  C   UNL     1      -0.292  -3.192   5.715  0.00  0.00    +0.007 C 
ATOM     20  C   UNL     1      -1.005  -2.452   4.582  0.00  0.00    -0.009 C 
ATOM     21  C   UNL     1      -0.021  -1.505   3.892  0.00  0.00    +0.019 C 
ATOM     22  C   UNL     1      -1.535  -3.465   3.566  0.00  0.00    +0.007 C 
ATOM     23  C   UNL     1      -0.368  -4.272   2.993  0.00  0.00    -0.009 C 
ATOM     24  C   UNL     1       0.346  -5.012   4.126  0.00  0.00    +0.007 C 
ATOM     25  C   UNL     1       0.617  -3.325   2.303  0.00  0.00    +0.019 C 
ENDBRANCH  13  16
ENDBRANCH   1  12
BRANCH   1  26
ATOM     26  C   UNL     1       3.711  -0.707  -0.038  0.00  0.00    +0.067 C 
BRANCH  26  30
ATOM     27  C   UNL     1      -0.017   1.378   0.010  0.00  0.00    +0.000 A 
ATOM     28  C   UNL     1       1.171   2.086   0.002  0.00  0.00    +0.000 A 
ATOM     29  C   UNL     1       2.377   1.411  -0.013  0.00  0.00    +0.004 A 
ATOM     30  C   UNL     1       2.396   0.029  -0.020  0.00  0.00    -0.045 A 
ATOM     31  C   UNL     1       1.208  -0.679  -0.012  0.00  0.00    +0.004 A 
ATOM     32  C   UNL     1       0.002  -0.004   0.002  0.00  0.00    +0.000 A 
ENDBRANCH  26  30
ENDBRANCH   1  26
TORSDOF 7
