REMARK  Name = ZINC63403672
REMARK  12 active torsions:
REMARK  status: ('A' for Active; 'I' for Inactive)
REMARK    1  A    between atoms: C_1  and  C_2
REMARK    2  A    between atoms: C_5  and  C_8
REMARK    3  A    between atoms: C_8  and  C_10
REMARK    4  A    between atoms: C_8  and  N_34
REMARK    5  A    between atoms: C_10  and  C_11
REMARK    6  A    between atoms: N_13  and  C_14
REMARK    7  A    between atoms: C_14  and  C_15
REMARK    8  A    between atoms: C_15  and  C_17
REMARK    9  A    between atoms: C_15  and  C_25
REMARK   10  A    between atoms: C_20  and  O_23
REMARK   11  A    between atoms: O_23  and  C_24
REMARK   12  A    between atoms: C_35  and  C_37
REMARK                            x       y       z     vdW  Elec       q    Type
REMARK                         _______ _______ _______ _____ _____    ______ ____
ROOT
ATOM      1  C   UNL     1      -2.183  -8.640  -0.004  0.00  0.00    +0.116 C 
ENDROOT
BRANCH   1   4
ATOM      2  C   UNL     1      -1.198  -6.412   0.032  0.00  0.00    +0.215 C 
ATOM      3  O   UNL     1      -0.149  -6.902  -0.329  0.00  0.00    -0.276 OA
ATOM      4  N   UNL     1      -2.277  -7.196   0.224  0.00  0.00    -0.314 N 
ATOM      5  H   UNL     1      -3.116  -6.805   0.512  0.00  0.00    +0.149 HD
BRANCH   2   6
ATOM      6  C   UNL     1      -1.295  -4.926   0.266  0.00  0.00    +0.122 C 
BRANCH   6   7
ATOM      7  C   UNL     1       0.059  -4.275  -0.021  0.00  0.00    +0.112 C 
BRANCH   7  12
ATOM      8  C   UNL     1      -0.428   1.466   0.417  0.00  0.00    +0.044 C 
ATOM      9  C   UNL     1      -0.301  -0.031   0.303  0.00  0.00    -0.050 A 
ATOM     10  C   UNL     1      -0.294  -0.813   1.443  0.00  0.00    +0.004 A 
ATOM     11  C   UNL     1      -0.177  -2.187   1.338  0.00  0.00    +0.006 A 
ATOM     12  C   UNL     1      -0.069  -2.778   0.093  0.00  0.00    -0.027 A 
ATOM     13  C   UNL     1      -0.077  -1.996  -1.047  0.00  0.00    +0.006 A 
ATOM     14  C   UNL     1      -0.198  -0.623  -0.942  0.00  0.00    +0.004 A 
ENDBRANCH   7  12
BRANCH   7  15
ATOM     15  N   UNL     1       1.048  -4.756   0.947  0.00  0.00    -0.308 N 
ATOM     16  C   UNL     1       2.356  -4.771   0.624  0.00  0.00    +0.210 C 
ATOM     17  O   UNL     1       2.725  -4.303  -0.432  0.00  0.00    -0.276 OA
ATOM     18  C   UNL     1       3.360  -5.370   1.575  0.00  0.00    +0.109 C 
ATOM     19  H   UNL     1       0.760  -5.064   1.821  0.00  0.00    +0.149 HD
ENDBRANCH   7  15
ENDBRANCH   6   7
ENDBRANCH   2   6
ENDBRANCH   1   4
BRANCH   1  20
ATOM     20  C   UNL     1      -3.537  -9.292   0.283  0.00  0.00    +0.064 C 
BRANCH  20  21
ATOM     21  C   UNL     1      -3.868  -9.139   1.746  0.00  0.00    -0.033 C 
ATOM     22  C   UNL     1      -4.943  -8.513   2.275  0.00  0.00    -0.000 A 
ATOM     23  C   UNL     1      -6.083  -7.812   1.671  0.00  0.00    +0.010 A 
ATOM     24  C   UNL     1      -7.025  -7.274   2.479  0.00  0.00    +0.001 A 
ATOM     25  C   UNL     1      -6.940  -7.367   3.875  0.00  0.00    +0.002 A 
ATOM     26  C   UNL     1      -5.923  -7.995   4.503  0.00  0.00    +0.026 A 
ATOM     27  C   UNL     1      -4.877  -8.598   3.752  0.00  0.00    +0.043 A 
ATOM     28  N   UNL     1      -3.802  -9.252   4.121  0.00  0.00    -0.380 N 
ATOM     29  C   UNL     1      -3.067  -9.661   2.918  0.00  0.00    +0.145 C 
ATOM     30  H   UNL     1      -3.539  -9.438   5.035  0.00  0.00    +0.160 HD
ENDBRANCH  20  21
BRANCH  20  31
ATOM     31  C   UNL     1      -3.475 -10.756  -0.067  0.00  0.00    -0.038 A 
ATOM     32  C   UNL     1      -2.569 -11.581   0.573  0.00  0.00    +0.008 A 
ATOM     33  C   UNL     1      -2.510 -12.924   0.253  0.00  0.00    +0.046 A 
ATOM     34  C   UNL     1      -3.361 -13.444  -0.712  0.00  0.00    +0.120 A 
ATOM     35  C   UNL     1      -4.269 -12.614  -1.353  0.00  0.00    +0.046 A 
ATOM     36  C   UNL     1      -4.327 -11.273  -1.025  0.00  0.00    +0.008 A 
BRANCH  34  37
ATOM     37  O   UNL     1      -3.304 -14.764  -1.029  0.00  0.00    -0.495 OA
ATOM     38  C   UNL     1      -4.209 -15.230  -2.031  0.00  0.00    +0.277 C 
ENDBRANCH  34  37
ENDBRANCH  20  31
ENDBRANCH   1  20
TORSDOF 9
