REMARK  Name = ZINC37021519
REMARK  9 active torsions:
REMARK  status: ('A' for Active; 'I' for Inactive)
REMARK    1  A    between atoms: C_1  and  N_2
REMARK    2  A    between atoms: C_6  and  C_7
REMARK    3  A    between atoms: C_7  and  C_9
REMARK    4  A    between atoms: C_7  and  N_16
REMARK    5  A    between atoms: C_17  and  C_19
REMARK    6  A    between atoms: C_19  and  C_20
REMARK    7  A    between atoms: C_20  and  C_21
REMARK    8  A    between atoms: C_21  and  C_22
REMARK    9  A    between atoms: C_22  and  C_23
REMARK                            x       y       z     vdW  Elec       q    Type
REMARK                         _______ _______ _______ _____ _____    ______ ____
ROOT
ATOM      1  N   UNL     1       1.024  -1.123   3.273  0.00  0.00    -0.302 N 
ATOM      2  C   UNL     1       2.315  -0.733   3.278  0.00  0.00    +0.214 C 
ATOM      3  O   UNL     1       2.652   0.254   2.660  0.00  0.00    -0.276 OA
ATOM      4  H   UNL     1       0.754  -1.913   3.768  0.00  0.00    +0.150 HD
ENDROOT
BRANCH   1   5
ATOM      5  C   UNL     1       0.030  -0.354   2.521  0.00  0.00    +0.169 C 
BRANCH   5   6
ATOM      6  C   UNL     1      -1.334  -0.572   3.123  0.00  0.00    -0.020 A 
ATOM      7  C   UNL     1      -1.701  -1.829   3.566  0.00  0.00    +0.007 A 
ATOM      8  C   UNL     1      -2.952  -2.029   4.119  0.00  0.00    +0.020 A 
ATOM      9  C   UNL     1      -3.837  -0.971   4.229  0.00  0.00    +0.041 A 
ATOM     10  C   UNL     1      -3.469   0.287   3.785  0.00  0.00    +0.020 A 
ATOM     11  C   UNL     1      -2.216   0.487   3.238  0.00  0.00    +0.007 A 
ATOM     12 CL   UNL     1      -5.409  -1.222   4.923  0.00  0.00    -0.084 Cl
ENDBRANCH   5   6
BRANCH   5  18
ATOM     13  C   UNL     1      -0.018   1.461   0.010  0.00  0.00    +0.150 C 
ATOM     14  N   UNL     1       0.002  -0.004   0.002  0.00  0.00    -0.336 N 
ATOM     15  C   UNL     1       0.009  -0.810  -1.104  0.00  0.00    +0.106 A 
ATOM     16  C   UNL     1       0.029  -2.081  -0.660  0.00  0.00    +0.130 A 
ATOM     17  N   UNL     1       0.034  -2.052   0.681  0.00  0.00    -0.238 NA
ATOM     18  C   UNL     1       0.023  -0.811   1.085  0.00  0.00    +0.134 A 
ENDBRANCH   5  18
ENDBRANCH   1   5
BRANCH   2  19
ATOM     19  C   UNL     1       3.338  -1.524   4.052  0.00  0.00    +0.096 C 
BRANCH  19  20
ATOM     20  C   UNL     1       4.713  -0.873   3.893  0.00  0.00    +0.009 C 
BRANCH  20  21
ATOM     21  C   UNL     1       5.752  -1.676   4.678  0.00  0.00    +0.002 C 
BRANCH  21  22
ATOM     22  C   UNL     1       7.127  -1.025   4.519  0.00  0.00    +0.028 C 
BRANCH  22  23
ATOM     23  C   UNL     1       8.165  -1.828   5.305  0.00  0.00    +0.152 C 
ATOM     24  C   UNL     1       9.543  -1.237   5.148  0.00  0.00    +0.120 C 
ATOM     25  C   UNL     1       9.692  -0.049   6.147  0.00  0.00    +0.117 C 
ATOM     26  C   UNL     1       9.459  -0.651   7.531  0.00  0.00    +0.190 C 
ATOM     27  S   UNL     1       7.917  -1.637   7.132  0.00  0.00    -0.025 S 
ATOM     28  O   UNL     1       6.767  -0.836   7.363  0.00  0.00    -0.174 OA
ATOM     29  O   UNL     1       8.019  -2.913   7.750  0.00  0.00    -0.174 OA
ATOM     30  N   UNL     1      10.993   0.435   5.743  0.00  0.00    -0.293 N 
ATOM     31  C   UNL     1      11.069   0.196   4.400  0.00  0.00    +0.300 C 
ATOM     32  O   UNL     1      11.911   0.690   3.675  0.00  0.00    -0.253 OA
ATOM     33  N   UNL     1      10.089  -0.641   3.964  0.00  0.00    -0.293 N 
ATOM     34  H   UNL     1      11.669   0.842   6.307  0.00  0.00    +0.151 HD
ATOM     35  H   UNL     1       9.824  -0.803   3.045  0.00  0.00    +0.151 HD
ENDBRANCH  22  23
ENDBRANCH  21  22
ENDBRANCH  20  21
ENDBRANCH  19  20
ENDBRANCH   2  19
TORSDOF 8
