REMARK  Name = ZINC05343877
REMARK  6 active torsions:
REMARK  status: ('A' for Active; 'I' for Inactive)
REMARK    1  A    between atoms: C_4  and  O_33
REMARK    2  A    between atoms: C_5  and  C_7
REMARK    3  A    between atoms: N_15  and  C_25
REMARK    4  A    between atoms: C_16  and  C_18
REMARK    5  A    between atoms: C_21  and  O_24
REMARK    6  A    between atoms: C_25  and  C_26
REMARK                            x       y       z     vdW  Elec       q    Type
REMARK                         _______ _______ _______ _____ _____    ______ ____
ROOT
ATOM      1  C   UNL     1       1.397  -2.432  -0.152  0.00  0.00    +0.075 A 
ATOM      2  C   UNL     1       1.722  -3.125   0.970  0.00  0.00    +0.035 A 
ATOM      3  C   UNL     1       1.585  -4.491   0.637  0.00  0.00    +0.153 A 
ATOM      4  N   UNL     1       1.199  -4.543  -0.622  0.00  0.00    -0.168 NA
ATOM      5  N   UNL     1       1.076  -3.358  -1.104  0.00  0.00    -0.276 N 
ATOM      6  H   UNL     1       0.798  -3.151  -2.010  0.00  0.00    +0.189 HD
ATOM      7  C   UNL     1       1.929  -5.284   1.831  0.00  0.00    +0.268 C 
ATOM      8  O   UNL     1       1.915  -6.499   1.885  0.00  0.00    -0.268 OA
ATOM      9  N   UNL     1       2.261  -4.476   2.852  0.00  0.00    -0.281 N 
ATOM     10  C   UNL     1       2.162  -3.081   2.408  0.00  0.00    +0.142 C 
ENDROOT
BRANCH   1  15
ATOM     11  C   UNL     1       2.266   1.028  -1.329  0.00  0.00    +0.001 A 
ATOM     12  C   UNL     1       1.367   1.795  -0.609  0.00  0.00    +0.004 A 
ATOM     13  C   UNL     1       0.477   1.194   0.261  0.00  0.00    +0.046 A 
ATOM     14  C   UNL     1       0.479  -0.182   0.415  0.00  0.00    +0.126 A 
ATOM     15  C   UNL     1       1.386  -0.961  -0.311  0.00  0.00    +0.042 A 
ATOM     16  C   UNL     1       2.280  -0.344  -1.185  0.00  0.00    +0.013 A 
BRANCH  14  17
ATOM     17  O   UNL     1      -0.396  -0.774   1.270  0.00  0.00    -0.506 OA
ATOM     18  H   UNL     1      -1.266  -0.948   0.884  0.00  0.00    +0.292 HD
ENDBRANCH  14  17
ENDBRANCH   1  15
BRANCH  10  19
ATOM     19  C   UNL     1       3.505  -2.406   2.517  0.00  0.00    -0.022 A 
ATOM     20  C   UNL     1       4.629  -3.015   1.990  0.00  0.00    +0.009 A 
ATOM     21  C   UNL     1       5.861  -2.398   2.090  0.00  0.00    +0.046 A 
ATOM     22  C   UNL     1       5.970  -1.166   2.719  0.00  0.00    +0.117 A 
ATOM     23  C   UNL     1       4.841  -0.557   3.246  0.00  0.00    +0.046 A 
ATOM     24  C   UNL     1       3.610  -1.175   3.139  0.00  0.00    +0.009 A 
BRANCH  22  25
ATOM     25  O   UNL     1       7.181  -0.558   2.818  0.00  0.00    -0.507 OA
ATOM     26  H   UNL     1       7.391   0.024   2.075  0.00  0.00    +0.292 HD
ENDBRANCH  22  25
ENDBRANCH  10  19
BRANCH   9  27
ATOM     27  C   UNL     1       2.658  -4.916   4.192  0.00  0.00    +0.144 C 
BRANCH  27  28
ATOM     28  C   UNL     1       4.153  -5.102   4.237  0.00  0.00    -0.030 A 
ATOM     29  C   UNL     1       4.706  -6.328   3.917  0.00  0.00    +0.008 A 
ATOM     30  C   UNL     1       6.077  -6.500   3.958  0.00  0.00    +0.038 A 
ATOM     31  C   UNL     1       6.896  -5.444   4.320  0.00  0.00    +0.123 A 
ATOM     32  C   UNL     1       6.340  -4.217   4.641  0.00  0.00    +0.038 A 
ATOM     33  C   UNL     1       4.970  -4.046   4.594  0.00  0.00    +0.008 A 
ATOM     34  F   UNL     1       8.236  -5.611   4.361  0.00  0.00    -0.205 F 
ENDBRANCH  27  28
ENDBRANCH   9  27
TORSDOF 6
