REMARK  Name = ZINC36612550
REMARK  9 active torsions:
REMARK  status: ('A' for Active; 'I' for Inactive)
REMARK    1  A    between atoms: C_1  and  C_2
REMARK    2  A    between atoms: C_4  and  C_30
REMARK    3  A    between atoms: C_5  and  N_11
REMARK    4  A    between atoms: C_6  and  N_8
REMARK    5  A    between atoms: C_12  and  C_14
REMARK    6  A    between atoms: C_14  and  S_15
REMARK    7  A    between atoms: S_15  and  C_16
REMARK    8  A    between atoms: C_18  and  C_21
REMARK    9  A    between atoms: C_22  and  C_23
REMARK                            x       y       z     vdW  Elec       q    Type
REMARK                         _______ _______ _______ _____ _____    ______ ____
ROOT
ATOM      1  C   UNL     1      -0.505  -6.371   0.813  0.00  0.00    +0.173 C 
ENDROOT
BRANCH   1   3
ATOM      2  N   UNL     1      -0.288  -4.143  -0.239  0.00  0.00    -0.283 N 
ATOM      3  C   UNL     1      -0.247  -4.888   0.883  0.00  0.00    +0.228 C 
ATOM      4  O   UNL     1      -0.002  -4.365   1.950  0.00  0.00    -0.275 OA
ATOM      5  H   UNL     1      -0.404  -4.572  -1.101  0.00  0.00    +0.155 HD
BRANCH   2  10
ATOM      6  C   UNL     1       0.214   1.499   0.081  0.00  0.00    +0.044 C 
ATOM      7  C   UNL     1       0.081   0.000  -0.004  0.00  0.00    -0.048 A 
ATOM      8  C   UNL     1       1.072  -0.812   0.516  0.00  0.00    +0.008 A 
ATOM      9  C   UNL     1       0.953  -2.185   0.440  0.00  0.00    -0.027 A 
ATOM     10  C   UNL     1      -0.164  -2.752  -0.160  0.00  0.00    +0.067 A 
ATOM     11  C   UNL     1      -1.158  -1.934  -0.681  0.00  0.00    +0.148 A 
ATOM     12  C   UNL     1      -1.035  -0.561  -0.597  0.00  0.00    +0.038 A 
ATOM     13  C   UNL     1       2.034  -3.069   1.007  0.00  0.00    +0.046 C 
BRANCH  11  14
ATOM     14  N   UNL     1      -2.351  -2.533  -1.321  0.00  0.00    +0.058 N 
ATOM     15  O   UNL     1      -3.170  -1.824  -1.858  0.00  0.00    -0.126 OA
ATOM     16  O   UNL     1      -2.506  -3.732  -1.306  0.00  0.00    -0.126 OA
ENDBRANCH  11  14
ENDBRANCH   2  10
ENDBRANCH   1   3
BRANCH   1  17
ATOM     17  S   UNL     1      -0.380  -7.086   2.476  0.00  0.00    -0.075 S 
BRANCH  17  18
ATOM     18  C   UNL     1      -0.703  -8.801   2.228  0.00  0.00    +0.209 A 
ATOM     19  N   UNL     1      -0.722  -9.729   3.185  0.00  0.00    -0.202 NA
ATOM     20  C   UNL     1      -0.997 -10.909   2.656  0.00  0.00    +0.150 A 
ATOM     21  N   UNL     1      -1.159 -10.735   1.316  0.00  0.00    -0.258 N 
ATOM     22  N   UNL     1      -0.968  -9.365   1.072  0.00  0.00    -0.145 NA
ATOM     23  H   UNL     1      -1.368 -11.419   0.661  0.00  0.00    +0.191 HD
BRANCH  20  24
ATOM     24  C   UNL     1      -1.107 -12.179   3.383  0.00  0.00    +0.048 C 
ATOM     25  C   UNL     1      -0.921 -12.209   4.716  0.00  0.00    +0.011 C 
BRANCH  25  26
ATOM     26  C   UNL     1      -1.032 -13.483   5.446  0.00  0.00    -0.025 A 
ATOM     27  C   UNL     1      -1.323 -14.664   4.756  0.00  0.00    +0.011 A 
ATOM     28  C   UNL     1      -1.425 -15.854   5.445  0.00  0.00    +0.039 A 
ATOM     29  C   UNL     1      -1.240 -15.881   6.819  0.00  0.00    +0.123 A 
ATOM     30  C   UNL     1      -0.951 -14.713   7.508  0.00  0.00    +0.039 A 
ATOM     31  C   UNL     1      -0.840 -13.518   6.830  0.00  0.00    +0.011 A 
ATOM     32  F   UNL     1      -1.341 -17.050   7.489  0.00  0.00    -0.205 F 
ENDBRANCH  25  26
ENDBRANCH  20  24
ENDBRANCH  17  18
ENDBRANCH   1  17
TORSDOF 7
