REMARK  Name = ZINC21509600
REMARK  9 active torsions:
REMARK  status: ('A' for Active; 'I' for Inactive)
REMARK    1  A    between atoms: C_1  and  C_2
REMARK    2  A    between atoms: C_2  and  CA_3
REMARK    3  A    between atoms: CA_3  and  C_5
REMARK    4  A    between atoms: CA_3  and  N_7
REMARK    5  A    between atoms: C_5  and  O_6
REMARK    6  A    between atoms: N_7  and  C_8
REMARK    7  A    between atoms: C_8  and  C_10
REMARK    8  A    between atoms: C_8  and  C_17
REMARK    9  A    between atoms: C_13  and  O_16
REMARK                            x       y       z     vdW  Elec       q    Type
REMARK                         _______ _______ _______ _____ _____    ______ ____
ROOT
ATOM      1  C   UNL     1      -0.273  -0.099   0.033  0.00  0.00    -0.010 C 
ENDROOT
BRANCH   1   2
ATOM      2  C   UNL     1      -0.504   1.391   0.033  0.00  0.00    -0.057 A 
ATOM      3  C   UNL     1      -1.791   1.890  -0.030  0.00  0.00    +0.004 A 
ATOM      4  C   UNL     1      -2.004   3.256  -0.025  0.00  0.00    +0.020 A 
ATOM      5  C   UNL     1      -0.927   4.123   0.033  0.00  0.00    +0.041 A 
ATOM      6  C   UNL     1       0.361   3.622   0.091  0.00  0.00    +0.020 A 
ATOM      7  C   UNL     1       0.572   2.256   0.091  0.00  0.00    +0.004 A 
ATOM      8 CL   UNL     1      -1.193   5.839   0.034  0.00  0.00    -0.084 Cl
ENDBRANCH   1   2
BRANCH   1   9
ATOM      9  C   UNL     1      -0.586  -0.656   1.398  0.00  0.00    -0.057 A 
ATOM     10  C   UNL     1      -1.901  -0.843   1.782  0.00  0.00    +0.006 A 
ATOM     11  C   UNL     1      -2.191  -1.359   3.030  0.00  0.00    +0.045 A 
ATOM     12  C   UNL     1      -1.161  -1.677   3.904  0.00  0.00    +0.117 A 
ATOM     13  C   UNL     1       0.157  -1.483   3.518  0.00  0.00    +0.045 A 
ATOM     14  C   UNL     1       0.442  -0.973   2.267  0.00  0.00    +0.006 A 
BRANCH  12  15
ATOM     15  O   UNL     1      -1.444  -2.179   5.135  0.00  0.00    -0.507 OA
ATOM     16  H   UNL     1      -0.627  -2.431   5.827  0.00  0.00    +0.292 HD
ENDBRANCH  12  15
ENDBRANCH   1   9
BRANCH   1  17
ATOM     17  N   UNL     1      -1.146  -0.730  -0.965  0.00  0.00    +0.390 N 
ATOM     18  H1  UNL     1      -2.092  -0.170  -1.010  0.00  0.00    -0.084 HD
ATOM     19  H2  UNL     1      -1.347  -1.765  -0.654  0.00  0.00    -0.084 HD
BRANCH  17  20
ATOM     20  CA  UNL     1      -0.515  -0.730  -2.292  0.00  0.00    -0.045 C 
BRANCH  20  22
ATOM     21  C   UNL     1      -2.453   0.456  -3.331  0.00  0.00    +0.002 C 
ATOM     22  C   UNL     1      -1.596  -0.811  -3.371  0.00  0.00    -0.017 C 
ENDBRANCH  20  22
BRANCH  20  23
ATOM     23  C   UNL     1       0.417  -1.937  -2.412  0.00  0.00    +0.140 C 
BRANCH  23  24
ATOM     24  O   UNL     1      -0.351  -3.141  -2.345  0.00  0.00    -0.397 OA
ATOM     25  H   UNL     1       0.150  -4.117  -2.415  0.00  0.00    +0.209 HD
ENDBRANCH  23  24
ENDBRANCH  20  23
ENDBRANCH  17  20
ENDBRANCH   1  17
TORSDOF 8
