REMARK  Name = ZINC67181442
REMARK  6 active torsions:
REMARK  status: ('A' for Active; 'I' for Inactive)
REMARK    1  A    between atoms: C_1  and  C_2
REMARK    2  A    between atoms: C_6  and  C_7
REMARK    3  A    between atoms: N_9  and  N_10
REMARK    4  A    between atoms: C_11  and  C_13
REMARK    5  A    between atoms: C_15  and  S_20
REMARK    6  A    between atoms: S_20  and  N_23
REMARK                            x       y       z     vdW  Elec       q    Type
REMARK                         _______ _______ _______ _____ _____    ______ ____
ROOT
ATOM      1  N   UNL     1       0.059  -0.732   4.900  0.00  0.00    -0.230 N 
ATOM      2  C   UNL     1       0.081  -1.625   5.909  0.00  0.00    +0.262 C 
ATOM      3  O   UNL     1       0.094  -2.816   5.667  0.00  0.00    -0.269 OA
ATOM      4  H   UNL     1       0.048   0.219   5.094  0.00  0.00    +0.173 HD
ENDROOT
BRANCH   2   5
ATOM      5  C   UNL     1       0.088  -1.156   7.311  0.00  0.00    +0.058 A 
ATOM      6  C   UNL     1       0.067   0.211   7.593  0.00  0.00    +0.043 A 
ATOM      7  C   UNL     1       0.073   0.642   8.903  0.00  0.00    +0.106 A 
ATOM      8  C   UNL     1       0.101  -0.277   9.938  0.00  0.00    +0.030 A 
ATOM      9  C   UNL     1       0.123  -1.633   9.666  0.00  0.00    +0.022 A 
ATOM     10  C   UNL     1       0.111  -2.079   8.359  0.00  0.00    +0.053 A 
ATOM     11 CL   UNL     1       0.131  -3.781   8.020  0.00  0.00    -0.083 Cl
BRANCH   7  12
ATOM     12  S   UNL     1       0.046   2.367   9.261  0.00  0.00    +0.056 S 
ATOM     13  O   UNL     1       0.609   2.522  10.557  0.00  0.00    -0.153 OA
ATOM     14  O   UNL     1       0.573   3.027   8.118  0.00  0.00    -0.153 OA
BRANCH  12  15
ATOM     15  N   UNL     1      -1.543   2.818   9.377  0.00  0.00    -0.204 NA
ATOM     16  H   UNL     1      -1.798   3.549   9.962  0.00  0.00    +0.144 HD
ATOM     17  H   UNL     1      -2.218   2.351   8.861  0.00  0.00    +0.144 HD
ENDBRANCH  12  15
ENDBRANCH   7  12
ENDBRANCH   2   5
BRANCH   1  20
ATOM     18  C   UNL     1       0.031  -0.283   2.562  0.00  0.00    +0.267 C 
ATOM     19  O   UNL     1       0.017   0.910   2.805  0.00  0.00    -0.268 OA
ATOM     20  N   UNL     1       0.052  -1.176   3.571  0.00  0.00    -0.230 N 
ATOM     21  H   UNL     1       0.063  -2.126   3.378  0.00  0.00    +0.173 HD
BRANCH  18  27
ATOM     22  C   UNL     1      -0.018   1.503   0.010  0.00  0.00    +0.045 C 
ATOM     23  C   UNL     1       0.002  -0.004   0.002  0.00  0.00    -0.031 A 
ATOM     24  C   UNL     1       0.007  -0.729  -1.166  0.00  0.00    +0.011 A 
ATOM     25  C   UNL     1       0.025  -2.083  -1.101  0.00  0.00    +0.046 A 
ATOM     26  S   UNL     1       0.037  -2.416   0.545  0.00  0.00    -0.092 S 
ATOM     27  C   UNL     1       0.023  -0.748   1.172  0.00  0.00    +0.078 A 
ENDBRANCH  18  27
ENDBRANCH   1  20
TORSDOF 5
