REMARK  Name = ZINC39677299
REMARK  7 active torsions:
REMARK  status: ('A' for Active; 'I' for Inactive)
REMARK    1  A    between atoms: C_1  and  C_2
REMARK    2  A    between atoms: C_6  and  C_7
REMARK    3  A    between atoms: C_7  and  N_8
REMARK    4  A    between atoms: C_9  and  C_11
REMARK    5  A    between atoms: C_22  and  C_24
REMARK    6  A    between atoms: C_27  and  O_30
REMARK    7  A    between atoms: O_30  and  C_31
REMARK                            x       y       z     vdW  Elec       q    Type
REMARK                         _______ _______ _______ _____ _____    ______ ____
ROOT
ATOM      1  C   UNL     1      -4.008   0.323   4.605  0.00  0.00    +0.100 C 
ATOM      2  C   UNL     1      -4.423  -1.165   4.590  0.00  0.00    +0.121 C 
ATOM      3  N   UNL     1      -4.144  -1.645   5.965  0.00  0.00    -0.296 N 
ATOM      4  C   UNL     1      -4.554  -0.520   6.838  0.00  0.00    +0.115 C 
ATOM      5  C   UNL     1      -4.099   0.744   6.082  0.00  0.00    -0.004 C 
ATOM      6  C   UNL     1      -5.127   1.859   6.250  0.00  0.00    -0.010 C 
ATOM      7  C   UNL     1      -5.157   2.301   7.716  0.00  0.00    -0.082 C 
ATOM      8  N   UNL     1      -3.825   2.771   8.116  0.00  0.00    +0.379 N 
ATOM      9  C   UNL     1      -2.861   1.666   8.039  0.00  0.00    -0.082 C 
ATOM     10  C   UNL     1      -2.733   1.198   6.587  0.00  0.00    -0.010 C 
ATOM     11  C   UNL     1      -3.634  -2.836   6.336  0.00  0.00    +0.248 C 
ATOM     12  O   UNL     1      -3.223  -3.611   5.494  0.00  0.00    -0.270 OA
ATOM     13  H   UNL     1      -3.533   3.514   7.499  0.00  0.00    -0.086 HD
ATOM     14  H   UNL     1      -3.863   3.118   9.063  0.00  0.00    -0.086 HD
ENDROOT
BRANCH  11  15
ATOM     15  C   UNL     1      -3.573  -3.199   7.766  0.00  0.00    +0.055 A 
ATOM     16  C   UNL     1      -4.386  -2.542   8.702  0.00  0.00    +0.020 A 
ATOM     17  C   UNL     1      -4.293  -2.917  10.027  0.00  0.00    +0.068 A 
ATOM     18  C   UNL     1      -3.405  -3.926  10.388  0.00  0.00    +0.220 A 
ATOM     19  N   UNL     1      -2.651  -4.527   9.480  0.00  0.00    -0.220 NA
ATOM     20  C   UNL     1      -2.712  -4.205   8.205  0.00  0.00    +0.127 A 
BRANCH  18  21
ATOM     21  O   UNL     1      -3.310  -4.298  11.687  0.00  0.00    -0.438 OA
BRANCH  21  22
ATOM     22  C   UNL     1      -2.506  -5.350  11.992  0.00  0.00    +0.130 A 
ATOM     23  C   UNL     1      -1.131  -5.176  12.067  0.00  0.00    +0.046 A 
ATOM     24  C   UNL     1      -0.316  -6.247  12.377  0.00  0.00    +0.004 A 
ATOM     25  C   UNL     1      -0.869  -7.492  12.613  0.00  0.00    +0.000 A 
ATOM     26  C   UNL     1      -2.238  -7.669  12.540  0.00  0.00    +0.004 A 
ATOM     27  C   UNL     1      -3.058  -6.600  12.236  0.00  0.00    +0.046 A 
ENDBRANCH  21  22
ENDBRANCH  18  21
ENDBRANCH  11  15
BRANCH   1  29
ATOM     28  N   UNL     1      -2.213   1.632   3.518  0.00  0.00    -0.310 N 
ATOM     29  C   UNL     1      -2.596   0.479   4.101  0.00  0.00    +0.218 C 
ATOM     30  O   UNL     1      -1.805  -0.432   4.221  0.00  0.00    -0.275 OA
ATOM     31  H   UNL     1      -2.845   2.361   3.422  0.00  0.00    +0.149 HD
BRANCH  28  32
ATOM     32  C   UNL     1      -0.840   1.784   3.028  0.00  0.00    +0.147 C 
BRANCH  32  38
ATOM     33  C   UNL     1       0.050   4.335   4.490  0.00  0.00    +0.044 C 
ATOM     34  C   UNL     1      -0.283   4.308   3.020  0.00  0.00    -0.039 A 
ATOM     35  C   UNL     1      -0.191   5.458   2.259  0.00  0.00    +0.011 A 
ATOM     36  C   UNL     1      -0.497   5.399   0.940  0.00  0.00    +0.046 A 
ATOM     37  S   UNL     1      -0.933   3.680   0.738  0.00  0.00    -0.100 S 
ATOM     38  C   UNL     1      -0.671   3.154   2.424  0.00  0.00    +0.010 A 
ENDBRANCH  32  38
ENDBRANCH  28  32
ENDBRANCH   1  29
TORSDOF 6
