REMARK  Name = ZINC00720342
REMARK  7 active torsions:
REMARK  status: ('A' for Active; 'I' for Inactive)
REMARK    1  A    between atoms: C_1  and  C_2
REMARK    2  A    between atoms: C_3  and  C_12
REMARK    3  A    between atoms: C_12  and  C_13
REMARK    4  A    between atoms: C_13  and  N_14
REMARK    5  A    between atoms: C_23  and  C_33
REMARK    6  A    between atoms: C_23  and  C_37
REMARK    7  A    between atoms: C_25  and  C_27
REMARK                            x       y       z     vdW  Elec       q    Type
REMARK                         _______ _______ _______ _____ _____    ______ ____
ROOT
ATOM      1  N   UNL     1       0.782  -0.565  -4.209  0.00  0.00    -0.281 N 
ATOM      2  C   UNL     1       1.096  -1.164  -5.403  0.00  0.00    +0.119 A 
ATOM      3  C   UNL     1       1.072  -0.433  -6.554  0.00  0.00    +0.100 A 
ATOM      4  C   UNL     1       0.716   0.925  -6.491  0.00  0.00    +0.262 A 
ATOM      5  O   UNL     1       0.681   1.599  -7.506  0.00  0.00    -0.267 OA
ATOM      6  N   UNL     1       0.413   1.476  -5.299  0.00  0.00    -0.275 N 
ATOM      7  H   UNL     1       0.167   2.413  -5.251  0.00  0.00    +0.173 HD
ATOM      8  C   UNL     1       0.443   0.738  -4.174  0.00  0.00    +0.331 A 
ATOM      9  O   UNL     1       0.163   1.256  -3.110  0.00  0.00    -0.246 OA
ATOM     10  C   UNL     1       1.426  -1.064  -7.870  0.00  0.00    +0.285 C 
ATOM     11  N   UNL     1       1.399  -2.519  -7.784  0.00  0.00    -0.239 NA
ATOM     12  C   UNL     1       1.405  -3.160  -6.661  0.00  0.00    +0.128 C 
ATOM     13  N   UNL     1       1.431  -2.497  -5.451  0.00  0.00    -0.285 N 
ATOM     14  H   UNL     1       1.683  -2.967  -4.641  0.00  0.00    +0.155 HD
ENDROOT
BRANCH  12  15
ATOM     15  C   UNL     1       1.384  -4.641  -6.674  0.00  0.00    +0.015 A 
ATOM     16  C   UNL     1       1.385  -5.351  -5.474  0.00  0.00    +0.011 A 
ATOM     17  C   UNL     1       1.364  -6.731  -5.492  0.00  0.00    +0.001 A 
ATOM     18  C   UNL     1       1.344  -7.409  -6.698  0.00  0.00    +0.000 A 
ATOM     19  C   UNL     1       1.344  -6.710  -7.891  0.00  0.00    +0.001 A 
ATOM     20  C   UNL     1       1.358  -5.330  -7.886  0.00  0.00    +0.011 A 
ENDBRANCH  12  15
BRANCH  10  21
ATOM     21  C   UNL     1       0.423  -0.606  -8.931  0.00  0.00    +0.428 C 
ATOM     22  F   UNL     1       0.712   0.710  -9.308  0.00  0.00    -0.167 F 
ATOM     23  F   UNL     1       0.513  -1.442 -10.049  0.00  0.00    -0.167 F 
ATOM     24  F   UNL     1      -0.872  -0.668  -8.406  0.00  0.00    -0.167 F 
ENDBRANCH  10  21
BRANCH  10  25
ATOM     25  C   UNL     1       2.829  -0.613  -8.281  0.00  0.00    +0.428 C 
ATOM     26  F   UNL     1       3.751  -1.010  -7.306  0.00  0.00    -0.167 F 
ATOM     27  F   UNL     1       3.167  -1.197  -9.507  0.00  0.00    -0.167 F 
ATOM     28  F   UNL     1       2.853   0.780  -8.406  0.00  0.00    -0.167 F 
ENDBRANCH  10  25
BRANCH   1  29
ATOM     29  C   UNL     1       0.811  -1.346  -2.970  0.00  0.00    +0.133 C 
BRANCH  29  30
ATOM     30  C   UNL     1      -0.564  -1.973  -2.731  0.00  0.00    +0.059 C 
BRANCH  30  33
ATOM     31  C   UNL     1      -1.230  -0.917   0.111  0.00  0.00    +0.063 C 
ATOM     32  C   UNL     1      -0.821  -2.329  -0.223  0.00  0.00    +0.017 A 
ATOM     33  C   UNL     1      -0.534  -2.776  -1.456  0.00  0.00    -0.018 A 
ATOM     34  C   UNL     1      -0.188  -4.194  -1.327  0.00  0.00    +0.003 A 
ATOM     35  C   UNL     1       0.194  -5.186  -2.232  0.00  0.00    +0.010 A 
ATOM     36  C   UNL     1       0.457  -6.449  -1.783  0.00  0.00    +0.001 A 
ATOM     37  C   UNL     1       0.347  -6.755  -0.433  0.00  0.00    +0.002 A 
ATOM     38  C   UNL     1      -0.027  -5.791   0.477  0.00  0.00    +0.026 A 
ATOM     39  C   UNL     1      -0.300  -4.498   0.042  0.00  0.00    +0.047 A 
ATOM     40  N   UNL     1      -0.681  -3.342   0.685  0.00  0.00    -0.358 N 
ATOM     41  H   UNL     1      -0.831  -3.259   1.640  0.00  0.00    +0.166 HD
ENDBRANCH  30  33
ENDBRANCH  29  30
ENDBRANCH   1  29
TORSDOF 6
