REMARK  Name = ZINC39635358
REMARK  6 active torsions:
REMARK  status: ('A' for Active; 'I' for Inactive)
REMARK    1  A    between atoms: C_1  and  C_2
REMARK    2  A    between atoms: C_2  and  N_3
REMARK    3  A    between atoms: C_4  and  C_10
REMARK    4  A    between atoms: C_6  and  C_8
REMARK    5  A    between atoms: C_14  and  C_23
REMARK    6  A    between atoms: N_25  and  C_26
REMARK                            x       y       z     vdW  Elec       q    Type
REMARK                         _______ _______ _______ _____ _____    ______ ____
ROOT
ATOM      1  C   UNL     1      -2.427  -0.329  -3.059  0.00  0.00    +0.266 C 
ATOM      2  O   UNL     1      -3.137  -0.554  -4.021  0.00  0.00    -0.268 OA
ATOM      3  N   UNL     1      -2.978   0.044  -1.887  0.00  0.00    -0.295 N 
ATOM      4  C   UNL     1      -2.295   0.257  -0.589  0.00  0.00    +0.121 C 
ATOM      5  C   UNL     1      -2.986   1.499   0.016  0.00  0.00    +0.100 C 
ATOM      6  C   UNL     1      -4.370   1.544  -0.653  0.00  0.00    -0.004 C 
ATOM      7  C   UNL     1      -4.403   0.341  -1.607  0.00  0.00    +0.115 C 
ATOM      8  C   UNL     1      -4.535   2.839  -1.442  0.00  0.00    -0.010 C 
ATOM      9  C   UNL     1      -5.939   2.886  -2.050  0.00  0.00    -0.082 C 
ATOM     10  N   UNL     1      -6.941   2.810  -0.980  0.00  0.00    +0.379 N 
ATOM     11  C   UNL     1      -6.836   1.521  -0.286  0.00  0.00    -0.082 C 
ATOM     12  C   UNL     1      -5.469   1.417   0.397  0.00  0.00    -0.010 C 
ATOM     13  H   UNL     1      -6.785   3.559  -0.322  0.00  0.00    -0.086 HD
ATOM     14  H   UNL     1      -7.863   2.902  -1.378  0.00  0.00    -0.086 HD
ENDROOT
BRANCH   1  16
ATOM     15  N   UNL     1      -0.215  -1.555  -2.833  0.00  0.00    -0.258 N 
ATOM     16  C   UNL     1      -0.967  -0.466  -3.175  0.00  0.00    +0.138 A 
ATOM     17  C   UNL     1      -0.079   0.483  -3.653  0.00  0.00    +0.071 A 
ATOM     18  C   UNL     1       1.182  -0.113  -3.565  0.00  0.00    +0.075 A 
ATOM     19  N   UNL     1       1.025  -1.313  -3.067  0.00  0.00    -0.175 NA
ATOM     20  C   UNL     1       2.491   0.516  -3.966  0.00  0.00    +0.069 C 
ATOM     21 BR   UNL     1      -0.485   2.216  -4.291  0.00  0.00    -0.046 Br
BRANCH  15  23
ATOM     22  C   UNL     1      -0.630  -2.771  -0.752  0.00  0.00    +0.029 C 
ATOM     23  C   UNL     1      -0.741  -2.804  -2.278  0.00  0.00    +0.141 C 
ENDBRANCH  15  23
ENDBRANCH   1  16
BRANCH   5  24
ATOM     24  C   UNL     1      -2.204   2.746  -0.309  0.00  0.00    +0.218 C 
ATOM     25  O   UNL     1      -1.551   2.803  -1.329  0.00  0.00    -0.275 OA
ATOM     26  N   UNL     1      -2.229   3.796   0.535  0.00  0.00    -0.312 N 
ATOM     27  H   UNL     1      -2.692   3.725   1.385  0.00  0.00    +0.149 HD
BRANCH  26  28
ATOM     28  C   UNL     1      -1.558   5.046   0.169  0.00  0.00    +0.073 C 
ATOM     29  C   UNL     1      -2.524   6.157  -0.274  0.00  0.00    +0.022 C 
ATOM     30  C   UNL     1      -2.603   6.570   1.205  0.00  0.00    +0.004 C 
ATOM     31  C   UNL     1      -1.213   5.936   1.375  0.00  0.00    +0.022 C 
ENDBRANCH  26  28
ENDBRANCH   5  24
TORSDOF 4
