REMARK  Name = ZINC39362942
REMARK  6 active torsions:
REMARK  status: ('A' for Active; 'I' for Inactive)
REMARK    1  A    between atoms: C_3  and  C_7
REMARK    2  A    between atoms: C_7  and  S_8
REMARK    3  A    between atoms: S_8  and  C_9
REMARK    4  A    between atoms: C_12  and  C_22
REMARK    5  A    between atoms: N_14  and  C_15
REMARK    6  A    between atoms: C_22  and  C_23
REMARK                            x       y       z     vdW  Elec       q    Type
REMARK                         _______ _______ _______ _____ _____    ______ ____
ROOT
ATOM      1  C   UNL     1       5.811   3.118   1.504  0.00  0.00    +0.180 C 
ATOM      2  N   UNL     1       6.338   3.426   0.368  0.00  0.00    -0.162 NA
ATOM      3  N   UNL     1       7.548   4.111   0.533  0.00  0.00    -0.246 N 
ATOM      4  C   UNL     1       7.763   4.220   1.986  0.00  0.00    +0.187 C 
ATOM      5  N   UNL     1       6.586   3.555   2.569  0.00  0.00    -0.258 N 
ATOM      6  H   UNL     1       8.129   4.445  -0.169  0.00  0.00    +0.170 HD
ENDROOT
BRANCH   5   7
ATOM      7  C   UNL     1       6.305   3.393   3.930  0.00  0.00    +0.038 A 
ATOM      8  C   UNL     1       7.117   2.584   4.716  0.00  0.00    +0.026 A 
ATOM      9  C   UNL     1       6.838   2.426   6.059  0.00  0.00    +0.040 A 
ATOM     10  C   UNL     1       5.750   3.072   6.622  0.00  0.00    +0.124 A 
ATOM     11  C   UNL     1       4.940   3.878   5.841  0.00  0.00    +0.040 A 
ATOM     12  C   UNL     1       5.218   4.044   4.498  0.00  0.00    +0.026 A 
ATOM     13  F   UNL     1       5.479   2.915   7.937  0.00  0.00    -0.205 F 
ENDBRANCH   5   7
BRANCH   1  14
ATOM     14  S   UNL     1       4.286   2.252   1.683  0.00  0.00    -0.084 S 
BRANCH  14  15
ATOM     15  C   UNL     1       3.749   1.952  -0.023  0.00  0.00    +0.113 C 
BRANCH  15  18
ATOM     16  C   UNL     1       0.057   1.175   0.001  0.00  0.00    +0.020 A 
ATOM     17  C   UNL     1       1.238   1.901  -0.007  0.00  0.00    +0.007 A 
ATOM     18  C   UNL     1       2.439   1.208  -0.014  0.00  0.00    -0.019 A 
ATOM     19  C   UNL     1       2.418  -0.174  -0.013  0.00  0.00    +0.115 A 
ATOM     20  N   UNL     1       1.276  -0.832  -0.006  0.00  0.00    -0.263 NA
ATOM     21  C   UNL     1       0.115  -0.205   0.001  0.00  0.00    +0.111 A 
ENDBRANCH  15  18
ENDBRANCH  14  15
ENDBRANCH   1  14
BRANCH   4  22
ATOM     22  C   UNL     1       7.813   5.689   2.412  0.00  0.00    +0.097 C 
BRANCH  22  23
ATOM     23  C   UNL     1       8.966   6.372   1.724  0.00  0.00    +0.029 A 
ATOM     24  N   UNL     1      10.224   6.306   2.260  0.00  0.00    -0.311 N 
ATOM     25  C   UNL     1      11.260   6.913   1.653  0.00  0.00    +0.327 A 
ATOM     26  O   UNL     1      12.369   6.841   2.147  0.00  0.00    -0.247 OA
ATOM     27  N   UNL     1      11.087   7.597   0.508  0.00  0.00    -0.275 N 
ATOM     28  C   UNL     1       9.864   7.686  -0.052  0.00  0.00    +0.254 A 
ATOM     29  O   UNL     1       9.706   8.306  -1.089  0.00  0.00    -0.268 OA
ATOM     30  C   UNL     1       8.765   7.049   0.573  0.00  0.00    +0.091 A 
ATOM     31  H   UNL     1      11.845   8.029   0.083  0.00  0.00    +0.173 HD
ATOM     32  H   UNL     1      10.369   5.817   3.085  0.00  0.00    +0.170 HD
ENDBRANCH  22  23
ENDBRANCH   4  22
TORSDOF 6
