REMARK  Name = ZINC08962185
REMARK  8 active torsions:
REMARK  status: ('A' for Active; 'I' for Inactive)
REMARK    1  A    between atoms: C_1  and  C_2
REMARK    2  A    between atoms: C_2  and  C_3
REMARK    3  A    between atoms: C_10  and  N_16
REMARK    4  A    between atoms: N_16  and  S_17
REMARK    5  A    between atoms: S_17  and  C_20
REMARK    6  A    between atoms: C_23  and  N_26
REMARK    7  A    between atoms: C_27  and  C_29
REMARK    8  A    between atoms: C_29  and  C_30
REMARK                            x       y       z     vdW  Elec       q    Type
REMARK                         _______ _______ _______ _____ _____    ______ ____
ROOT
ATOM      1  N   UNL     1      -0.013  -3.620  -1.676  0.00  0.00    -0.216 N 
ATOM      2  H   UNL     1      -0.252  -3.284  -2.554  0.00  0.00    +0.174 HD
ENDROOT
BRANCH   1   9
ATOM      3  C   UNL     1      -0.785   1.595   1.255  0.00  0.00    +0.110 C 
ATOM      4  C   UNL     1      -0.018   1.119   2.481  0.00  0.00    +0.251 C 
ATOM      5  O   UNL     1      -0.226  -0.267   2.723  0.00  0.00    -0.489 OA
ATOM      6  C   UNL     1      -0.166  -1.100   1.653  0.00  0.00    +0.133 A 
ATOM      7  C   UNL     1       0.925  -1.929   1.457  0.00  0.00    +0.048 A 
ATOM      8  C   UNL     1       0.972  -2.761   0.356  0.00  0.00    +0.028 A 
ATOM      9  C   UNL     1      -0.072  -2.774  -0.563  0.00  0.00    +0.049 A 
ATOM     10  C   UNL     1      -1.171  -1.950  -0.380  0.00  0.00    +0.041 A 
ATOM     11  C   UNL     1      -1.224  -1.110   0.731  0.00  0.00    +0.080 A 
ATOM     12  C   UNL     1      -2.380  -0.222   0.960  0.00  0.00    +0.248 C 
ATOM     13  O   UNL     1      -3.515  -0.651   0.876  0.00  0.00    -0.270 OA
ATOM     14  N   UNL     1      -2.155   1.078   1.265  0.00  0.00    -0.305 N 
ATOM     15  H   UNL     1      -2.896   1.662   1.490  0.00  0.00    +0.149 HD
BRANCH   3  17
ATOM     16  C   UNL     1       1.282   1.808  -0.132  0.00  0.00    +0.006 C 
ATOM     17  C   UNL     1      -0.072   1.106  -0.007  0.00  0.00    +0.022 C 
ENDBRANCH   3  17
ENDBRANCH   1   9
BRANCH   1  18
ATOM     18  S   UNL     1       0.467  -5.195  -1.495  0.00  0.00    +0.072 S 
ATOM     19  O   UNL     1       0.399  -5.791  -2.782  0.00  0.00    -0.150 OA
ATOM     20  O   UNL     1       1.665  -5.168  -0.730  0.00  0.00    -0.150 OA
BRANCH  18  21
ATOM     21  C   UNL     1      -0.747  -5.998  -0.502  0.00  0.00    +0.109 A 
ATOM     22  C   UNL     1      -0.610  -6.018   0.874  0.00  0.00    +0.030 A 
ATOM     23  C   UNL     1      -1.562  -6.643   1.655  0.00  0.00    +0.025 A 
ATOM     24  C   UNL     1      -2.652  -7.261   1.057  0.00  0.00    +0.033 A 
ATOM     25  C   UNL     1      -2.784  -7.244  -0.326  0.00  0.00    +0.025 A 
ATOM     26  C   UNL     1      -1.831  -6.612  -1.101  0.00  0.00    +0.030 A 
BRANCH  24  27
ATOM     27  N   UNL     1      -3.616  -7.899   1.845  0.00  0.00    -0.286 N 
ATOM     28  C   UNL     1      -4.225  -9.014   1.394  0.00  0.00    +0.217 C 
ATOM     29  O   UNL     1      -3.869  -9.520   0.351  0.00  0.00    -0.275 OA
ATOM     30  H   UNL     1      -3.846  -7.539   2.716  0.00  0.00    +0.155 HD
BRANCH  28  31
ATOM     31  C   UNL     1      -5.349  -9.631   2.186  0.00  0.00    +0.093 C 
ATOM     32  C   UNL     1      -5.861 -10.877   1.459  0.00  0.00    +0.013 C 
ENDBRANCH  28  31
ENDBRANCH  24  27
ENDBRANCH  18  21
ENDBRANCH   1  18
TORSDOF 6
