REMARK  Name = ZINC14991847
REMARK  9 active torsions:
REMARK  status: ('A' for Active; 'I' for Inactive)
REMARK    1  A    between atoms: C_1  and  C_2
REMARK    2  A    between atoms: C_2  and  O_3
REMARK    3  A    between atoms: O_3  and  C_4
REMARK    4  A    between atoms: C_12  and  C_14
REMARK    5  A    between atoms: C_22  and  C_24
REMARK    6  A    between atoms: C_22  and  C_25
REMARK    7  A    between atoms: C_22  and  N_72
REMARK    8  A    between atoms: C_25  and  C_26
REMARK    9  A    between atoms: C_26  and  C_27
REMARK                            x       y       z     vdW  Elec       q    Type
REMARK                         _______ _______ _______ _____ _____    ______ ____
ROOT
ATOM      1  C   UNL     1      -2.710   4.321   7.146  0.00  0.00    +0.082 C 
ATOM      2  C   UNL     1      -1.964   4.196   8.476  0.00  0.00    +0.020 C 
ATOM      3  C   UNL     1      -3.293   4.947   8.412  0.00  0.00    -0.021 C 
ATOM      4  C   UNL     1      -4.523   4.280   9.036  0.00  0.00    -0.011 C 
ATOM      5  C   UNL     1      -5.781   4.971   8.498  0.00  0.00    -0.078 C 
ATOM      6  C   UNL     1      -4.592   7.035   8.026  0.00  0.00    -0.078 C 
ATOM      7  C   UNL     1      -3.260   6.474   8.534  0.00  0.00    -0.011 C 
ATOM      8  N   UNL     1      -5.694   6.418   8.796  0.00  0.00    +0.381 N 
ATOM      9  H   UNL     1      -5.508   6.540   9.799  0.00  0.00    -0.081 HD
ENDROOT
BRANCH   1  18
ATOM     10  C   UNL     1      -5.117   6.671   1.977  0.00  0.00    +0.403 C 
ATOM     11  O   UNL     1      -4.653   7.423   1.143  0.00  0.00    -0.226 OA
ATOM     12  N   UNL     1      -4.509   6.534   3.172  0.00  0.00    -0.264 N 
ATOM     13  C   UNL     1      -5.062   5.633   4.194  0.00  0.00    +0.130 C 
ATOM     14  C   UNL     1      -3.966   4.637   4.608  0.00  0.00    +0.127 C 
ATOM     15  N   UNL     1      -2.741   5.390   4.915  0.00  0.00    -0.298 N 
ATOM     16  C   UNL     1      -2.191   6.294   3.896  0.00  0.00    +0.127 C 
ATOM     17  C   UNL     1      -3.285   7.286   3.480  0.00  0.00    +0.130 C 
ATOM     18  C   UNL     1      -2.134   5.253   6.111  0.00  0.00    +0.219 C 
ATOM     19  O   UNL     1      -1.124   5.879   6.353  0.00  0.00    -0.275 OA
BRANCH  10  20
ATOM     20  O   UNL     1      -6.238   5.976   1.708  0.00  0.00    -0.451 OA
BRANCH  20  22
ATOM     21  C   UNL     1      -8.094   5.307   0.280  0.00  0.00    +0.048 C 
ATOM     22  C   UNL     1      -6.838   6.174   0.401  0.00  0.00    +0.230 C 
ENDBRANCH  20  22
ENDBRANCH  10  20
ENDBRANCH   1  18
BRANCH   8  23
ATOM     23  C   UNL     1      -6.973   7.078   8.463  0.00  0.00    -0.071 C 
ATOM     24  C   UNL     1      -7.385   6.761   7.024  0.00  0.00    -0.013 C 
BRANCH  23  25
ATOM     25  C   UNL     1      -8.050   6.575   9.425  0.00  0.00    -0.011 C 
BRANCH  25  26
ATOM     26  C   UNL     1      -7.699   7.001  10.852  0.00  0.00    +0.036 C 
BRANCH  26  27
ATOM     27  C   UNL     1      -8.761   6.506  11.800  0.00  0.00    -0.022 A 
ATOM     28  C   UNL     1      -9.827   7.196  12.236  0.00  0.00    +0.087 A 
ATOM     29  N   UNL     1     -10.569   6.421  13.085  0.00  0.00    -0.360 N 
ATOM     30  H   UNL     1     -11.386   6.702  13.526  0.00  0.00    +0.165 HD
ATOM     31  C   UNL     1      -9.984   5.181  13.219  0.00  0.00    +0.047 A 
ATOM     32  C   UNL     1      -8.829   5.178  12.415  0.00  0.00    +0.003 A 
ATOM     33  C   UNL     1      -8.023   4.040  12.358  0.00  0.00    +0.010 A 
ATOM     34  C   UNL     1      -8.366   2.929  13.077  0.00  0.00    +0.001 A 
ATOM     35  C   UNL     1      -9.508   2.925  13.866  0.00  0.00    +0.002 A 
ATOM     36  C   UNL     1     -10.315   4.040  13.941  0.00  0.00    +0.026 A 
ENDBRANCH  26  27
ENDBRANCH  25  26
ENDBRANCH  23  25
ENDBRANCH   8  23
TORSDOF 7
