REMARK  Name = ZINC09130320
REMARK  5 active torsions:
REMARK  status: ('A' for Active; 'I' for Inactive)
REMARK    1  A    between atoms: C_3  and  C_6
REMARK    2  A    between atoms: C_9  and  C_32
REMARK    3  A    between atoms: C_13  and  C_16
REMARK    4  A    between atoms: N_18  and  C_19
REMARK    5  A    between atoms: C_20  and  C_28
REMARK                            x       y       z     vdW  Elec       q    Type
REMARK                         _______ _______ _______ _____ _____    ______ ____
ROOT
ATOM      1  C   UNL     1       3.599   0.625  -0.029  0.00  0.00    +0.140 C 
ATOM      2  C   UNL     1       4.122   0.345   1.384  0.00  0.00    +0.066 C 
ATOM      3  C   UNL     1       3.535  -0.973   1.903  0.00  0.00    +0.215 C 
ATOM      4  N   UNL     1       3.724  -2.010   0.883  0.00  0.00    -0.238 N 
ATOM      5  C   UNL     1       3.969  -1.743  -0.422  0.00  0.00    +0.130 A 
ATOM      6  C   UNL     1       4.092  -2.953  -1.079  0.00  0.00    +0.096 A 
ATOM      7  C   UNL     1       3.908  -3.967  -0.106  0.00  0.00    +0.149 A 
ATOM      8  N   UNL     1       3.691  -3.393   1.047  0.00  0.00    -0.177 NA
ATOM      9  N   UNL     1       4.061  -0.453  -0.926  0.00  0.00    -0.319 N 
ATOM     10  H   UNL     1       4.410  -0.269  -1.812  0.00  0.00    +0.148 HD
ENDROOT
BRANCH   1  13
ATOM     11  C   UNL     1      -0.016   1.341   0.009  0.00  0.00    +0.041 A 
ATOM     12  C   UNL     1       1.331   1.769  -0.001  0.00  0.00    +0.046 A 
ATOM     13  C   UNL     1       2.092   0.660  -0.014  0.00  0.00    +0.125 A 
ATOM     14  O   UNL     1       1.282  -0.411  -0.012  0.00  0.00    -0.466 OA
ATOM     15  C   UNL     1       0.002  -0.004   0.002  0.00  0.00    +0.195 A 
ENDBRANCH   1  13
BRANCH   6  16
ATOM     16  C   UNL     1       4.361  -3.149  -2.508  0.00  0.00    +0.253 C 
ATOM     17  O   UNL     1       4.499  -2.186  -3.239  0.00  0.00    -0.270 OA
ATOM     18  N   UNL     1       4.455  -4.396  -3.011  0.00  0.00    -0.275 N 
ATOM     19  H   UNL     1       4.345  -5.164  -2.428  0.00  0.00    +0.156 HD
BRANCH  18  20
ATOM     20  C   UNL     1       4.710  -4.581  -4.361  0.00  0.00    +0.085 A 
ATOM     21  C   UNL     1       4.833  -5.779  -5.048  0.00  0.00    +0.068 A 
ATOM     22  C   UNL     1       5.103  -5.702  -6.473  0.00  0.00    -0.023 A 
ATOM     23  C   UNL     1       5.200  -4.442  -6.949  0.00  0.00    -0.004 A 
ATOM     24  S   UNL     1       4.932  -3.407  -5.540  0.00  0.00    -0.077 S 
ATOM     25  C   UNL     1       5.473  -4.033  -8.364  0.00  0.00    +0.043 C 
ATOM     26  C   UNL     1       5.998  -5.258  -9.127  0.00  0.00    +0.005 C 
ATOM     27  C   UNL     1       5.085  -6.453  -8.837  0.00  0.00    +0.005 C 
ATOM     28  C   UNL     1       5.268  -6.907  -7.387  0.00  0.00    +0.037 C 
BRANCH  21  29
ATOM     29  C   UNL     1       4.697  -7.069  -4.365  0.00  0.00    +0.244 C 
ATOM     30  O   UNL     1       3.604  -7.599  -4.278  0.00  0.00    -0.270 OA
ATOM     31  N   UNL     1       5.781  -7.668  -3.834  0.00  0.00    -0.325 N 
ATOM     32  H   UNL     1       6.651  -7.246  -3.904  0.00  0.00    +0.145 HD
ATOM     33  H   UNL     1       5.691  -8.522  -3.383  0.00  0.00    +0.145 HD
ENDBRANCH  21  29
ENDBRANCH  18  20
ENDBRANCH   6  16
BRANCH   3  34
ATOM     34  C   UNL     1       4.253  -1.381   3.192  0.00  0.00    +0.412 C 
ATOM     35  F   UNL     1       4.081  -0.383   4.157  0.00  0.00    -0.168 F 
ATOM     36  F   UNL     1       3.716  -2.584   3.663  0.00  0.00    -0.168 F 
ATOM     37  F   UNL     1       5.617  -1.549   2.932  0.00  0.00    -0.168 F 
ENDBRANCH   3  34
TORSDOF 5
