REMARK  Name = ZINC19932117
REMARK  5 active torsions:
REMARK  status: ('A' for Active; 'I' for Inactive)
REMARK    1  A    between atoms: C_4  and  C_7
REMARK    2  A    between atoms: C_7  and  N_8
REMARK    3  A    between atoms: C_16  and  C_17
REMARK    4  A    between atoms: C_17  and  C_19
REMARK    5  A    between atoms: C_17  and  N_26
REMARK                            x       y       z     vdW  Elec       q    Type
REMARK                         _______ _______ _______ _____ _____    ______ ____
ROOT
ATOM      1  N   UNL     1       4.006   3.399  -2.268  0.00  0.00    -0.322 N 
ATOM      2  C   UNL     1       4.207   3.763  -3.584  0.00  0.00    +0.069 A 
ATOM      3  C   UNL     1       4.902   3.203  -4.647  0.00  0.00    +0.028 A 
ATOM      4  C   UNL     1       4.911   3.840  -5.870  0.00  0.00    +0.002 A 
ATOM      5  C   UNL     1       4.229   5.036  -6.044  0.00  0.00    +0.002 A 
ATOM      6  C   UNL     1       3.539   5.603  -5.009  0.00  0.00    +0.030 A 
ATOM      7  C   UNL     1       3.516   4.974  -3.761  0.00  0.00    +0.089 A 
ATOM      8  N   UNL     1       2.938   5.277  -2.571  0.00  0.00    -0.230 NA
ATOM      9  C   UNL     1       3.221   4.354  -1.699  0.00  0.00    +0.133 A 
ENDROOT
BRANCH   1  10
ATOM     10  C   UNL     1       4.536   2.204  -1.607  0.00  0.00    +0.158 C 
BRANCH  10  14
ATOM     11  C   UNL     1       1.929  -1.101  -2.336  0.00  0.00    +0.000 A 
ATOM     12  C   UNL     1       2.914  -0.782  -3.252  0.00  0.00    +0.000 A 
ATOM     13  C   UNL     1       3.757   0.287  -3.017  0.00  0.00    +0.005 A 
ATOM     14  C   UNL     1       3.616   1.038  -1.865  0.00  0.00    -0.028 A 
ATOM     15  C   UNL     1       2.635   0.716  -0.946  0.00  0.00    +0.005 A 
ATOM     16  C   UNL     1       1.788  -0.351  -1.184  0.00  0.00    +0.000 A 
ENDBRANCH  10  14
ENDBRANCH   1  10
BRANCH   9  17
ATOM     17  C   UNL     1       2.754   4.346  -0.266  0.00  0.00    +0.154 C 
BRANCH  17  18
ATOM     18  N   UNL     1       3.029   5.654   0.345  0.00  0.00    -0.293 NA
ATOM     19  C   UNL     1       2.192   6.702  -0.255  0.00  0.00    +0.066 C 
ATOM     20  C   UNL     1       2.564   8.057   0.351  0.00  0.00    -0.067 C 
ATOM     21  N   UNL     1       2.377   8.007   1.808  0.00  0.00    +0.381 N 
ATOM     22  C   UNL     1       3.215   6.959   2.408  0.00  0.00    -0.067 C 
ATOM     23  C   UNL     1       2.842   5.604   1.802  0.00  0.00    +0.066 C 
ATOM     24  H   UNL     1       2.656   8.976   2.247  0.00  0.00    -0.086 HD
ATOM     25  H   UNL     1       1.323   7.791   2.035  0.00  0.00    -0.086 HD
ENDBRANCH  17  18
BRANCH  17  26
ATOM     26  C   UNL     1       1.273   4.073  -0.222  0.00  0.00    -0.022 A 
ATOM     27  C   UNL     1       0.771   3.126   0.651  0.00  0.00    +0.006 A 
ATOM     28  C   UNL     1      -0.588   2.875   0.692  0.00  0.00    +0.001 A 
ATOM     29  C   UNL     1      -1.444   3.567  -0.144  0.00  0.00    +0.015 A 
ATOM     30  C   UNL     1      -0.943   4.518  -1.013  0.00  0.00    +0.018 A 
ATOM     31  C   UNL     1       0.417   4.769  -1.054  0.00  0.00    +0.021 A 
ATOM     32 BR   UNL     1      -2.115   5.471  -2.151  0.00  0.00    -0.050 Br
ENDBRANCH  17  26
ENDBRANCH   9  17
TORSDOF 5
