REMARK  Name = ZINC36329952
REMARK  17 active torsions:
REMARK  status: ('A' for Active; 'I' for Inactive)
REMARK    1  A    between atoms: C_1  and  C_2
REMARK    2  A    between atoms: C_2  and  C_3
REMARK    3  A    between atoms: C_3  and  C_4
REMARK    4  A    between atoms: C_4  and  N_5
REMARK    5  A    between atoms: C_9  and  S_30
REMARK    6  A    between atoms: C_13  and  C_14
REMARK    7  A    between atoms: C_14  and  C_15
REMARK    8  A    between atoms: C_15  and  C_16
REMARK    9  A    between atoms: N_18  and  C_19
REMARK   10  A    between atoms: C_19  and  C_20
REMARK   11  A    between atoms: C_20  and  C_22
REMARK   12  A    between atoms: C_20  and  N_27
REMARK   13  A    between atoms: N_27  and  C_28
REMARK   14  A    between atoms: N_27  and  C_29
REMARK   15  A    between atoms: S_30  and  N_33
REMARK   16  A    between atoms: N_33  and  C_34
REMARK   17  A    between atoms: N_33  and  C_35
REMARK                            x       y       z     vdW  Elec       q    Type
REMARK                         _______ _______ _______ _____ _____    ______ ____
ROOT
ATOM      1  N   UNL     1       2.448  -2.090  -2.922  0.00  0.00    -0.327 N 
ATOM      2  C   UNL     1       2.043  -2.287  -4.227  0.00  0.00    +0.069 A 
ATOM      3  C   UNL     1       0.836  -2.141  -4.897  0.00  0.00    +0.030 A 
ATOM      4  C   UNL     1       0.763  -2.429  -6.244  0.00  0.00    +0.030 A 
ATOM      5  C   UNL     1       1.887  -2.862  -6.932  0.00  0.00    +0.108 A 
ATOM      6  C   UNL     1       3.083  -3.011  -6.289  0.00  0.00    +0.058 A 
ATOM      7  C   UNL     1       3.181  -2.725  -4.925  0.00  0.00    +0.091 A 
ATOM      8  N   UNL     1       4.200  -2.772  -4.029  0.00  0.00    -0.232 NA
ATOM      9  C   UNL     1       3.772  -2.396  -2.859  0.00  0.00    +0.111 A 
ENDROOT
BRANCH   5  10
ATOM     10  S   UNL     1       1.771  -3.224  -8.653  0.00  0.00    +0.060 S 
ATOM     11  O   UNL     1       2.824  -4.131  -8.949  0.00  0.00    -0.153 OA
ATOM     12  O   UNL     1       0.407  -3.528  -8.912  0.00  0.00    -0.153 OA
BRANCH  10  13
ATOM     13  N   UNL     1       2.108  -1.824  -9.471  0.00  0.00    -0.183 NA
ATOM     14  C   UNL     1       3.488  -1.512  -9.852  0.00  0.00    +0.131 C 
ATOM     15  C   UNL     1       1.026  -0.898  -9.815  0.00  0.00    +0.131 C 
ENDBRANCH  10  13
ENDBRANCH   5  10
BRANCH   1  16
ATOM     16  C   UNL     1       1.608  -1.632  -1.812  0.00  0.00    +0.123 C 
BRANCH  16  17
ATOM     17  C   UNL     1       1.647  -0.104  -1.741  0.00  0.00    +0.021 C 
BRANCH  17  19
ATOM     18  C   UNL     1       0.808   1.902  -0.510  0.00  0.00    +0.004 C 
ATOM     19  C   UNL     1       0.770   0.374  -0.581  0.00  0.00    -0.002 C 
ENDBRANCH  17  19
ENDBRANCH  16  17
ENDBRANCH   1  16
BRANCH   9  20
ATOM     20  C   UNL     1       4.619  -2.313  -1.615  0.00  0.00    +0.083 C 
BRANCH  20  21
ATOM     21  C   UNL     1       4.575  -3.653  -0.879  0.00  0.00    +0.103 C 
BRANCH  21  22
ATOM     22  C   UNL     1       5.421  -3.571   0.365  0.00  0.00    +0.213 C 
ATOM     23  O   UNL     1       6.003  -2.541   0.636  0.00  0.00    -0.276 OA
ATOM     24  N   UNL     1       5.533  -4.641   1.177  0.00  0.00    -0.316 N 
ATOM     25  H   UNL     1       5.068  -5.464   0.961  0.00  0.00    +0.149 HD
BRANCH  24  26
ATOM     26  C   UNL     1       6.356  -4.561   2.386  0.00  0.00    +0.096 C 
BRANCH  26  27
ATOM     27  C   UNL     1       6.233  -5.866   3.174  0.00  0.00    +0.016 C 
BRANCH  27  28
ATOM     28  C   UNL     1       4.815  -6.030   3.658  0.00  0.00    +0.093 A 
ATOM     29  C   UNL     1       4.369  -5.752   4.896  0.00  0.00    +0.043 A 
ATOM     30  C   UNL     1       2.987  -6.050   4.910  0.00  0.00    +0.041 A 
ATOM     31  C   UNL     1       2.671  -6.493   3.679  0.00  0.00    +0.195 A 
ATOM     32  O   UNL     1       3.781  -6.473   2.924  0.00  0.00    -0.469 OA
ENDBRANCH  27  28
BRANCH  27  33
ATOM     33  N   UNL     1       6.588  -6.997   2.307  0.00  0.00    +0.384 N 
ATOM     34  C   UNL     1       7.961  -6.824   1.813  0.00  0.00    -0.096 C 
ATOM     35  C   UNL     1       6.497  -8.248   3.071  0.00  0.00    -0.096 C 
ATOM     36  H   UNL     1       5.952  -7.034   1.524  0.00  0.00    -0.082 HD
ENDBRANCH  27  33
ENDBRANCH  26  27
ENDBRANCH  24  26
ENDBRANCH  21  22
ENDBRANCH  20  21
ENDBRANCH   9  20
TORSDOF 12
