REMARK  Name = ZINC39663880
REMARK  13 active torsions:
REMARK  status: ('A' for Active; 'I' for Inactive)
REMARK    1  A    between atoms: C_1  and  N_2
REMARK    2  A    between atoms: N_2  and  C_3
REMARK    3  A    between atoms: N_2  and  C_4
REMARK    4  A    between atoms: C_4  and  C_6
REMARK    5  A    between atoms: C_4  and  C_32
REMARK    6  A    between atoms: C_6  and  N_7
REMARK    7  A    between atoms: C_8  and  C_10
REMARK    8  A    between atoms: C_21  and  C_23
REMARK    9  A    between atoms: C_23  and  C_24
REMARK   10  A    between atoms: C_24  and  C_25
REMARK   11  A    between atoms: C_25  and  C_26
REMARK   12  A    between atoms: C_35  and  O_38
REMARK   13  A    between atoms: O_38  and  C_39
REMARK                            x       y       z     vdW  Elec       q    Type
REMARK                         _______ _______ _______ _____ _____    ______ ____
ROOT
ATOM      1  C   UNL     1       0.341  -2.924   3.202  0.00  0.00    +0.100 C 
ATOM      2  C   UNL     1       1.631  -2.074   3.249  0.00  0.00    +0.121 C 
ATOM      3  N   UNL     1       2.646  -2.968   3.854  0.00  0.00    -0.300 N 
ATOM      4  C   UNL     1       2.367  -4.298   3.261  0.00  0.00    +0.115 C 
ATOM      5  C   UNL     1       0.828  -4.382   3.209  0.00  0.00    -0.004 C 
ATOM      6  C   UNL     1       0.382  -5.095   1.936  0.00  0.00    -0.010 C 
ATOM      7  C   UNL     1       0.827  -6.559   1.993  0.00  0.00    -0.082 C 
ATOM      8  N   UNL     1       0.239  -7.206   3.171  0.00  0.00    +0.379 N 
ATOM      9  C   UNL     1       0.746  -6.574   4.395  0.00  0.00    -0.082 C 
ATOM     10  C   UNL     1       0.297  -5.111   4.440  0.00  0.00    -0.010 C 
ATOM     11  C   UNL     1       3.606  -2.646   4.743  0.00  0.00    +0.216 C 
ATOM     12  O   UNL     1       4.369  -3.498   5.148  0.00  0.00    -0.276 OA
ATOM     13  H   UNL     1      -0.765  -7.113   3.138  0.00  0.00    -0.086 HD
ATOM     14  H   UNL     1       0.484  -8.185   3.174  0.00  0.00    -0.086 HD
ENDROOT
BRANCH   1  16
ATOM     15  N   UNL     1      -1.772  -2.773   1.926  0.00  0.00    -0.316 N 
ATOM     16  C   UNL     1      -0.432  -2.635   1.941  0.00  0.00    +0.218 C 
ATOM     17  O   UNL     1       0.153  -2.278   0.940  0.00  0.00    -0.275 OA
ATOM     18  H   UNL     1      -2.240  -3.058   2.727  0.00  0.00    +0.149 HD
BRANCH  15  19
ATOM     19  C   UNL     1      -2.524  -2.492   0.700  0.00  0.00    +0.093 C 
BRANCH  19  20
ATOM     20  C   UNL     1      -3.997  -2.846   0.912  0.00  0.00    -0.021 C 
BRANCH  20  21
ATOM     21  C   UNL     1      -4.130  -4.332   1.127  0.00  0.00    -0.059 A 
ATOM     22  C   UNL     1      -4.110  -5.190   0.043  0.00  0.00    +0.005 A 
ATOM     23  C   UNL     1      -4.232  -6.552   0.236  0.00  0.00    +0.046 A 
ATOM     24  C   UNL     1      -4.376  -7.059   1.520  0.00  0.00    +0.120 A 
ATOM     25  C   UNL     1      -4.396  -6.196   2.606  0.00  0.00    +0.046 A 
ATOM     26  C   UNL     1      -4.267  -4.835   2.407  0.00  0.00    +0.005 A 
BRANCH  24  27
ATOM     27  O   UNL     1      -4.497  -8.399   1.713  0.00  0.00    -0.495 OA
ATOM     28  C   UNL     1      -4.641  -8.850   3.061  0.00  0.00    +0.277 C 
ENDBRANCH  24  27
ENDBRANCH  20  21
BRANCH  20  30
ATOM     29  C   UNL     1      -6.177  -2.836  -0.089  0.00  0.00    -0.096 C 
ATOM     30  N   UNL     1      -4.771  -2.451  -0.272  0.00  0.00    +0.382 N 
ATOM     31  C   UNL     1      -4.682  -0.996  -0.452  0.00  0.00    -0.096 C 
ATOM     32  H   UNL     1      -4.399  -2.914  -1.087  0.00  0.00    -0.082 HD
ENDBRANCH  20  30
ENDBRANCH  19  20
ENDBRANCH  15  19
ENDBRANCH   1  16
BRANCH  11  33
ATOM     33  C   UNL     1       3.733  -1.227   5.234  0.00  0.00    +0.096 C 
BRANCH  33  34
ATOM     34  C   UNL     1       4.892  -1.132   6.228  0.00  0.00    +0.014 C 
BRANCH  34  35
ATOM     35  C   UNL     1       5.021   0.309   6.726  0.00  0.00    +0.035 C 
BRANCH  35  36
ATOM     36  C   UNL     1       6.163   0.402   7.705  0.00  0.00    -0.047 A 
ATOM     37  C   UNL     1       5.937   0.195   9.053  0.00  0.00    +0.003 A 
ATOM     38  C   UNL     1       6.984   0.281   9.950  0.00  0.00    +0.000 A 
ATOM     39  C   UNL     1       8.258   0.573   9.500  0.00  0.00    +0.000 A 
ATOM     40  C   UNL     1       8.484   0.779   8.152  0.00  0.00    +0.000 A 
ATOM     41  C   UNL     1       7.438   0.690   7.254  0.00  0.00    +0.003 A 
ENDBRANCH  35  36
ENDBRANCH  34  35
ENDBRANCH  33  34
ENDBRANCH  11  33
TORSDOF 10
