REMARK  Name = ZINC35594690
REMARK  15 active torsions:
REMARK  status: ('A' for Active; 'I' for Inactive)
REMARK    1  A    between atoms: C_1  and  C_2
REMARK    2  A    between atoms: C_2  and  C_3
REMARK    3  A    between atoms: C_2  and  C_4
REMARK    4  A    between atoms: C_4  and  N_5
REMARK    5  A    between atoms: C_6  and  C_8
REMARK    6  A    between atoms: C_8  and  N_9
REMARK    7  A    between atoms: C_12  and  C_19
REMARK    8  A    between atoms: N_14  and  C_15
REMARK    9  A    between atoms: C_15  and  C_16
REMARK   10  A    between atoms: C_15  and  C_17
REMARK   11  A    between atoms: C_15  and  C_18
REMARK   12  A    between atoms: C_19  and  C_20
REMARK   13  A    between atoms: C_19  and  C_21
REMARK   14  A    between atoms: C_19  and  C_22
REMARK   15  A    between atoms: C_23  and  C_29
REMARK                            x       y       z     vdW  Elec       q    Type
REMARK                         _______ _______ _______ _____ _____    ______ ____
ROOT
ATOM      1  N   UNL     1      -2.560  -3.424  -2.755  0.00  0.00    -0.246 N 
ATOM      2  C   UNL     1      -3.787  -3.743  -3.356  0.00  0.00    +0.132 A 
ATOM      3  C   UNL     1      -4.853  -4.228  -2.678  0.00  0.00    +0.033 A 
ATOM      4  C   UNL     1      -5.891  -4.418  -3.592  0.00  0.00    +0.075 A 
ATOM      5  N   UNL     1      -5.459  -4.061  -4.777  0.00  0.00    -0.173 NA
ATOM      6  N   UNL     1      -4.128  -3.632  -4.653  0.00  0.00    -0.244 N 
ATOM      7  C   UNL     1      -4.878  -4.508  -1.197  0.00  0.00    +0.112 C 
ATOM      8  S   UNL     1      -4.944  -2.914  -0.303  0.00  0.00    -0.138 S 
ATOM      9  C   UNL     1      -3.787  -1.891  -1.273  0.00  0.00    +0.166 C 
ATOM     10  C   UNL     1      -2.567  -2.682  -1.643  0.00  0.00    +0.231 C 
ATOM     11  O   UNL     1      -1.584  -2.646  -0.934  0.00  0.00    -0.274 OA
ENDROOT
BRANCH   7  12
ATOM     12  C   UNL     1      -6.092  -5.334  -0.859  0.00  0.00    -0.026 A 
ATOM     13  C   UNL     1      -5.988  -6.709  -0.769  0.00  0.00    +0.009 A 
ATOM     14  C   UNL     1      -7.099  -7.471  -0.458  0.00  0.00    +0.050 A 
ATOM     15  C   UNL     1      -8.321  -6.856  -0.235  0.00  0.00    +0.166 A 
ATOM     16  C   UNL     1      -8.426  -5.471  -0.326  0.00  0.00    +0.167 A 
ATOM     17  C   UNL     1      -7.307  -4.713  -0.632  0.00  0.00    +0.054 A 
ATOM     18  O   UNL     1      -9.717  -5.113  -0.067  0.00  0.00    -0.453 OA
ATOM     19  C   UNL     1     -10.488  -6.320  -0.220  0.00  0.00    +0.466 C 
ATOM     20  O   UNL     1      -9.546  -7.367   0.080  0.00  0.00    -0.453 OA
ENDBRANCH   7  12
BRANCH   6  21
ATOM     21  C   UNL     1      -3.268  -3.151  -5.737  0.00  0.00    +0.057 C 
ATOM     22  C   UNL     1      -2.475  -4.324  -6.317  0.00  0.00    +0.036 C 
ATOM     23  C   UNL     1      -4.132  -2.527  -6.835  0.00  0.00    +0.036 C 
ATOM     24  C   UNL     1      -2.299  -2.101  -5.191  0.00  0.00    +0.036 C 
ENDBRANCH   6  21
BRANCH   4  25
ATOM     25  C   UNL     1      -7.267  -4.942  -3.272  0.00  0.00    +0.007 C 
ATOM     26  C   UNL     1      -8.004  -3.934  -2.389  0.00  0.00    +0.017 C 
ATOM     27  C   UNL     1      -8.049  -5.149  -4.571  0.00  0.00    +0.017 C 
ATOM     28  C   UNL     1      -7.146  -6.276  -2.531  0.00  0.00    +0.017 C 
ENDBRANCH   4  25
BRANCH   1  29
ATOM     29  C   UNL     1      -1.299  -3.900  -3.330  0.00  0.00    +0.210 C 
BRANCH  29  31
ATOM     30  N   UNL     1       0.264  -5.788  -2.997  0.00  0.00    -0.314 N 
ATOM     31  C   UNL     1      -0.875  -5.167  -2.632  0.00  0.00    +0.231 C 
ATOM     32  O   UNL     1      -1.558  -5.627  -1.743  0.00  0.00    -0.274 OA
ATOM     33  H   UNL     1       0.811  -5.420  -3.709  0.00  0.00    +0.149 HD
BRANCH  30  34
ATOM     34  C   UNL     1       0.676  -7.019  -2.319  0.00  0.00    +0.107 C 
BRANCH  34  36
ATOM     35  C   UNL     1       3.101  -6.502  -2.627  0.00  0.00    +0.009 C 
ATOM     36  C   UNL     1       1.993  -7.516  -2.920  0.00  0.00    -0.000 C 
ATOM     37  C   UNL     1       2.360  -8.866  -2.299  0.00  0.00    +0.009 C 
ENDBRANCH  34  36
ENDBRANCH  30  34
ENDBRANCH  29  31
ENDBRANCH   1  29
TORSDOF 7
