REMARK  Name = ZINC36637626
REMARK  11 active torsions:
REMARK  status: ('A' for Active; 'I' for Inactive)
REMARK    1  A    between atoms: C_1  and  C_2
REMARK    2  A    between atoms: C_4  and  C_36
REMARK    3  A    between atoms: N_11  and  C_12
REMARK    4  A    between atoms: C_12  and  C_13
REMARK    5  A    between atoms: C_13  and  N_14
REMARK    6  A    between atoms: N_14  and  C_15
REMARK    7  A    between atoms: N_14  and  C_16
REMARK    8  A    between atoms: C_17  and  C_19
REMARK    9  A    between atoms: C_22  and  S_25
REMARK   10  A    between atoms: S_25  and  N_28
REMARK   11  A    between atoms: C_33  and  C_35
REMARK                            x       y       z     vdW  Elec       q    Type
REMARK                         _______ _______ _______ _____ _____    ______ ____
ROOT
ATOM      1  C   UNL     1      -3.590   1.172   3.163  0.00  0.00    +0.044 C 
ATOM      2  C   UNL     1      -3.193  -0.216   2.727  0.00  0.00    -0.049 A 
ATOM      3  C   UNL     1      -3.441  -0.641   1.430  0.00  0.00    +0.009 A 
ATOM      4  C   UNL     1      -3.091  -1.897   1.009  0.00  0.00    -0.024 A 
ATOM      5  C   UNL     1      -2.461  -2.805   1.891  0.00  0.00    +0.083 A 
ATOM      6  C   UNL     1      -2.224  -2.338   3.204  0.00  0.00    +0.041 A 
ATOM      7  C   UNL     1      -2.574  -1.076   3.615  0.00  0.00    +0.020 A 
ATOM      8  S   UNL     1      -1.441  -3.738   3.968  0.00  0.00    -0.052 S 
ATOM      9  C   UNL     1      -1.476  -4.819   2.546  0.00  0.00    +0.168 A 
ATOM     10  N   UNL     1      -2.054  -4.068   1.637  0.00  0.00    -0.224 NA
ATOM     11  N   UNL     1      -1.012  -6.118   2.431  0.00  0.00    -0.248 N 
ATOM     12  C   UNL     1      -1.130  -6.775   1.260  0.00  0.00    +0.252 C 
ATOM     13  O   UNL     1      -1.586  -6.206   0.287  0.00  0.00    -0.270 OA
ATOM     14  C   UNL     1      -3.380  -2.315  -0.410  0.00  0.00    +0.046 C 
ENDROOT
BRANCH  12  15
ATOM     15  C   UNL     1      -0.705  -8.187   1.159  0.00  0.00    +0.037 A 
ATOM     16  C   UNL     1      -0.660  -8.989   2.300  0.00  0.00    +0.015 A 
ATOM     17  C   UNL     1      -0.262 -10.306   2.199  0.00  0.00    +0.029 A 
ATOM     18  C   UNL     1       0.091 -10.832   0.969  0.00  0.00    +0.106 A 
ATOM     19  C   UNL     1       0.049 -10.043  -0.166  0.00  0.00    +0.029 A 
ATOM     20  C   UNL     1      -0.352  -8.726  -0.080  0.00  0.00    +0.015 A 
BRANCH  18  21
ATOM     21  S   UNL     1       0.599 -12.515   0.848  0.00  0.00    +0.061 S 
ATOM     22  O   UNL     1       1.535 -12.582  -0.218  0.00  0.00    -0.153 OA
ATOM     23  O   UNL     1       0.915 -12.940   2.167  0.00  0.00    -0.153 OA
BRANCH  21  24
ATOM     24  N   UNL     1      -0.723 -13.392   0.373  0.00  0.00    -0.174 NA
ATOM     25  C   UNL     1      -0.902 -13.774  -1.035  0.00  0.00    +0.110 C 
ATOM     26  C   UNL     1      -1.111 -15.290  -1.112  0.00  0.00    +0.017 C 
ATOM     27  C   UNL     1      -2.275 -15.687  -0.200  0.00  0.00    +0.003 C 
ATOM     28  C   UNL     1      -1.940 -15.319   1.247  0.00  0.00    +0.020 C 
ATOM     29  C   UNL     1      -1.737 -13.808   1.352  0.00  0.00    +0.077 C 
ATOM     30  C   UNL     1      -1.264 -13.453   2.763  0.00  0.00    +0.026 C 
ENDBRANCH  21  24
ENDBRANCH  18  21
ENDBRANCH  12  15
BRANCH  11  31
ATOM     31  C   UNL     1      -0.393  -6.779   3.583  0.00  0.00    +0.097 C 
BRANCH  31  32
ATOM     32  C   UNL     1      -1.472  -7.138   4.606  0.00  0.00    -0.060 C 
BRANCH  32  33
ATOM     33  N   UNL     1      -0.839  -7.677   5.817  0.00  0.00    +0.377 N 
ATOM     34  C   UNL     1      -1.860  -7.888   6.851  0.00  0.00    -0.097 C 
ATOM     35  C   UNL     1      -0.189  -8.957   5.502  0.00  0.00    -0.097 C 
ATOM     36  H   UNL     1      -0.148  -7.024   6.154  0.00  0.00    -0.083 HD
ENDBRANCH  32  33
ENDBRANCH  31  32
ENDBRANCH  11  31
TORSDOF 6
