REMARK  Name = ZINC16959802
REMARK  8 active torsions:
REMARK  status: ('A' for Active; 'I' for Inactive)
REMARK    1  A    between atoms: C_1  and  O_2
REMARK    2  A    between atoms: O_2  and  C_3
REMARK    3  A    between atoms: C_6  and  C_11
REMARK    4  A    between atoms: C_8  and  O_9
REMARK    5  A    between atoms: O_9  and  C_10
REMARK    6  A    between atoms: C_18  and  S_29
REMARK    7  A    between atoms: S_29  and  C_30
REMARK    8  A    between atoms: C_30  and  C_31
REMARK                            x       y       z     vdW  Elec       q    Type
REMARK                         _______ _______ _______ _____ _____    ______ ____
ROOT
ATOM      1  C   UNL     1       0.002  -0.004   0.002  0.00  0.00    +0.093 C 
ATOM      2  C   UNL     1      -0.672  -0.497  -1.244  0.00  0.00    +0.069 A 
ATOM      3  C   UNL     1      -0.003  -0.458  -2.473  0.00  0.00    +0.258 A 
ATOM      4  O   UNL     1       1.136  -0.024  -2.547  0.00  0.00    -0.267 OA
ATOM      5  N   UNL     1      -0.640  -0.907  -3.574  0.00  0.00    -0.302 N 
ATOM      6  H   UNL     1      -0.193  -0.889  -4.434  0.00  0.00    +0.171 HD
ATOM      7  C   UNL     1      -1.912  -1.388  -3.479  0.00  0.00    +0.171 A 
ATOM      8  N   UNL     1      -2.545  -1.428  -2.325  0.00  0.00    -0.208 NA
ATOM      9  C   UNL     1      -1.961  -0.999  -1.201  0.00  0.00    +0.135 A 
ATOM     10  N   UNL     1      -2.634  -1.052   0.004  0.00  0.00    -0.302 N 
ATOM     11  C   UNL     1      -1.951  -0.996   1.188  0.00  0.00    +0.017 C 
ATOM     12  C   UNL     1      -0.692  -0.514   1.240  0.00  0.00    +0.024 C 
ATOM     13  C   UNL     1       0.017  -0.471   2.454  0.00  0.00    +0.162 C 
ATOM     14  O   UNL     1       1.145  -0.020   2.469  0.00  0.00    -0.292 OA
ATOM     15  C   UNL     1      -0.593  -0.973   3.733  0.00  0.00    +0.080 C 
ATOM     16  C   UNL     1      -1.611  -2.069   3.404  0.00  0.00    +0.014 C 
ATOM     17  C   UNL     1      -2.645  -1.493   2.433  0.00  0.00    +0.051 C 
ATOM     18  H   UNL     1      -3.601  -1.129   0.010  0.00  0.00    +0.153 HD
ENDROOT
BRANCH   1  22
ATOM     19  C   UNL     1      -0.062   4.272   0.026  0.00  0.00    +0.162 A 
ATOM     20  C   UNL     1      -1.250   3.558   0.033  0.00  0.00    +0.050 A 
ATOM     21  C   UNL     1      -1.226   2.176   0.020  0.00  0.00    +0.008 A 
ATOM     22  C   UNL     1      -0.018   1.503   0.010  0.00  0.00    -0.032 A 
ATOM     23  C   UNL     1       1.170   2.209   0.003  0.00  0.00    +0.054 A 
ATOM     24  C   UNL     1       1.153   3.594   0.010  0.00  0.00    +0.162 A 
BRANCH  19  26
ATOM     25  C   UNL     1      -1.367   6.260   0.048  0.00  0.00    +0.277 C 
ATOM     26  O   UNL     1      -0.084   5.632   0.033  0.00  0.00    -0.491 OA
ENDBRANCH  19  26
BRANCH  24  27
ATOM     27  O   UNL     1       2.321   4.290   0.003  0.00  0.00    -0.491 OA
ATOM     28  C   UNL     1       3.530   3.528  -0.014  0.00  0.00    +0.277 C 
ENDBRANCH  24  27
ENDBRANCH   1  22
BRANCH   7  29
ATOM     29  S   UNL     1      -2.726  -1.967  -4.931  0.00  0.00    -0.083 S 
BRANCH  29  30
ATOM     30  C   UNL     1      -4.316  -2.463  -4.222  0.00  0.00    +0.114 C 
BRANCH  30  31
ATOM     31  C   UNL     1      -5.204  -3.006  -5.312  0.00  0.00    -0.019 A 
ATOM     32  C   UNL     1      -6.045  -2.157  -6.006  0.00  0.00    +0.006 A 
ATOM     33  C   UNL     1      -6.857  -2.654  -7.008  0.00  0.00    +0.000 A 
ATOM     34  C   UNL     1      -6.833  -4.003  -7.312  0.00  0.00    +0.001 A 
ATOM     35  C   UNL     1      -5.996  -4.854  -6.616  0.00  0.00    +0.020 A 
ATOM     36  C   UNL     1      -5.180  -4.356  -5.615  0.00  0.00    +0.045 A 
ATOM     37 CL   UNL     1      -4.128  -5.424  -4.740  0.00  0.00    -0.083 Cl
ENDBRANCH  30  31
ENDBRANCH  29  30
ENDBRANCH   7  29
TORSDOF 6
