REMARK  Name = ZINC45412165
REMARK  13 active torsions:
REMARK  status: ('A' for Active; 'I' for Inactive)
REMARK    1  A    between atoms: C_1  and  C_2
REMARK    2  A    between atoms: C_2  and  C_4
REMARK    3  A    between atoms: C_2  and  S_14
REMARK    4  A    between atoms: N_6  and  C_7
REMARK    5  A    between atoms: N_6  and  C_8
REMARK    6  A    between atoms: S_14  and  C_15
REMARK    7  A    between atoms: C_18  and  C_21
REMARK    8  A    between atoms: N_19  and  N_20
REMARK    9  A    between atoms: C_21  and  O_22
REMARK   10  A    between atoms: O_22  and  C_23
REMARK   11  A    between atoms: C_26  and  C_29
REMARK   12  A    between atoms: C_29  and  C_30
REMARK   13  A    between atoms: C_29  and  C_31
REMARK                            x       y       z     vdW  Elec       q    Type
REMARK                         _______ _______ _______ _____ _____    ______ ____
ROOT
ATOM      1  C   UNL     1      -0.189  -0.057  -2.809  0.00  0.00    +0.209 A 
ATOM      2  N   UNL     1      -1.312   0.614  -2.696  0.00  0.00    -0.121 NA
ATOM      3  N   UNL     1      -1.808   0.835  -3.860  0.00  0.00    -0.128 NA
ATOM      4  C   UNL     1      -1.040   0.322  -4.779  0.00  0.00    +0.189 A 
ATOM      5  N   UNL     1       0.022  -0.259  -4.143  0.00  0.00    -0.225 N 
ENDROOT
BRANCH   5   6
ATOM      6  N   UNL     1       1.075  -0.910  -4.721  0.00  0.00    -0.295 N 
ATOM      7  H   UNL     1       0.878  -1.894  -4.827  0.00  0.00    +0.163 HD
ATOM      8  H   UNL     1       1.316  -0.492  -5.607  0.00  0.00    +0.163 HD
ENDBRANCH   5   6
BRANCH   1   9
ATOM      9  S   UNL     1       0.851  -0.589  -1.490  0.00  0.00    -0.072 S 
BRANCH   9  11
ATOM     10  C   UNL     1      -0.019   1.526   0.010  0.00  0.00    +0.029 C 
ATOM     11  C   UNL     1       0.002  -0.004   0.002  0.00  0.00    +0.137 C 
BRANCH  11  12
ATOM     12  C   UNL     1       0.731  -0.503   1.223  0.00  0.00    +0.229 C 
ATOM     13  O   UNL     1       1.911  -0.775   1.156  0.00  0.00    -0.274 OA
ATOM     14  N   UNL     1       0.071  -0.647   2.389  0.00  0.00    -0.301 N 
ATOM     15  C   UNL     1      -1.354  -0.319   2.471  0.00  0.00    +0.132 C 
BRANCH  14  16
ATOM     16  C   UNL     1       0.780  -1.133   3.576  0.00  0.00    +0.076 C 
ATOM     17  C   UNL     1       0.129  -2.428   4.065  0.00  0.00    +0.022 C 
ATOM     18  C   UNL     1       0.869  -2.935   5.304  0.00  0.00    +0.002 C 
ATOM     19  C   UNL     1       0.796  -1.880   6.409  0.00  0.00    +0.000 C 
ATOM     20  C   UNL     1       1.446  -0.584   5.921  0.00  0.00    +0.002 C 
ATOM     21  C   UNL     1       0.707  -0.077   4.681  0.00  0.00    +0.022 C 
ENDBRANCH  14  16
ENDBRANCH  11  12
ENDBRANCH   9  11
ENDBRANCH   1   9
BRANCH   4  22
ATOM     22  C   UNL     1      -1.274   0.367  -6.267  0.00  0.00    +0.306 C 
BRANCH  22  23
ATOM     23  O   UNL     1      -0.662   1.539  -6.810  0.00  0.00    -0.484 OA
BRANCH  23  24
ATOM     24  C   UNL     1      -0.781   1.732  -8.150  0.00  0.00    +0.121 A 
ATOM     25  C   UNL     1      -1.477   0.815  -8.925  0.00  0.00    +0.046 A 
ATOM     26  C   UNL     1      -1.597   1.014 -10.287  0.00  0.00    +0.007 A 
ATOM     27  C   UNL     1      -1.024   2.125 -10.878  0.00  0.00    -0.045 A 
ATOM     28  C   UNL     1      -0.330   3.040 -10.107  0.00  0.00    +0.007 A 
ATOM     29  C   UNL     1      -0.212   2.849  -8.744  0.00  0.00    +0.046 A 
BRANCH  27  30
ATOM     30  C   UNL     1      -1.155   2.339 -12.364  0.00  0.00    +0.013 C 
ATOM     31  C   UNL     1      -1.873   3.665 -12.626  0.00  0.00    +0.012 C 
ATOM     32  C   UNL     1       0.236   2.378 -12.998  0.00  0.00    +0.012 C 
ENDBRANCH  27  30
ENDBRANCH  23  24
ENDBRANCH  22  23
ENDBRANCH   4  22
TORSDOF 9
