REMARK  Name = ZINC51101250
REMARK  12 active torsions:
REMARK  status: ('A' for Active; 'I' for Inactive)
REMARK    1  A    between atoms: C_1  and  C_2
REMARK    2  A    between atoms: C_3  and  C_27
REMARK    3  A    between atoms: C_5  and  N_9
REMARK    4  A    between atoms: C_6  and  C_7
REMARK    5  A    between atoms: C_10  and  C_12
REMARK    6  A    between atoms: C_12  and  N_13
REMARK    7  A    between atoms: C_17  and  C_19
REMARK    8  A    between atoms: C_19  and  N_20
REMARK    9  A    between atoms: N_20  and  S_21
REMARK   10  A    between atoms: S_21  and  C_24
REMARK   11  A    between atoms: C_24  and  C_25
REMARK   12  A    between atoms: C_24  and  C_26
REMARK                            x       y       z     vdW  Elec       q    Type
REMARK                         _______ _______ _______ _____ _____    ______ ____
ROOT
ATOM      1  N   UNL     1       0.104  -6.971   0.650  0.00  0.00    +0.386 N 
ATOM      2  C   UNL     1      -1.149  -7.002  -0.113  0.00  0.00    -0.078 C 
ATOM      3  C   UNL     1      -1.108  -8.151  -1.123  0.00  0.00    -0.018 C 
ATOM      4  C   UNL     1      -0.931  -9.475  -0.374  0.00  0.00    +0.001 C 
ATOM      5  C   UNL     1       0.341  -9.403   0.476  0.00  0.00    -0.012 C 
ATOM      6  C   UNL     1       0.246  -8.208   1.426  0.00  0.00    -0.073 C 
ATOM      7  H   UNL     1       0.881  -6.884   0.012  0.00  0.00    -0.081 HD
ENDROOT
BRANCH   1   8
ATOM      8  C   UNL     1       0.092  -5.820   1.563  0.00  0.00    +0.019 C 
BRANCH   8  10
ATOM      9  N   UNL     1       0.056  -3.353   1.393  0.00  0.00    -0.257 N 
ATOM     10  C   UNL     1       0.070  -4.543   0.762  0.00  0.00    +0.203 C 
ATOM     11  O   UNL     1       0.066  -4.588  -0.450  0.00  0.00    -0.277 OA
ATOM     12  H   UNL     1       0.060  -3.317   2.362  0.00  0.00    +0.158 HD
BRANCH   9  17
ATOM     13  C   UNL     1      -0.018   1.503   0.010  0.00  0.00    +0.049 C 
ATOM     14  C   UNL     1       0.002  -0.004   0.002  0.00  0.00    +0.010 A 
ATOM     15  C   UNL     1       0.008  -0.804  -1.074  0.00  0.00    +0.109 A 
ATOM     16  O   UNL     1       0.028  -2.088  -0.680  0.00  0.00    -0.445 OA
ATOM     17  C   UNL     1       0.036  -2.180   0.657  0.00  0.00    +0.210 A 
ATOM     18  C   UNL     1       0.026  -0.894   1.173  0.00  0.00    +0.115 A 
ATOM     19  C   UNL     1      -0.006  -0.334  -2.506  0.00  0.00    +0.086 C 
BRANCH  18  20
ATOM     20  C   UNL     1       0.034  -0.513   2.554  0.00  0.00    +0.105 C 
ATOM     21  N   UNL     1       0.040  -0.211   3.648  0.00  0.00    -0.191 NA
ENDBRANCH  18  20
ENDBRANCH   9  17
ENDBRANCH   8  10
ENDBRANCH   1   8
BRANCH   5  22
ATOM     22  C   UNL     1       0.486 -10.692   1.288  0.00  0.00    +0.107 C 
BRANCH  22  23
ATOM     23  N   UNL     1       0.692 -11.822   0.378  0.00  0.00    -0.194 NA
ATOM     24  H   UNL     1       0.503 -11.723  -0.568  0.00  0.00    +0.148 HD
BRANCH  23  25
ATOM     25  S   UNL     1       1.246 -13.268   0.966  0.00  0.00    +0.032 S 
ATOM     26  O   UNL     1       1.347 -14.108  -0.175  0.00  0.00    -0.158 OA
ATOM     27  O   UNL     1       2.400 -12.933   1.724  0.00  0.00    -0.158 OA
BRANCH  25  28
ATOM     28  C   UNL     1      -0.072 -13.860   2.063  0.00  0.00    +0.142 C 
ATOM     29  C   UNL     1      -1.364 -14.033   1.262  0.00  0.00    +0.033 C 
ATOM     30  C   UNL     1       0.336 -15.205   2.669  0.00  0.00    +0.033 C 
ENDBRANCH  25  28
ENDBRANCH  23  25
ENDBRANCH  22  23
ENDBRANCH   5  22
TORSDOF 8
