REMARK  Name = ZINC21460952
REMARK  13 active torsions:
REMARK  status: ('A' for Active; 'I' for Inactive)
REMARK    1  A    between atoms: C_1  and  C_2
REMARK    2  A    between atoms: C_2  and  C_3
REMARK    3  A    between atoms: C_3  and  N_4
REMARK    4  A    between atoms: C_8  and  S_9
REMARK    5  A    between atoms: S_9  and  C_10
REMARK    6  A    between atoms: C_10  and  C_11
REMARK    7  A    between atoms: N_13  and  C_14
REMARK    8  A    between atoms: C_15  and  C_29
REMARK    9  A    between atoms: C_20  and  C_24
REMARK   10  A    between atoms: C_24  and  C_25
REMARK   11  A    between atoms: C_24  and  C_26
REMARK   12  A    between atoms: C_24  and  C_27
REMARK   13  A    between atoms: C_27  and  C_28
REMARK                            x       y       z     vdW  Elec       q    Type
REMARK                         _______ _______ _______ _____ _____    ______ ____
ROOT
ATOM      1  C   UNL     1      -2.367   2.063   0.007  0.00  0.00    +0.228 C 
ATOM      2  O   UNL     1      -2.528   0.861   0.002  0.00  0.00    -0.275 OA
ATOM      3  N   UNL     1      -1.121   2.576  -0.002  0.00  0.00    -0.278 N 
ATOM      4  H   UNL     1      -0.975   3.666   0.003  0.00  0.00    +0.155 HD
ENDROOT
BRANCH   3   5
ATOM      5  C   UNL     1      -0.022   1.729  -0.018  0.00  0.00    +0.090 A 
ATOM      6  C   UNL     1       1.324   2.063  -0.034  0.00  0.00    +0.084 A 
ATOM      7  C   UNL     1       2.287   0.976  -0.054  0.00  0.00    -0.018 A 
ATOM      8  C   UNL     1       1.753  -0.265  -0.055  0.00  0.00    -0.004 A 
ATOM      9  S   UNL     1       0.002  -0.004  -0.028  0.00  0.00    -0.077 S 
ATOM     10  C   UNL     1       2.493  -1.567  -0.074  0.00  0.00    +0.047 C 
ATOM     11  C   UNL     1       3.949  -1.289  -0.473  0.00  0.00    -0.000 C 
ATOM     12  C   UNL     1       4.475  -0.119   0.364  0.00  0.00    +0.009 C 
ATOM     13  C   UNL     1       3.797   1.180  -0.074  0.00  0.00    +0.037 C 
BRANCH  11  14
ATOM     14  C   UNL     1       4.800  -2.533  -0.207  0.00  0.00    -0.032 C 
ATOM     15  C   UNL     1       6.254  -2.247  -0.589  0.00  0.00    +0.011 C 
ATOM     16  C   UNL     1       4.724  -2.895   1.277  0.00  0.00    +0.011 C 
BRANCH  14  17
ATOM     17  C   UNL     1       4.273  -3.700  -1.044  0.00  0.00    +0.003 C 
ATOM     18  C   UNL     1       5.124  -4.943  -0.779  0.00  0.00    +0.004 C 
ENDBRANCH  14  17
ENDBRANCH  11  14
BRANCH   6  19
ATOM     19  C   UNL     1       1.749   3.431  -0.033  0.00  0.00    +0.102 C 
ATOM     20  N   UNL     1       2.086   4.516  -0.031  0.00  0.00    -0.191 NA
ENDBRANCH   6  19
ENDBRANCH   3   5
BRANCH   1  21
ATOM     21  C   UNL     1      -3.561   2.983   0.024  0.00  0.00    +0.173 C 
BRANCH  21  22
ATOM     22  S   UNL     1      -5.083   1.998   0.033  0.00  0.00    -0.077 S 
BRANCH  22  27
ATOM     23  N   UNL     1      -7.711   2.944   0.058  0.00  0.00    -0.271 N 
ATOM     24  C   UNL     1      -8.371   4.139   0.069  0.00  0.00    +0.345 A 
ATOM     25  N   UNL     1      -7.478   5.096   0.069  0.00  0.00    -0.226 N 
ATOM     26  N   UNL     1      -6.208   4.503   0.064  0.00  0.00    -0.145 NA
ATOM     27  C   UNL     1      -6.370   3.202   0.053  0.00  0.00    +0.192 A 
ATOM     28  O   UNL     1      -9.717   4.306   0.077  0.00  0.00    -0.245 OA
ATOM     29  H   UNL     1      -7.573   6.192   0.073  0.00  0.00    +0.194 HD
BRANCH  23  30
ATOM     30  C   UNL     1      -8.333   1.618   0.054  0.00  0.00    +0.129 C 
BRANCH  30  32
ATOM     31  C   UNL     1      -9.191  -0.238   1.490  0.00  0.00    +0.005 C 
ATOM     32  C   UNL     1      -8.541   1.147   1.494  0.00  0.00    +0.018 C 
ENDBRANCH  30  32
ENDBRANCH  23  30
ENDBRANCH  22  27
ENDBRANCH  21  22
ENDBRANCH   1  21
TORSDOF 9
