REMARK  Name = ZINC08653369
REMARK  7 active torsions:
REMARK  status: ('A' for Active; 'I' for Inactive)
REMARK    1  A    between atoms: C_1  and  N_54
REMARK    2  A    between atoms: C_2  and  N_54
REMARK    3  A    between atoms: C_3  and  C_4
REMARK    4  A    between atoms: C_3  and  N_54
REMARK    5  A    between atoms: C_4  and  C_5
REMARK    6  A    between atoms: C_10  and  C_11
REMARK    7  A    between atoms: C_22  and  C_23
REMARK                            x       y       z     vdW  Elec       q    Type
REMARK                         _______ _______ _______ _____ _____    ______ ____
ROOT
ATOM      1  C   UNL     1       0.052   3.338  -1.332  0.00  0.00    +0.214 C 
ATOM      2  O   UNL     1       1.032   3.856  -0.839  0.00  0.00    -0.276 OA
ATOM      3  N   UNL     1      -0.457   2.211  -0.797  0.00  0.00    -0.293 N 
ATOM      4  C   UNL     1      -1.644   1.577  -1.389  0.00  0.00    +0.147 C 
ATOM      5  C   UNL     1      -2.685   1.412  -0.297  0.00  0.00    +0.017 C 
ATOM      6  C   UNL     1      -3.984   1.718  -0.502  0.00  0.00    +0.017 C 
ATOM      7  C   UNL     1      -2.201   0.896   1.003  0.00  0.00    +0.188 C 
ATOM      8  O   UNL     1      -2.831   0.085   1.659  0.00  0.00    -0.287 OA
ATOM      9  C   UNL     1      -0.896   1.436   1.453  0.00  0.00    +0.017 C 
ATOM     10  C   UNL     1      -0.667   1.764   2.743  0.00  0.00    +0.017 C 
ATOM     11  C   UNL     1       0.169   1.601   0.386  0.00  0.00    +0.147 C 
ENDROOT
BRANCH   6  12
ATOM     12  C   UNL     1      -4.456   2.056  -1.853  0.00  0.00    -0.023 A 
ATOM     13  C   UNL     1      -5.401   3.072  -2.034  0.00  0.00    +0.009 A 
ATOM     14  C   UNL     1      -5.835   3.388  -3.304  0.00  0.00    +0.022 A 
ATOM     15  C   UNL     1      -5.346   2.693  -4.399  0.00  0.00    +0.059 A 
ATOM     16  C   UNL     1      -4.415   1.681  -4.227  0.00  0.00    +0.060 A 
ATOM     17  C   UNL     1      -3.967   1.359  -2.963  0.00  0.00    +0.029 A 
ATOM     18 CL   UNL     1      -3.810   0.818  -5.607  0.00  0.00    -0.082 Cl
ATOM     19 CL   UNL     1      -5.904   3.093  -5.994  0.00  0.00    -0.082 Cl
ENDBRANCH   6  12
BRANCH  10  20
ATOM     20  C   UNL     1      -1.775   1.755   3.711  0.00  0.00    -0.023 A 
ATOM     21  C   UNL     1      -3.047   2.192   3.328  0.00  0.00    +0.009 A 
ATOM     22  C   UNL     1      -4.082   2.176   4.238  0.00  0.00    +0.022 A 
ATOM     23  C   UNL     1      -3.861   1.740   5.535  0.00  0.00    +0.059 A 
ATOM     24  C   UNL     1      -2.602   1.311   5.924  0.00  0.00    +0.060 A 
ATOM     25  C   UNL     1      -1.558   1.316   5.021  0.00  0.00    +0.029 A 
ATOM     26 CL   UNL     1      -2.337   0.766   7.551  0.00  0.00    -0.082 Cl
ATOM     27 CL   UNL     1      -5.169   1.729   6.676  0.00  0.00    -0.082 Cl
ENDBRANCH  10  20
BRANCH   1  28
ATOM     28  C   UNL     1      -0.596   3.956  -2.545  0.00  0.00    +0.077 C 
BRANCH  28  29
ATOM     29  C   UNL     1       0.172   5.217  -2.947  0.00  0.00    -0.070 C 
BRANCH  29  32
ATOM     30  C   UNL     1      -1.806   6.315  -3.811  0.00  0.00    -0.097 C 
ATOM     31  C   UNL     1       0.378   6.889  -4.686  0.00  0.00    -0.097 C 
ATOM     32  N   UNL     1      -0.463   5.798  -4.149  0.00  0.00    +0.376 N 
ATOM     33  H   UNL     1      -0.557   5.067  -4.863  0.00  0.00    -0.083 HD
ENDBRANCH  29  32
ENDBRANCH  28  29
ENDBRANCH   1  28
TORSDOF 5
