REMARK  Name = ZINC38678368
REMARK  7 active torsions:
REMARK  status: ('A' for Active; 'I' for Inactive)
REMARK    1  A    between atoms: C_3  and  C_8
REMARK    2  A    between atoms: C_13  and  O_22
REMARK    3  A    between atoms: C_17  and  N_21
REMARK    4  A    between atoms: C_18  and  C_19
REMARK    5  A    between atoms: O_22  and  C_23
REMARK    6  A    between atoms: C_23  and  C_25
REMARK    7  A    between atoms: C_25  and  C_26
REMARK                            x       y       z     vdW  Elec       q    Type
REMARK                         _______ _______ _______ _____ _____    ______ ____
ROOT
ATOM      1  C   UNL     1       3.724   2.171   0.014  0.00  0.00    +0.098 C 
ATOM      2  C   UNL     1       4.488   1.834  -1.239  0.00  0.00    +0.008 A 
ATOM      3  C   UNL     1       4.038   2.309  -2.458  0.00  0.00    +0.012 A 
ATOM      4  C   UNL     1       4.726   2.010  -3.618  0.00  0.00    +0.047 A 
ATOM      5  C   UNL     1       5.873   1.231  -3.562  0.00  0.00    +0.135 A 
ATOM      6  C   UNL     1       6.326   0.754  -2.343  0.00  0.00    +0.093 A 
ATOM      7  C   UNL     1       5.633   1.055  -1.178  0.00  0.00    +0.138 A 
ATOM      8  O   UNL     1       6.089   0.582   0.008  0.00  0.00    -0.441 OA
ATOM      9  C   UNL     1       5.690   1.154   1.156  0.00  0.00    +0.199 C 
ATOM     10  C   UNL     1       4.578   1.917   1.224  0.00  0.00    +0.098 C 
ENDROOT
BRANCH   1  13
ATOM     11  C   UNL     1       0.100   1.125   0.184  0.00  0.00    +0.003 A 
ATOM     12  C   UNL     1       1.237   1.909   0.116  0.00  0.00    +0.005 A 
ATOM     13  C   UNL     1       2.485   1.316   0.089  0.00  0.00    -0.032 A 
ATOM     14  C   UNL     1       2.598  -0.061   0.130  0.00  0.00    +0.043 A 
ATOM     15  C   UNL     1       1.460  -0.847   0.199  0.00  0.00    +0.124 A 
ATOM     16  C   UNL     1       0.210  -0.251   0.226  0.00  0.00    +0.038 A 
ATOM     17  F   UNL     1       1.569  -2.192   0.238  0.00  0.00    -0.205 F 
ENDBRANCH   1  13
BRANCH   9  18
ATOM     18  N   UNL     1       6.434   0.955   2.293  0.00  0.00    -0.328 N 
ATOM     19  H   UNL     1       7.235   0.408   2.259  0.00  0.00    +0.145 HD
ATOM     20  H   UNL     1       6.159   1.361   3.130  0.00  0.00    +0.145 HD
ENDBRANCH   9  18
BRANCH  10  21
ATOM     21  C   UNL     1       4.207   2.498   2.480  0.00  0.00    +0.101 C 
ATOM     22  N   UNL     1       3.913   2.958   3.475  0.00  0.00    -0.191 NA
ENDBRANCH  10  21
BRANCH   5  23
ATOM     23  O   UNL     1       6.551   0.935  -4.703  0.00  0.00    -0.425 OA
BRANCH  23  24
ATOM     24  C   UNL     1       6.532  -0.335  -5.137  0.00  0.00    +0.317 C 
ATOM     25  O   UNL     1       5.840  -1.153  -4.578  0.00  0.00    -0.250 OA
BRANCH  24  26
ATOM     26  C   UNL     1       7.372  -0.740  -6.321  0.00  0.00    +0.156 C 
BRANCH  26  27
ATOM     27  C   UNL     1       7.170  -2.207  -6.601  0.00  0.00    -0.037 A 
ATOM     28  C   UNL     1       7.982  -3.145  -5.991  0.00  0.00    +0.005 A 
ATOM     29  C   UNL     1       7.798  -4.490  -6.248  0.00  0.00    +0.020 A 
ATOM     30  C   UNL     1       6.801  -4.898  -7.116  0.00  0.00    +0.041 A 
ATOM     31  C   UNL     1       5.989  -3.959  -7.726  0.00  0.00    +0.020 A 
ATOM     32  C   UNL     1       6.170  -2.614  -7.464  0.00  0.00    +0.005 A 
ATOM     33 CL   UNL     1       6.569  -6.588  -7.439  0.00  0.00    -0.084 Cl
ENDBRANCH  26  27
ENDBRANCH  24  26
ENDBRANCH  23  24
ENDBRANCH   5  23
TORSDOF 7
