REMARK  Name = ZINC38884195
REMARK  10 active torsions:
REMARK  status: ('A' for Active; 'I' for Inactive)
REMARK    1  A    between atoms: C_1  and  C_2
REMARK    2  A    between atoms: C_2  and  C_3
REMARK    3  A    between atoms: C_3  and  C_5
REMARK    4  A    between atoms: C_3  and  N_15
REMARK    5  A    between atoms: C_8  and  S_11
REMARK    6  A    between atoms: S_11  and  C_14
REMARK    7  A    between atoms: C_16  and  C_18
REMARK    8  A    between atoms: N_21  and  C_24
REMARK    9  A    between atoms: C_24  and  C_25
REMARK   10  A    between atoms: C_27  and  C_30
REMARK                            x       y       z     vdW  Elec       q    Type
REMARK                         _______ _______ _______ _____ _____    ______ ____
ROOT
ATOM      1  C   UNL     1       3.964   1.535   1.536  0.00  0.00    +0.071 C 
ATOM      2  C   UNL     1       4.817   0.577   2.373  0.00  0.00    -0.006 C 
ATOM      3  C   UNL     1       6.271   1.054   2.361  0.00  0.00    -0.077 C 
ATOM      4  N   UNL     1       6.352   2.405   2.927  0.00  0.00    +0.386 N 
ATOM      5  C   UNL     1       5.595   3.343   2.089  0.00  0.00    -0.077 C 
ATOM      6  C   UNL     1       4.115   2.954   2.091  0.00  0.00    -0.006 C 
ATOM      7  H   UNL     1       5.965   2.402   3.859  0.00  0.00    -0.081 HD
ENDROOT
BRANCH   1   9
ATOM      8  N   UNL     1       2.148  -0.104   1.172  0.00  0.00    -0.308 N 
ATOM      9  C   UNL     1       2.518   1.116   1.608  0.00  0.00    +0.216 C 
ATOM     10  O   UNL     1       1.688   1.877   2.059  0.00  0.00    -0.276 OA
ATOM     11  H   UNL     1       2.812  -0.712   0.811  0.00  0.00    +0.149 HD
BRANCH   8  12
ATOM     12  C   UNL     1       0.742  -0.511   1.242  0.00  0.00    +0.103 C 
BRANCH  12  13
ATOM     13  C   UNL     1       0.657  -2.014   1.298  0.00  0.00    -0.027 A 
ATOM     14  C   UNL     1       1.506  -2.784   0.525  0.00  0.00    +0.007 A 
ATOM     15  C   UNL     1       1.428  -4.163   0.577  0.00  0.00    +0.027 A 
ATOM     16  C   UNL     1       0.500  -4.773   1.401  0.00  0.00    +0.088 A 
ATOM     17  C   UNL     1      -0.348  -4.003   2.175  0.00  0.00    +0.027 A 
ATOM     18  C   UNL     1      -0.267  -2.624   2.126  0.00  0.00    +0.007 A 
BRANCH  16  19
ATOM     19  S   UNL     1       0.400  -6.531   1.466  0.00  0.00    -0.006 S 
ATOM     20  O   UNL     1      -0.939  -6.803   1.855  0.00  0.00    -0.170 OA
ATOM     21  O   UNL     1       0.892  -6.969   0.207  0.00  0.00    -0.170 OA
ATOM     22  C   UNL     1       1.545  -7.015   2.787  0.00  0.00    +0.200 C 
ENDBRANCH  16  19
ENDBRANCH  12  13
BRANCH  12  24
ATOM     23  C   UNL     1      -0.019   1.526   0.010  0.00  0.00    +0.006 C 
ATOM     24  C   UNL     1       0.002  -0.004   0.002  0.00  0.00    +0.024 C 
ENDBRANCH  12  24
ENDBRANCH   8  12
ENDBRANCH   1   9
BRANCH   4  25
ATOM     25  C   UNL     1       7.757   2.828   2.985  0.00  0.00    +0.022 C 
BRANCH  25  26
ATOM     26  C   UNL     1       7.853   4.162   3.678  0.00  0.00    +0.211 A 
ATOM     27  N   UNL     1       8.016   4.345   4.957  0.00  0.00    -0.192 NA
ATOM     28  C   UNL     1       8.059   5.662   5.233  0.00  0.00    +0.209 A 
ATOM     29  N   UNL     1       7.921   6.329   4.110  0.00  0.00    -0.056 NA
ATOM     30  O   UNL     1       7.791   5.360   3.081  0.00  0.00    -0.340 OA
BRANCH  28  31
ATOM     31  C   UNL     1       8.232   6.258   6.574  0.00  0.00    +0.060 A 
ATOM     32  C   UNL     1       8.279   7.579   6.932  0.00  0.00    +0.019 A 
ATOM     33  C   UNL     1       8.449   7.899   8.260  0.00  0.00    +0.008 A 
ATOM     34  C   UNL     1       8.565   6.899   9.172  0.00  0.00    +0.046 A 
ATOM     35  S   UNL     1       8.425   5.442   8.150  0.00  0.00    -0.093 S 
ENDBRANCH  28  31
ENDBRANCH  25  26
ENDBRANCH   4  25
TORSDOF 8
