REMARK  Name = ZINC12812352
REMARK  10 active torsions:
REMARK  status: ('A' for Active; 'I' for Inactive)
REMARK    1  A    between atoms: C_1  and  C_2
REMARK    2  A    between atoms: C_3  and  C_31
REMARK    3  A    between atoms: C_7  and  S_18
REMARK    4  A    between atoms: C_9  and  C_11
REMARK    5  A    between atoms: C_11  and  N_60
REMARK    6  A    between atoms: C_14  and  C_17
REMARK    7  A    between atoms: S_18  and  C_19
REMARK    8  A    between atoms: C_22  and  C_25
REMARK    9  A    between atoms: N_23  and  C_24
REMARK   10  A    between atoms: C_29  and  C_30
REMARK                            x       y       z     vdW  Elec       q    Type
REMARK                         _______ _______ _______ _____ _____    ______ ____
ROOT
ATOM      1  C   UNL     1      -7.809   3.434  -1.176  0.00  0.00    +0.045 C 
ATOM      2  C   UNL     1      -7.694   4.936  -1.129  0.00  0.00    -0.029 A 
ATOM      3  C   UNL     1      -8.776   5.705  -1.318  0.00  0.00    -0.008 A 
ATOM      4  S   UNL     1      -8.138   7.364  -1.171  0.00  0.00    -0.074 S 
ATOM      5  C   UNL     1      -6.436   6.979  -0.860  0.00  0.00    +0.113 A 
ATOM      6  C   UNL     1      -6.409   5.566  -0.885  0.00  0.00    +0.043 A 
ATOM      7  C   UNL     1      -5.135   4.977  -0.651  0.00  0.00    +0.116 A 
ATOM      8  N   UNL     1      -4.090   5.762  -0.442  0.00  0.00    -0.227 NA
ATOM      9  C   UNL     1      -4.188   7.079  -0.438  0.00  0.00    +0.115 A 
ATOM     10  N   UNL     1      -5.343   7.683  -0.644  0.00  0.00    -0.227 NA
ATOM     11  C   UNL     1     -10.193   5.272  -1.590  0.00  0.00    +0.052 C 
ENDROOT
BRANCH   9  12
ATOM     12  C   UNL     1      -2.955   7.909  -0.193  0.00  0.00    -0.001 C 
BRANCH  12  19
ATOM     13  C   UNL     1      -3.278   8.635  -2.480  0.00  0.00    -0.078 C 
ATOM     14  C   UNL     1      -2.584   8.791  -3.835  0.00  0.00    -0.016 C 
ATOM     15  C   UNL     1      -1.460   9.823  -3.712  0.00  0.00    -0.018 C 
ATOM     16  C   UNL     1      -0.480   9.372  -2.625  0.00  0.00    -0.016 C 
ATOM     17  C   UNL     1      -1.235   9.199  -1.305  0.00  0.00    -0.078 C 
ATOM     18  C   UNL     1      -0.724   9.938  -5.048  0.00  0.00    +0.007 C 
ATOM     19  N   UNL     1      -2.287   8.176  -1.483  0.00  0.00    +0.384 N 
ATOM     20  H   UNL     1      -1.853   7.308  -1.820  0.00  0.00    -0.081 HD
ENDBRANCH  12  19
ENDBRANCH   9  12
BRANCH   7  21
ATOM     21  S   UNL     1      -4.951   3.225  -0.646  0.00  0.00    -0.029 S 
BRANCH  21  22
ATOM     22  C   UNL     1      -3.223   3.100  -0.325  0.00  0.00    +0.198 A 
ATOM     23  N   UNL     1      -2.389   4.098  -0.151  0.00  0.00    -0.122 NA
ATOM     24  N   UNL     1      -1.204   3.651   0.068  0.00  0.00    -0.128 NA
ATOM     25  C   UNL     1      -1.208   2.339   0.040  0.00  0.00    +0.168 A 
ATOM     26  N   UNL     1      -2.501   1.945  -0.210  0.00  0.00    -0.305 N 
ATOM     27  C   UNL     1      -3.001   0.573  -0.327  0.00  0.00    +0.153 C 
BRANCH  25  28
ATOM     28  C   UNL     1      -0.042   1.452   0.244  0.00  0.00    +0.060 A 
ATOM     29  C   UNL     1       0.025   0.258   1.097  0.00  0.00    +0.053 A 
ATOM     30  C   UNL     1       1.272  -0.223   0.963  0.00  0.00    +0.196 A 
ATOM     31  O   UNL     1       1.956   0.562   0.117  0.00  0.00    -0.467 OA
ATOM     32  C   UNL     1       1.188   1.569  -0.324  0.00  0.00    +0.112 A 
ATOM     33  C   UNL     1       1.616   2.647  -1.287  0.00  0.00    +0.087 C 
ENDBRANCH  25  28
ENDBRANCH  21  22
ENDBRANCH   7  21
TORSDOF 5
