REMARK  Name = ZINC65490212
REMARK  4 active torsions:
REMARK  status: ('A' for Active; 'I' for Inactive)
REMARK    1  A    between atoms: C_6  and  C_11
REMARK    2  A    between atoms: C_17  and  O_19
REMARK    3  A    between atoms: C_20  and  C_22
REMARK    4  A    between atoms: C_22  and  C_23
REMARK                            x       y       z     vdW  Elec       q    Type
REMARK                         _______ _______ _______ _____ _____    ______ ____
ROOT
ATOM      1  C   UNL     1       5.008  -2.700  -0.060  0.00  0.00    +0.051 C 
ATOM      2  C   UNL     1       5.096  -3.571  -1.315  0.00  0.00    +0.029 C 
ATOM      3  C   UNL     1       6.454  -4.279  -1.347  0.00  0.00    +0.108 C 
ATOM      4  N   UNL     1       6.633  -5.015  -0.088  0.00  0.00    -0.299 N 
ATOM      5  C   UNL     1       6.480  -4.292   1.181  0.00  0.00    +0.139 C 
ATOM      6  C   UNL     1       5.121  -3.584   1.184  0.00  0.00    +0.139 C 
ATOM      7  C   UNL     1       6.931  -6.330  -0.097  0.00  0.00    +0.221 C 
ATOM      8  O   UNL     1       7.077  -6.926   0.949  0.00  0.00    -0.275 OA
ENDROOT
BRANCH   1  14
ATOM      9  C   UNL     1      -0.016   1.357   0.009  0.00  0.00    +0.001 A 
ATOM     10  C   UNL     1       1.169   2.091   0.002  0.00  0.00    +0.001 A 
ATOM     11  C   UNL     1       2.378   1.468  -0.013  0.00  0.00    +0.008 A 
ATOM     12  C   UNL     1       2.438   0.063  -0.021  0.00  0.00    -0.018 A 
ATOM     13  C   UNL     1       3.668  -0.615  -0.036  0.00  0.00    +0.012 A 
ATOM     14  C   UNL     1       3.687  -1.976  -0.043  0.00  0.00    -0.041 A 
ATOM     15  C   UNL     1       2.502  -2.710  -0.036  0.00  0.00    +0.004 A 
ATOM     16  C   UNL     1       1.292  -2.087  -0.021  0.00  0.00    +0.009 A 
ATOM     17  C   UNL     1       1.233  -0.683  -0.013  0.00  0.00    -0.018 A 
ATOM     18  C   UNL     1       0.002  -0.004   0.002  0.00  0.00    +0.008 A 
ENDBRANCH   1  14
BRANCH   6  19
ATOM     19  O   UNL     1       5.008  -2.774   2.356  0.00  0.00    -0.390 OA
ATOM     20  H   UNL     1       5.071  -3.269   3.184  0.00  0.00    +0.210 HD
ENDBRANCH   6  19
BRANCH   7  21
ATOM     21  C   UNL     1       7.085  -7.058  -1.408  0.00  0.00    +0.151 C 
BRANCH  21  22
ATOM     22  C   UNL     1       7.416  -8.504  -1.143  0.00  0.00    +0.059 A 
ATOM     23  C   UNL     1       6.421  -9.438  -1.119  0.00  0.00    +0.094 A 
ATOM     24  C   UNL     1       6.755 -10.781  -0.871  0.00  0.00    +0.253 A 
ATOM     25  O   UNL     1       5.890 -11.641  -0.843  0.00  0.00    -0.268 OA
ATOM     26  N   UNL     1       8.050 -11.100  -0.663  0.00  0.00    -0.295 N 
ATOM     27  H   UNL     1       8.303 -12.020  -0.490  0.00  0.00    +0.172 HD
ATOM     28  C   UNL     1       8.999 -10.126  -0.698  0.00  0.00    +0.193 A 
ATOM     29  N   UNL     1       8.679  -8.870  -0.937  0.00  0.00    -0.221 NA
ATOM     30  N   UNL     1      10.311 -10.457  -0.487  0.00  0.00    -0.329 N 
ATOM     31  H   UNL     1      10.556 -11.380  -0.314  0.00  0.00    +0.145 HD
ATOM     32  H   UNL     1      10.995  -9.770  -0.510  0.00  0.00    +0.145 HD
ENDBRANCH  21  22
ENDBRANCH   7  21
TORSDOF 4
