REMARK  Name = ZINC15821723
REMARK  6 active torsions:
REMARK  status: ('A' for Active; 'I' for Inactive)
REMARK    1  A    between atoms: C_1  and  O_2
REMARK    2  A    between atoms: O_2  and  C_3
REMARK    3  A    between atoms: C_5  and  C_19
REMARK    4  A    between atoms: C_8  and  O_9
REMARK    5  A    between atoms: O_9  and  C_10
REMARK    6  A    between atoms: C_10  and  C_11
REMARK                            x       y       z     vdW  Elec       q    Type
REMARK                         _______ _______ _______ _____ _____    ______ ____
ROOT
ATOM      1  C   UNL     1      -1.382  -0.969   0.820  0.00  0.00    +0.163 A 
ATOM      2  C   UNL     1      -2.458  -0.129   0.610  0.00  0.00    +0.057 A 
ATOM      3  C   UNL     1      -3.703  -0.666   0.262  0.00  0.00    -0.019 A 
ATOM      4  C   UNL     1      -3.850  -2.052   0.127  0.00  0.00    +0.027 A 
ATOM      5  C   UNL     1      -2.770  -2.882   0.337  0.00  0.00    +0.064 A 
ATOM      6  C   UNL     1      -1.534  -2.347   0.678  0.00  0.00    +0.176 A 
ATOM      7 BR   UNL     1      -2.969  -4.754   0.155  0.00  0.00    -0.046 Br
ENDROOT
BRANCH   3   8
ATOM      8  C   UNL     1      -4.852   0.221   0.038  0.00  0.00    +0.028 C 
ATOM      9  C   UNL     1      -5.942  -0.235  -0.628  0.00  0.00    +0.078 C 
ATOM     10  C   UNL     1      -7.248   0.417  -0.843  0.00  0.00    +0.256 C 
ATOM     11  O   UNL     1      -7.487   1.525  -0.400  0.00  0.00    -0.269 OA
ATOM     12  N   UNL     1      -8.149  -0.257  -1.538  0.00  0.00    -0.261 N 
ATOM     13  C   UNL     1      -7.858  -1.513  -2.032  0.00  0.00    +0.158 C 
ATOM     14  N   UNL     1      -8.622  -2.307  -2.730  0.00  0.00    -0.279 NA
ATOM     15  S   UNL     1      -6.179  -1.783  -1.488  0.00  0.00    -0.049 S 
ATOM     16  H   UNL     1      -9.021   0.134  -1.703  0.00  0.00    +0.157 HD
ATOM     17  H   UNL     1      -8.290  -3.172  -3.016  0.00  0.00    +0.189 HD
ENDBRANCH   3   8
BRANCH   1  19
ATOM     18  C   UNL     1      -0.087   0.971   1.287  0.00  0.00    +0.277 C 
ATOM     19  O   UNL     1      -0.171  -0.450   1.159  0.00  0.00    -0.491 OA
ENDBRANCH   1  19
BRANCH   6  20
ATOM     20  O   UNL     1      -0.471  -3.170   0.878  0.00  0.00    -0.483 OA
BRANCH  20  21
ATOM     21  C   UNL     1      -0.269  -3.656   2.207  0.00  0.00    +0.264 C 
BRANCH  21  22
ATOM     22  C   UNL     1       0.947  -4.546   2.236  0.00  0.00    -0.010 A 
ATOM     23  C   UNL     1       0.815  -5.902   2.002  0.00  0.00    +0.008 A 
ATOM     24  C   UNL     1       1.930  -6.720   2.028  0.00  0.00    +0.020 A 
ATOM     25  C   UNL     1       3.177  -6.180   2.290  0.00  0.00    +0.041 A 
ATOM     26  C   UNL     1       3.307  -4.823   2.524  0.00  0.00    +0.020 A 
ATOM     27  C   UNL     1       2.193  -4.006   2.491  0.00  0.00    +0.008 A 
ATOM     28 CL   UNL     1       4.577  -7.206   2.324  0.00  0.00    -0.084 Cl
ENDBRANCH  21  22
ENDBRANCH  20  21
ENDBRANCH   6  20
TORSDOF 5
