REMARK  Name = ZINC01559495
REMARK  6 active torsions:
REMARK  status: ('A' for Active; 'I' for Inactive)
REMARK    1  A    between atoms: C_4  and  C_7
REMARK    2  A    between atoms: C_7  and  C_9
REMARK    3  A    between atoms: C_7  and  N_23
REMARK    4  A    between atoms: C_9  and  C_10
REMARK    5  A    between atoms: C_9  and  C_16
REMARK    6  A    between atoms: C_9  and  O_22
REMARK                            x       y       z     vdW  Elec       q    Type
REMARK                         _______ _______ _______ _____ _____    ______ ____
ROOT
ATOM      1  C   UNL     1      -2.279   0.139  -1.128  0.00  0.00    +0.138 C 
ENDROOT
BRANCH   1   2
ATOM      2  C   UNL     1      -3.439  -0.823  -1.169  0.00  0.00    -0.010 A 
ATOM      3  C   UNL     1      -4.659  -0.458  -0.630  0.00  0.00    +0.007 A 
ATOM      4  C   UNL     1      -5.723  -1.339  -0.671  0.00  0.00    +0.000 A 
ATOM      5  C   UNL     1      -5.566  -2.588  -1.242  0.00  0.00    +0.000 A 
ATOM      6  C   UNL     1      -4.345  -2.954  -1.777  0.00  0.00    +0.000 A 
ATOM      7  C   UNL     1      -3.281  -2.072  -1.740  0.00  0.00    +0.007 A 
ENDBRANCH   1   2
BRANCH   1   8
ATOM      8  C   UNL     1      -2.285   0.986  -2.374  0.00  0.00    -0.010 A 
ATOM      9  C   UNL     1      -2.982   2.179  -2.395  0.00  0.00    +0.007 A 
ATOM     10  C   UNL     1      -2.984   2.959  -3.537  0.00  0.00    +0.000 A 
ATOM     11  C   UNL     1      -2.297   2.540  -4.661  0.00  0.00    +0.000 A 
ATOM     12  C   UNL     1      -1.605   1.343  -4.642  0.00  0.00    +0.000 A 
ATOM     13  C   UNL     1      -1.599   0.567  -3.498  0.00  0.00    +0.007 A 
ENDBRANCH   1   8
BRANCH   1  14
ATOM     14  O   UNL     1      -1.055  -0.594  -1.056  0.00  0.00    -0.377 OA
ATOM     15  H   UNL     1      -0.269  -0.039  -0.956  0.00  0.00    +0.211 HD
ENDBRANCH   1  14
BRANCH   1  16
ATOM     16  C   UNL     1      -2.407   1.040   0.102  0.00  0.00    +0.145 C 
BRANCH  16  17
ATOM     17  N   UNL     1      -1.347   2.050   0.079  0.00  0.00    -0.289 N 
ATOM     18  C   UNL     1      -1.491   3.195   0.776  0.00  0.00    +0.298 C 
ATOM     19  O   UNL     1      -2.534   3.426   1.356  0.00  0.00    -0.253 OA
ATOM     20  N   UNL     1      -0.477   4.080   0.836  0.00  0.00    -0.313 N 
ATOM     21  H   UNL     1      -0.541   1.896  -0.438  0.00  0.00    +0.151 HD
ATOM     22  H   UNL     1      -0.579   4.902   1.341  0.00  0.00    +0.146 HD
ATOM     23  H   UNL     1       0.356   3.896   0.373  0.00  0.00    +0.146 HD
ENDBRANCH  16  17
BRANCH  16  27
ATOM     24  C   UNL     1      -2.047  -1.323   3.642  0.00  0.00    +0.000 A 
ATOM     25  C   UNL     1      -3.292  -0.903   3.215  0.00  0.00    +0.000 A 
ATOM     26  C   UNL     1      -3.409  -0.139   2.069  0.00  0.00    +0.005 A 
ATOM     27  C   UNL     1      -2.280   0.206   1.351  0.00  0.00    -0.024 A 
ATOM     28  C   UNL     1      -1.034  -0.218   1.775  0.00  0.00    +0.005 A 
ATOM     29  C   UNL     1      -0.917  -0.979   2.923  0.00  0.00    +0.000 A 
ENDBRANCH  16  27
ENDBRANCH   1  16
TORSDOF 6
