REMARK  Name = ZINC20504481
REMARK  8 active torsions:
REMARK  status: ('A' for Active; 'I' for Inactive)
REMARK    1  A    between atoms: C_1  and  C_2
REMARK    2  A    between atoms: N_9  and  C_10
REMARK    3  A    between atoms: C_12  and  C_34
REMARK    4  A    between atoms: C_15  and  O_33
REMARK    5  A    between atoms: C_17  and  C_21
REMARK    6  A    between atoms: C_21  and  C_23
REMARK    7  A    between atoms: C_21  and  C_24
REMARK    8  A    between atoms: N_29  and  C_32
REMARK                            x       y       z     vdW  Elec       q    Type
REMARK                         _______ _______ _______ _____ _____    ______ ____
ROOT
ATOM      1  C   UNL     1       1.017   4.300   2.570  0.00  0.00    +0.014 C 
ATOM      2  C   UNL     1       2.167   3.769   1.712  0.00  0.00    +0.039 C 
ATOM      3  C   UNL     1       3.341   4.733   1.784  0.00  0.00    +0.031 A 
ATOM      4  C   UNL     1       4.053   5.024   0.666  0.00  0.00    +0.013 A 
ATOM      5  S   UNL     1       5.280   6.153   1.268  0.00  0.00    -0.059 S 
ATOM      6  C   UNL     1       4.767   6.160   2.929  0.00  0.00    +0.136 A 
ATOM      7  N   UNL     1       3.740   5.335   2.904  0.00  0.00    -0.340 N 
ATOM      8  N   UNL     1       5.300   6.856   4.003  0.00  0.00    -0.328 N 
ATOM      9  C   UNL     1       6.459   7.731   3.806  0.00  0.00    +0.127 C 
ATOM     10  C   UNL     1       3.834   4.507  -0.712  0.00  0.00    +0.051 C 
ATOM     11  C   UNL     1       2.885   3.294  -0.649  0.00  0.00    -0.022 C 
ATOM     12  C   UNL     1       1.700   3.636   0.257  0.00  0.00    +0.033 C 
ATOM     13  C   UNL     1       0.659   2.512   0.209  0.00  0.00    +0.123 C 
ATOM     14  C   UNL     1       0.182   2.290  -1.225  0.00  0.00    +0.029 C 
ATOM     15  C   UNL     1       1.389   1.863  -2.070  0.00  0.00    +0.007 C 
ATOM     16  C   UNL     1       2.398   3.009  -2.073  0.00  0.00    +0.008 C 
ATOM     17  C   UNL     1       3.630   2.076  -0.097  0.00  0.00    +0.012 C 
ATOM     18  H   UNL     1       4.854   6.751   5.002  0.00  0.00    +0.148 HD
ATOM     19  H   UNL     1       3.208   5.148   3.849  0.00  0.00    +0.167 HD
ENDROOT
BRANCH  14  20
ATOM     20  C   UNL     1      -0.426   3.584  -1.769  0.00  0.00    +0.078 C 
ATOM     21  C   UNL     1      -1.697   3.918  -0.986  0.00  0.00    +0.017 C 
BRANCH  20  22
ATOM     22  C   UNL     1      -0.766   3.404  -3.227  0.00  0.00    +0.219 C 
ATOM     23  O   UNL     1      -1.020   2.300  -3.659  0.00  0.00    -0.275 OA
ATOM     24  N   UNL     1      -0.789   4.471  -4.050  0.00  0.00    -0.299 N 
ATOM     25  C   UNL     1      -0.601   5.833  -3.526  0.00  0.00    +0.123 C 
ATOM     26  C   UNL     1       0.496   6.521  -4.354  0.00  0.00    +0.103 C 
ATOM     27  N   UNL     1       0.146   6.447  -5.778  0.00  0.00    -0.302 NA
ATOM     28  C   UNL     1       0.099   5.054  -6.244  0.00  0.00    +0.103 C 
ATOM     29  C   UNL     1      -1.009   4.306  -5.494  0.00  0.00    +0.123 C 
ATOM     30  C   UNL     1       1.076   7.242  -6.591  0.00  0.00    +0.105 C 
ENDBRANCH  20  22
ENDBRANCH  14  20
BRANCH  13  31
ATOM     31  O   UNL     1      -0.459   2.868   1.025  0.00  0.00    -0.391 OA
ATOM     32  H   UNL     1      -1.313   2.182   1.117  0.00  0.00    +0.210 HD
ENDBRANCH  13  31
TORSDOF 3
