REMARK  Name = ZINC13064943
REMARK  12 active torsions:
REMARK  status: ('A' for Active; 'I' for Inactive)
REMARK    1  A    between atoms: C_1  and  C_2
REMARK    2  A    between atoms: C_2  and  C_3
REMARK    3  A    between atoms: C_3  and  C_5
REMARK    4  A    between atoms: C_3  and  N_68
REMARK    5  A    between atoms: N_9  and  C_10
REMARK    6  A    between atoms: C_10  and  C_11
REMARK    7  A    between atoms: C_18  and  C_19
REMARK    8  A    between atoms: C_18  and  N_68
REMARK    9  A    between atoms: C_25  and  C_26
REMARK   10  A    between atoms: C_25  and  N_68
REMARK   11  A    between atoms: C_29  and  C_39
REMARK   12  A    between atoms: C_31  and  C_38
REMARK                            x       y       z     vdW  Elec       q    Type
REMARK                         _______ _______ _______ _____ _____    ______ ____
ROOT
ATOM      1  N   UNL     1       2.887   0.827  -1.470  0.00  0.00    +0.392 N 
ATOM      2  H   UNL     1       3.067   1.781  -1.804  0.00  0.00    -0.080 HD
ENDROOT
BRANCH   1   3
ATOM      3  C   UNL     1       1.839   0.213  -2.314  0.00  0.00    +0.003 C 
BRANCH   3   4
ATOM      4  C   UNL     1       1.679  -1.247  -1.979  0.00  0.00    +0.138 A 
ATOM      5  N   UNL     1       2.642  -2.113  -1.773  0.00  0.00    -0.115 NA
ATOM      6  N   UNL     1       2.102  -3.254  -1.513  0.00  0.00    -0.023 NA
ATOM      7  N   UNL     1       0.820  -3.138  -1.548  0.00  0.00    -0.044 NA
ATOM      8  N   UNL     1       0.520  -1.915  -1.827  0.00  0.00    -0.226 N 
BRANCH   8   9
ATOM      9  C   UNL     1      -0.828  -1.357  -1.957  0.00  0.00    +0.182 C 
BRANCH   9  10
ATOM     10  C   UNL     1      -1.322  -1.561  -3.366  0.00  0.00    -0.026 A 
ATOM     11  C   UNL     1      -1.087  -0.596  -4.327  0.00  0.00    +0.008 A 
ATOM     12  C   UNL     1      -1.535  -0.784  -5.621  0.00  0.00    +0.038 A 
ATOM     13  C   UNL     1      -2.230  -1.935  -5.951  0.00  0.00    +0.123 A 
ATOM     14  C   UNL     1      -2.470  -2.899  -4.987  0.00  0.00    +0.038 A 
ATOM     15  C   UNL     1      -2.016  -2.711  -3.695  0.00  0.00    +0.008 A 
ATOM     16  F   UNL     1      -2.673  -2.118  -7.215  0.00  0.00    -0.205 F 
ENDBRANCH   9  10
ENDBRANCH   8   9
ENDBRANCH   3   4
BRANCH   3  18
ATOM     17  C   UNL     1       2.264   1.841  -4.161  0.00  0.00    +0.002 C 
ATOM     18  C   UNL     1       2.240   0.358  -3.783  0.00  0.00    -0.011 C 
ENDBRANCH   3  18
ENDBRANCH   1   3
BRANCH   1  19
ATOM     19  C   UNL     1       2.433   0.887  -0.065  0.00  0.00    -0.040 C 
BRANCH  19  20
ATOM     20  C   UNL     1       1.411   1.987   0.066  0.00  0.00    -0.046 A 
ATOM     21  C   UNL     1       0.056   1.694   0.029  0.00  0.00    +0.005 A 
ATOM     22  C   UNL     1      -0.848   2.738   0.149  0.00  0.00    +0.020 A 
ATOM     23  C   UNL     1      -0.372   4.026   0.312  0.00  0.00    +0.111 A 
ATOM     24  N   UNL     1       0.924   4.267   0.343  0.00  0.00    -0.263 NA
ATOM     25  C   UNL     1       1.812   3.299   0.227  0.00  0.00    +0.112 A 
ENDBRANCH  19  20
ENDBRANCH   1  19
BRANCH   1  26
ATOM     26  C   UNL     1       4.135   0.041  -1.565  0.00  0.00    -0.036 C 
BRANCH  26  27
ATOM     27  C   UNL     1       5.286   0.910  -1.127  0.00  0.00    +0.001 A 
ATOM     28  C   UNL     1       5.731   0.848   0.152  0.00  0.00    +0.017 A 
ATOM     29  C   UNL     1       6.851   1.705   0.545  0.00  0.00    +0.002 A 
ATOM     30  C   UNL     1       7.355   1.685   1.850  0.00  0.00    -0.041 A 
ATOM     31  C   UNL     1       8.401   2.497   2.185  0.00  0.00    +0.007 A 
ATOM     32  C   UNL     1       8.969   3.342   1.242  0.00  0.00    -0.048 A 
ATOM     33  C   UNL     1       8.489   3.379  -0.050  0.00  0.00    +0.029 A 
ATOM     34  C   UNL     1       7.425   2.561  -0.414  0.00  0.00    +0.050 A 
ATOM     35  N   UNL     1       6.926   2.576  -1.699  0.00  0.00    -0.322 N 
ATOM     36  H   UNL     1       7.322   3.167  -2.359  0.00  0.00    +0.169 HD
ATOM     37  C   UNL     1       5.901   1.782  -2.052  0.00  0.00    +0.251 A 
ATOM     38  O   UNL     1       5.488   1.818  -3.199  0.00  0.00    -0.268 OA
ATOM     39  C   UNL     1      10.123   4.229   1.634  0.00  0.00    +0.044 C 
ATOM     40  C   UNL     1       6.745   0.771   2.882  0.00  0.00    +0.044 C 
ENDBRANCH  26  27
ENDBRANCH   1  26
TORSDOF 9
