REMARK  Name = ZINC39487880
REMARK  7 active torsions:
REMARK  status: ('A' for Active; 'I' for Inactive)
REMARK    1  A    between atoms: C_1  and  C_2
REMARK    2  A    between atoms: C_2  and  C_29
REMARK    3  A    between atoms: N_7  and  C_8
REMARK    4  A    between atoms: C_8  and  C_9
REMARK    5  A    between atoms: C_9  and  C_22
REMARK    6  A    between atoms: N_12  and  C_15
REMARK    7  A    between atoms: C_15  and  C_16
REMARK                            x       y       z     vdW  Elec       q    Type
REMARK                         _______ _______ _______ _____ _____    ______ ____
ROOT
ATOM      1  C   UNL     1      -1.424  -1.416   1.956  0.00  0.00    -0.014 C 
ATOM      2  C   UNL     1      -1.058  -2.758   1.316  0.00  0.00    -0.010 C 
ATOM      3  C   UNL     1      -0.864  -2.564  -0.189  0.00  0.00    -0.078 C 
ATOM      4  N   UNL     1      -2.107  -2.059  -0.785  0.00  0.00    +0.382 N 
ATOM      5  C   UNL     1      -2.427  -0.739  -0.228  0.00  0.00    -0.078 C 
ATOM      6  C   UNL     1      -2.680  -0.864   1.276  0.00  0.00    -0.010 C 
ATOM      7  H   UNL     1      -2.860  -2.700  -0.582  0.00  0.00    -0.081 HD
ENDROOT
BRANCH   1   8
ATOM      8  C   UNL     1      -1.696  -1.616   3.448  0.00  0.00    -0.003 C 
ATOM      9  C   UNL     1      -0.517  -2.352   4.088  0.00  0.00    +0.004 C 
ATOM     10  C   UNL     1      -0.789  -2.552   5.580  0.00  0.00    +0.000 C 
ATOM     11  C   UNL     1      -2.064  -3.378   5.760  0.00  0.00    +0.000 C 
ATOM     12  C   UNL     1      -3.243  -2.642   5.120  0.00  0.00    +0.000 C 
ATOM     13  C   UNL     1      -2.971  -2.442   3.628  0.00  0.00    +0.004 C 
ENDBRANCH   1   8
BRANCH   1  14
ATOM     14  C   UNL     1      -0.268  -0.430   1.774  0.00  0.00    +0.117 C 
BRANCH  14  21
ATOM     15  C   UNL     1      -2.315   1.926   1.264  0.00  0.00    +0.038 C 
ATOM     16  C   UNL     1      -0.969   2.075   1.975  0.00  0.00    +0.078 C 
ATOM     17  C   UNL     1      -1.106   2.993   3.206  0.00  0.00    +0.153 C 
ATOM     18  N   UNL     1      -0.740   2.125   4.335  0.00  0.00    -0.219 N 
ATOM     19  C   UNL     1      -0.436   0.905   3.873  0.00  0.00    +0.315 C 
ATOM     20  O   UNL     1      -0.097  -0.012   4.595  0.00  0.00    -0.252 OA
ATOM     21  N   UNL     1      -0.540   0.787   2.542  0.00  0.00    -0.273 N 
ATOM     22 BR   UNL     1      -0.703   2.637   6.112  0.00  0.00    +0.040 Br
BRANCH  16  23
ATOM     23  C   UNL     1       0.073   2.609   1.027  0.00  0.00    -0.023 A 
ATOM     24  C   UNL     1       1.361   2.108   1.062  0.00  0.00    +0.006 A 
ATOM     25  C   UNL     1       2.317   2.598   0.192  0.00  0.00    +0.000 A 
ATOM     26  C   UNL     1       1.985   3.588  -0.714  0.00  0.00    +0.000 A 
ATOM     27  C   UNL     1       0.696   4.088  -0.750  0.00  0.00    +0.000 A 
ATOM     28  C   UNL     1      -0.261   3.595   0.117  0.00  0.00    +0.006 A 
ENDBRANCH  16  23
ENDBRANCH  14  21
ENDBRANCH   1  14
BRANCH   4  29
ATOM     29  C   UNL     1      -1.942  -1.948  -2.240  0.00  0.00    -0.043 C 
BRANCH  29  30
ATOM     30  C   UNL     1      -3.262  -1.587  -2.870  0.00  0.00    -0.064 A 
ATOM     31  C   UNL     1      -4.167  -2.581  -3.195  0.00  0.00    +0.002 A 
ATOM     32  C   UNL     1      -5.379  -2.250  -3.773  0.00  0.00    +0.000 A 
ATOM     33  C   UNL     1      -5.685  -0.926  -4.026  0.00  0.00    +0.000 A 
ATOM     34  C   UNL     1      -4.781   0.067  -3.700  0.00  0.00    +0.000 A 
ATOM     35  C   UNL     1      -3.571  -0.263  -3.118  0.00  0.00    +0.002 A 
ENDBRANCH  29  30
ENDBRANCH   4  29
TORSDOF 6
