REMARK  Name = ZINC66908972
REMARK  11 active torsions:
REMARK  status: ('A' for Active; 'I' for Inactive)
REMARK    1  A    between atoms: C_1  and  C_2
REMARK    2  A    between atoms: C_2  and  N_3
REMARK    3  A    between atoms: N_3  and  C_4
REMARK    4  A    between atoms: N_3  and  C_6
REMARK    5  A    between atoms: C_4  and  C_5
REMARK    6  A    between atoms: C_6  and  C_8
REMARK    7  A    between atoms: C_6  and  C_24
REMARK    8  A    between atoms: C_8  and  N_9
REMARK    9  A    between atoms: N_12  and  N_13
REMARK   10  A    between atoms: C_14  and  C_16
REMARK   11  A    between atoms: C_16  and  C_17
REMARK                            x       y       z     vdW  Elec       q    Type
REMARK                         _______ _______ _______ _____ _____    ______ ____
ROOT
ATOM      1  N   UNL     1       0.097  -1.500   1.910  0.00  0.00    -0.299 N 
ATOM      2  C   UNL     1       0.673  -1.688   3.113  0.00  0.00    +0.316 C 
ATOM      3  O   UNL     1       0.128  -2.385   3.946  0.00  0.00    -0.251 OA
ATOM      4  N   UNL     1       1.855  -1.102   3.394  0.00  0.00    -0.218 N 
ATOM      5  H   UNL     1       0.532  -0.943   1.245  0.00  0.00    +0.150 HD
ATOM      6  H   UNL     1       2.269  -1.237   4.260  0.00  0.00    +0.174 HD
ENDROOT
BRANCH   4   7
ATOM      7  N   UNL     1       2.483  -0.298   2.434  0.00  0.00    -0.233 N 
ATOM      8  C   UNL     1       3.664   0.288   2.714  0.00  0.00    +0.234 C 
ATOM      9  O   UNL     1       4.183   0.119   3.798  0.00  0.00    -0.274 OA
ATOM     10  H   UNL     1       2.068  -0.163   1.568  0.00  0.00    +0.173 HD
BRANCH   8  11
ATOM     11  C   UNL     1       4.340   1.153   1.682  0.00  0.00    +0.135 C 
BRANCH  11  12
ATOM     12  C   UNL     1       5.635   1.683   2.241  0.00  0.00    -0.003 A 
ATOM     13  C   UNL     1       5.672   2.929   2.837  0.00  0.00    +0.007 A 
ATOM     14  C   UNL     1       6.860   3.416   3.350  0.00  0.00    +0.000 A 
ATOM     15  C   UNL     1       8.012   2.657   3.268  0.00  0.00    +0.003 A 
ATOM     16  C   UNL     1       7.978   1.410   2.673  0.00  0.00    +0.038 A 
ATOM     17  C   UNL     1       6.788   0.919   2.163  0.00  0.00    +0.127 A 
ATOM     18  F   UNL     1       6.752  -0.301   1.585  0.00  0.00    -0.205 F 
ENDBRANCH  11  12
ENDBRANCH   8  11
ENDBRANCH   4   7
BRANCH   1  19
ATOM     19  C   UNL     1      -1.187  -2.136   1.605  0.00  0.00    +0.095 C 
BRANCH  19  20
ATOM     20  C   UNL     1      -1.705  -1.621   0.260  0.00  0.00    -0.020 C 
BRANCH  20  21
ATOM     21  C   UNL     1      -2.626  -2.647  -0.349  0.00  0.00    -0.052 A 
ATOM     22  C   UNL     1      -2.194  -3.447  -1.390  0.00  0.00    +0.009 A 
ATOM     23  C   UNL     1      -3.047  -4.359  -1.916  0.00  0.00    +0.045 A 
ATOM     24  S   UNL     1      -4.514  -4.104  -0.930  0.00  0.00    -0.105 S 
ATOM     25  C   UNL     1      -3.888  -2.802   0.119  0.00  0.00    +0.047 A 
ENDBRANCH  20  21
BRANCH  20  26
ATOM     26  N   UNL     1      -2.438  -0.365   0.467  0.00  0.00    +0.385 N 
ATOM     27  H   UNL     1      -3.284  -0.551   0.985  0.00  0.00    -0.081 HD
BRANCH  26  29
ATOM     28  C   UNL     1      -2.368   1.876   1.450  0.00  0.00    -0.017 C 
ATOM     29  C   UNL     1      -1.599   0.574   1.222  0.00  0.00    -0.081 C 
ENDBRANCH  26  29
BRANCH  26  30
ATOM     30  C   UNL     1      -2.780   0.222  -0.836  0.00  0.00    -0.081 C 
ATOM     31  C   UNL     1      -3.828  -0.651  -1.529  0.00  0.00    -0.017 C 
ENDBRANCH  26  30
ENDBRANCH  20  26
ENDBRANCH  19  20
ENDBRANCH   1  19
TORSDOF 9
