REMARK  Name = ZINC42933645
REMARK  7 active torsions:
REMARK  status: ('A' for Active; 'I' for Inactive)
REMARK    1  A    between atoms: C_1  and  N_2
REMARK    2  A    between atoms: N_2  and  C_3
REMARK    3  A    between atoms: N_15  and  C_16
REMARK    4  A    between atoms: C_16  and  C_17
REMARK    5  A    between atoms: C_17  and  C_18
REMARK    6  A    between atoms: C_21  and  S_24
REMARK    7  A    between atoms: S_24  and  N_27
REMARK                            x       y       z     vdW  Elec       q    Type
REMARK                         _______ _______ _______ _____ _____    ______ ____
ROOT
ATOM      1  C   UNL     1      -0.018   1.461   0.010  0.00  0.00    +0.134 C 
ATOM      2  N   UNL     1       0.002  -0.004   0.002  0.00  0.00    -0.282 N 
ATOM      3  C   UNL     1       0.000  -0.672  -1.169  0.00  0.00    +0.302 C 
ATOM      4  O   UNL     1       0.017  -1.887  -1.175  0.00  0.00    -0.253 OA
ATOM      5  N   UNL     1      -0.020   0.009  -2.332  0.00  0.00    -0.299 N 
ATOM      6  H   UNL     1      -0.033   0.978  -2.327  0.00  0.00    +0.150 HD
ENDROOT
BRANCH   2   7
ATOM      7  C   UNL     1       0.024  -0.743   1.267  0.00  0.00    +0.108 C 
ATOM      8  C   UNL     1       1.263  -0.346   2.098  0.00  0.00    +0.032 C 
ATOM      9  C   UNL     1       0.729  -0.419   3.544  0.00  0.00    +0.037 C 
ATOM     10  C   UNL     1      -0.761  -0.173   3.429  0.00  0.00    -0.042 A 
ATOM     11  C   UNL     1      -1.167  -0.361   2.119  0.00  0.00    -0.024 A 
ATOM     12  C   UNL     1      -2.498  -0.191   1.777  0.00  0.00    +0.006 A 
ATOM     13  C   UNL     1      -3.423   0.165   2.739  0.00  0.00    +0.000 A 
ATOM     14  C   UNL     1      -3.019   0.352   4.048  0.00  0.00    +0.000 A 
ATOM     15  C   UNL     1      -1.688   0.186   4.393  0.00  0.00    +0.004 A 
ENDBRANCH   2   7
BRANCH   5  16
ATOM     16  C   UNL     1      -0.022  -0.717  -3.605  0.00  0.00    +0.110 C 
BRANCH  16  17
ATOM     17  C   UNL     1      -0.047   0.283  -4.762  0.00  0.00    +0.054 C 
BRANCH  17  18
ATOM     18  C   UNL     1      -0.049  -0.463  -6.072  0.00  0.00    -0.046 A 
ATOM     19  C   UNL     1       1.147  -0.794  -6.680  0.00  0.00    +0.005 A 
ATOM     20  C   UNL     1       1.145  -1.479  -7.881  0.00  0.00    +0.029 A 
ATOM     21  C   UNL     1      -0.053  -1.833  -8.473  0.00  0.00    +0.105 A 
ATOM     22  C   UNL     1      -1.249  -1.503  -7.864  0.00  0.00    +0.029 A 
ATOM     23  C   UNL     1      -1.247  -0.822  -6.661  0.00  0.00    +0.005 A 
BRANCH  21  24
ATOM     24  S   UNL     1      -0.056  -2.705 -10.004  0.00  0.00    +0.056 S 
ATOM     25  O   UNL     1      -1.309  -2.439 -10.620  0.00  0.00    -0.153 OA
ATOM     26  O   UNL     1       1.182  -2.414 -10.639  0.00  0.00    -0.153 OA
BRANCH  24  27
ATOM     27  N   UNL     1      -0.037  -4.322  -9.647  0.00  0.00    -0.204 NA
ATOM     28  H   UNL     1      -0.455  -4.956 -10.250  0.00  0.00    +0.144 HD
ATOM     29  H   UNL     1       0.392  -4.634  -8.835  0.00  0.00    +0.144 HD
ENDBRANCH  24  27
ENDBRANCH  21  24
ENDBRANCH  17  18
ENDBRANCH  16  17
ENDBRANCH   5  16
TORSDOF 6
