REMARK  Name = ZINC39533236
REMARK  11 active torsions:
REMARK  status: ('A' for Active; 'I' for Inactive)
REMARK    1  A    between atoms: C_1  and  C_2
REMARK    2  A    between atoms: C_2  and  C_3
REMARK    3  A    between atoms: C_3  and  C_4
REMARK    4  A    between atoms: C_7  and  C_10
REMARK    5  A    between atoms: C_10  and  C_12
REMARK    6  A    between atoms: C_10  and  N_15
REMARK    7  A    between atoms: C_12  and  N_13
REMARK    8  A    between atoms: N_13  and  O_14
REMARK    9  A    between atoms: C_19  and  S_22
REMARK   10  A    between atoms: S_22  and  O_25
REMARK   11  A    between atoms: O_25  and  C_26
REMARK                            x       y       z     vdW  Elec       q    Type
REMARK                         _______ _______ _______ _____ _____    ______ ____
ROOT
ATOM      1  N   UNL     1       0.315  -6.772  -2.527  0.00  0.00    -0.296 NA
ATOM      2  C   UNL     1      -1.035  -6.249  -2.784  0.00  0.00    +0.066 C 
ATOM      3  C   UNL     1      -1.508  -6.722  -4.160  0.00  0.00    -0.064 C 
ATOM      4  N   UNL     1      -1.519  -8.190  -4.197  0.00  0.00    +0.398 N 
ATOM      5  C   UNL     1      -0.160  -8.697  -3.963  0.00  0.00    +0.130 C 
ATOM      6  C   UNL     1       0.325  -8.241  -2.586  0.00  0.00    +0.095 C 
ATOM      7  H   UNL     1      -2.136  -8.540  -3.480  0.00  0.00    -0.083 HD
ATOM      8  H   UNL     1      -1.843  -8.501  -5.100  0.00  0.00    -0.083 HD
ENDROOT
BRANCH   5   9
ATOM      9  S   UNL     1      -0.171 -10.510  -4.031  0.00  0.00    +0.109 S 
ATOM     10  O   UNL     1       1.158 -11.009  -3.985  0.00  0.00    -0.138 OA
ATOM     11  O   UNL     1      -1.169 -11.026  -3.161  0.00  0.00    -0.138 OA
BRANCH   9  12
ATOM     12  O   UNL     1      -0.665 -10.846  -5.431  0.00  0.00    -0.347 OA
BRANCH  12  13
ATOM     13  C   UNL     1       0.260 -10.647  -6.406  0.00  0.00    +0.156 A 
ATOM     14  C   UNL     1       0.352  -9.414  -7.036  0.00  0.00    +0.048 A 
ATOM     15  C   UNL     1       1.294  -9.214  -8.026  0.00  0.00    +0.004 A 
ATOM     16  C   UNL     1       2.144 -10.241  -8.391  0.00  0.00    +0.000 A 
ATOM     17  C   UNL     1       2.055 -11.471  -7.765  0.00  0.00    +0.004 A 
ATOM     18  C   UNL     1       1.119 -11.674  -6.769  0.00  0.00    +0.048 A 
ENDBRANCH  12  13
ENDBRANCH   9  12
ENDBRANCH   5   9
BRANCH   1  19
ATOM     19  C   UNL     1       0.829  -6.293  -1.237  0.00  0.00    +0.103 C 
BRANCH  19  23
ATOM     20  C   UNL     1       2.601  -2.441  -1.754  0.00  0.00    -0.047 A 
ATOM     21  C   UNL     1       2.919  -3.205  -0.647  0.00  0.00    +0.004 A 
ATOM     22  C   UNL     1       2.346  -4.452  -0.480  0.00  0.00    +0.005 A 
ATOM     23  C   UNL     1       1.453  -4.934  -1.419  0.00  0.00    -0.029 A 
ATOM     24  C   UNL     1       1.134  -4.169  -2.526  0.00  0.00    +0.005 A 
ATOM     25  C   UNL     1       1.705  -2.921  -2.691  0.00  0.00    +0.004 A 
BRANCH  20  26
ATOM     26  C   UNL     1       3.227  -1.082  -1.936  0.00  0.00    +0.035 C 
BRANCH  26  28
ATOM     27  C   UNL     1       2.986   1.357  -1.449  0.00  0.00    +0.004 C 
ATOM     28  C   UNL     1       2.351  -0.023  -1.264  0.00  0.00    +0.001 C 
ENDBRANCH  26  28
ENDBRANCH  20  26
ENDBRANCH  19  23
BRANCH  19  29
ATOM     29  C   UNL     1      -0.323  -6.195  -0.234  0.00  0.00    +0.134 C 
BRANCH  29  30
ATOM     30  N   UNL     1      -0.928  -7.521  -0.053  0.00  0.00    -0.202 NA
ATOM     31  H   UNL     1      -1.340  -7.851  -0.913  0.00  0.00    +0.154 HD
BRANCH  30  32
ATOM     32  O   UNL     1      -1.914  -7.504   1.028  0.00  0.00    -0.315 OA
ATOM     33  H   UNL     1      -2.341  -8.357   1.184  0.00  0.00    +0.236 HD
ENDBRANCH  30  32
ENDBRANCH  29  30
ENDBRANCH  19  29
ENDBRANCH   1  19
TORSDOF 10
