REMARK  Name = ZINC46024297
REMARK  9 active torsions:
REMARK  status: ('A' for Active; 'I' for Inactive)
REMARK    1  A    between atoms: C_1  and  C_2
REMARK    2  A    between atoms: C_2  and  C_3
REMARK    3  A    between atoms: C_2  and  N_4
REMARK    4  A    between atoms: C_5  and  C_7
REMARK    5  A    between atoms: N_17  and  C_18
REMARK    6  A    between atoms: C_24  and  C_26
REMARK    7  A    between atoms: C_26  and  C_27
REMARK    8  A    between atoms: C_26  and  C_28
REMARK    9  A    between atoms: C_26  and  C_29
REMARK                            x       y       z     vdW  Elec       q    Type
REMARK                         _______ _______ _______ _____ _____    ______ ____
ROOT
ATOM      1  C   UNL     1      -0.563  -4.063   3.052  0.00  0.00    +0.302 C 
ATOM      2  O   UNL     1      -1.361  -3.796   2.177  0.00  0.00    -0.265 OA
ATOM      3  N   UNL     1      -0.996  -4.317   4.303  0.00  0.00    -0.291 N 
ATOM      4  C   UNL     1      -0.039  -4.467   5.409  0.00  0.00    +0.127 C 
ATOM      5  C   UNL     1      -0.413  -3.475   6.518  0.00  0.00    +0.128 C 
ATOM      6  N   UNL     1      -1.849  -3.607   6.801  0.00  0.00    -0.283 N 
ATOM      7  C   UNL     1      -2.806  -3.457   5.695  0.00  0.00    +0.128 C 
ATOM      8  C   UNL     1      -2.432  -4.442   4.587  0.00  0.00    +0.127 C 
ATOM      9  C   UNL     1      -2.282  -3.861   8.052  0.00  0.00    +0.303 C 
ATOM     10  O   UNL     1      -3.461  -4.075   8.256  0.00  0.00    -0.253 OA
ATOM     11  N   UNL     1      -1.407  -3.878   9.077  0.00  0.00    -0.296 N 
ATOM     12  H   UNL     1      -0.458  -3.774   8.906  0.00  0.00    +0.151 HD
ENDROOT
BRANCH  11  13
ATOM     13  C   UNL     1      -1.889  -4.053  10.449  0.00  0.00    +0.078 C 
ATOM     14  C   UNL     1      -1.954  -5.545  10.781  0.00  0.00    +0.022 C 
ATOM     15  C   UNL     1      -2.458  -5.727  12.214  0.00  0.00    +0.002 C 
ATOM     16  C   UNL     1      -1.501  -5.030  13.183  0.00  0.00    +0.000 C 
ATOM     17  C   UNL     1      -1.437  -3.538  12.852  0.00  0.00    +0.006 C 
ATOM     18  C   UNL     1      -0.933  -3.356  11.419  0.00  0.00    +0.015 C 
BRANCH  18  19
ATOM     19  C   UNL     1      -0.868  -1.863  11.087  0.00  0.00    -0.033 C 
ATOM     20  C   UNL     1      -2.284  -1.284  11.063  0.00  0.00    +0.011 C 
ATOM     21  C   UNL     1      -0.040  -1.140  12.151  0.00  0.00    +0.011 C 
ATOM     22  C   UNL     1      -0.216  -1.673   9.716  0.00  0.00    +0.011 C 
ENDBRANCH  18  19
ENDBRANCH  11  13
BRANCH   1  24
ATOM     23  N   UNL     1       1.343  -3.725   1.530  0.00  0.00    -0.305 N 
ATOM     24  C   UNL     1       0.898  -4.109   2.743  0.00  0.00    +0.299 C 
ATOM     25  O   UNL     1       1.685  -4.491   3.584  0.00  0.00    -0.265 OA
ATOM     26  H   UNL     1       0.714  -3.420   0.857  0.00  0.00    +0.149 HD
BRANCH  23  28
ATOM     27  C   UNL     1       3.153  -5.178   0.758  0.00  0.00    +0.027 C 
ATOM     28  C   UNL     1       2.775  -3.771   1.226  0.00  0.00    +0.067 C 
ATOM     29  C   UNL     1       3.095  -2.762   0.121  0.00  0.00    +0.027 C 
ENDBRANCH  23  28
ENDBRANCH   1  24
TORSDOF 4
