REMARK  Name = ZINC20756573
REMARK  6 active torsions:
REMARK  status: ('A' for Active; 'I' for Inactive)
REMARK    1  A    between atoms: C_4  and  C_7
REMARK    2  A    between atoms: C_7  and  N_8
REMARK    3  A    between atoms: N_8  and  S_9
REMARK    4  A    between atoms: S_9  and  C_12
REMARK    5  A    between atoms: C_25  and  C_28
REMARK    6  A    between atoms: C_31  and  N_34
REMARK                            x       y       z     vdW  Elec       q    Type
REMARK                         _______ _______ _______ _____ _____    ______ ____
ROOT
ATOM      1  C   UNL     1       4.944   5.438  -0.194  0.00  0.00    +0.106 A 
ATOM      2  C   UNL     1       4.925   4.963  -1.493  0.00  0.00    +0.030 A 
ATOM      3  C   UNL     1       4.407   3.710  -1.754  0.00  0.00    +0.025 A 
ATOM      4  C   UNL     1       3.910   2.932  -0.716  0.00  0.00    +0.031 A 
ATOM      5  C   UNL     1       3.929   3.404   0.587  0.00  0.00    -0.018 A 
ATOM      6  C   UNL     1       4.452   4.665   0.838  0.00  0.00    +0.034 A 
ATOM      7  C   UNL     1       3.409   2.601   1.737  0.00  0.00    +0.049 C 
ATOM      8  C   UNL     1       2.071   3.116   2.210  0.00  0.00    -0.023 C 
ATOM      9  C   UNL     1       1.308   2.119   2.585  0.00  0.00    -0.030 C 
ATOM     10  C   UNL     1       2.037   0.800   2.418  0.00  0.00    +0.033 C 
ATOM     11  C   UNL     1       3.140   1.129   1.369  0.00  0.00    +0.029 C 
ATOM     12  C   UNL     1       2.490   1.048  -0.016  0.00  0.00    +0.105 C 
ATOM     13  N   UNL     1       3.387   1.666  -0.998  0.00  0.00    -0.336 N 
ATOM     14  H   UNL     1       3.633   1.134  -1.929  0.00  0.00    +0.147 HD
ENDROOT
BRANCH  12  15
ATOM     15  C   UNL     1       1.175   1.783   0.000  0.00  0.00    -0.027 A 
ATOM     16  C   UNL     1       0.010   1.110   0.318  0.00  0.00    +0.008 A 
ATOM     17  C   UNL     1      -1.197   1.783   0.327  0.00  0.00    +0.033 A 
ATOM     18  C   UNL     1      -1.238   3.133   0.029  0.00  0.00    +0.126 A 
ATOM     19  C   UNL     1      -0.073   3.806  -0.287  0.00  0.00    +0.033 A 
ATOM     20  C   UNL     1       1.134   3.131  -0.301  0.00  0.00    +0.008 A 
BRANCH  18  21
ATOM     21  N   UNL     1      -2.530   3.855   0.045  0.00  0.00    +0.056 N 
ATOM     22  O   UNL     1      -2.566   5.043  -0.221  0.00  0.00    -0.126 OA
ATOM     23  O   UNL     1      -3.556   3.262   0.324  0.00  0.00    -0.126 OA
ENDBRANCH  18  21
ENDBRANCH  12  15
BRANCH   1  24
ATOM     24  S   UNL     1       5.602   7.037   0.145  0.00  0.00    +0.059 S 
ATOM     25  O   UNL     1       5.501   7.782  -1.061  0.00  0.00    -0.153 OA
ATOM     26  O   UNL     1       5.009   7.471   1.361  0.00  0.00    -0.153 OA
BRANCH  24  27
ATOM     27  N   UNL     1       7.219   6.847   0.449  0.00  0.00    -0.186 NA
ATOM     28  H   UNL     1       7.583   6.916   1.485  0.00  0.00    +0.148 HD
BRANCH  27  29
ATOM     29  C   UNL     1       8.114   6.378  -0.612  0.00  0.00    +0.141 C 
BRANCH  29  33
ATOM     30  C   UNL     1      12.168   7.111   0.515  0.00  0.00    +0.000 A 
ATOM     31  C   UNL     1      11.562   5.915   0.853  0.00  0.00    +0.000 A 
ATOM     32  C   UNL     1      10.250   5.678   0.487  0.00  0.00    +0.005 A 
ATOM     33  C   UNL     1       9.544   6.637  -0.214  0.00  0.00    -0.032 A 
ATOM     34  C   UNL     1      10.151   7.831  -0.556  0.00  0.00    +0.005 A 
ATOM     35  C   UNL     1      11.462   8.070  -0.187  0.00  0.00    +0.000 A 
ENDBRANCH  29  33
ENDBRANCH  27  29
ENDBRANCH  24  27
ENDBRANCH   1  24
TORSDOF 6
