REMARK  Name = ZINC03355161
REMARK  7 active torsions:
REMARK  status: ('A' for Active; 'I' for Inactive)
REMARK    1  A    between atoms: C_4  and  C_7
REMARK    2  A    between atoms: C_10  and  C_27
REMARK    3  A    between atoms: C_13  and  C_15
REMARK    4  A    between atoms: C_15  and  S_16
REMARK    5  A    between atoms: S_16  and  C_17
REMARK    6  A    between atoms: C_20  and  C_23
REMARK    7  A    between atoms: N_21  and  N_22
REMARK                            x       y       z     vdW  Elec       q    Type
REMARK                         _______ _______ _______ _____ _____    ______ ____
ROOT
ATOM      1  C   UNL     1       3.711  -0.707  -0.038  0.00  0.00    +0.152 C 
ATOM      2  C   UNL     1       4.030  -1.249   1.338  0.00  0.00    +0.027 C 
ATOM      3  C   UNL     1       4.104  -2.574   1.236  0.00  0.00    +0.050 C 
ATOM      4  N   UNL     1       3.869  -2.998  -0.065  0.00  0.00    -0.261 N 
ATOM      5  N   UNL     1       3.622  -1.897  -0.900  0.00  0.00    -0.210 N 
ATOM      6  C   UNL     1       3.356  -1.922  -2.221  0.00  0.00    +0.243 C 
ATOM      7  O   UNL     1       3.160  -0.886  -2.820  0.00  0.00    -0.273 OA
ATOM      8  H   UNL     1       3.876  -3.923  -0.356  0.00  0.00    +0.170 HD
ENDROOT
BRANCH   3   9
ATOM      9  C   UNL     1       4.400  -3.481   2.368  0.00  0.00    -0.002 A 
ATOM     10  C   UNL     1       4.617  -2.949   3.650  0.00  0.00    +0.010 A 
ATOM     11  C   UNL     1       4.890  -3.760   4.704  0.00  0.00    +0.009 A 
ATOM     12  C   UNL     1       4.957  -5.153   4.521  0.00  0.00    -0.018 A 
ATOM     13  C   UNL     1       5.237  -6.013   5.596  0.00  0.00    +0.008 A 
ATOM     14  C   UNL     1       5.295  -7.357   5.387  0.00  0.00    +0.001 A 
ATOM     15  C   UNL     1       5.080  -7.897   4.120  0.00  0.00    +0.001 A 
ATOM     16  C   UNL     1       4.808  -7.095   3.055  0.00  0.00    +0.008 A 
ATOM     17  C   UNL     1       4.740  -5.702   3.232  0.00  0.00    -0.017 A 
ATOM     18  C   UNL     1       4.454  -4.847   2.156  0.00  0.00    +0.018 A 
ENDBRANCH   3   9
BRANCH   1  22
ATOM     19  C   UNL     1      -0.017   1.378   0.010  0.00  0.00    +0.000 A 
ATOM     20  C   UNL     1       1.171   2.086   0.002  0.00  0.00    +0.000 A 
ATOM     21  C   UNL     1       2.377   1.411  -0.013  0.00  0.00    +0.006 A 
ATOM     22  C   UNL     1       2.396   0.029  -0.020  0.00  0.00    -0.021 A 
ATOM     23  C   UNL     1       1.208  -0.679  -0.012  0.00  0.00    +0.006 A 
ATOM     24  C   UNL     1       0.002  -0.004   0.002  0.00  0.00    +0.000 A 
ENDBRANCH   1  22
BRANCH   6  25
ATOM     25  C   UNL     1       3.302  -3.238  -2.954  0.00  0.00    +0.175 C 
BRANCH  25  26
ATOM     26  S   UNL     1       2.926  -2.940  -4.704  0.00  0.00    -0.075 S 
BRANCH  26  27
ATOM     27  C   UNL     1       2.898  -4.553  -5.413  0.00  0.00    +0.209 A 
ATOM     28  N   UNL     1       3.101  -5.687  -4.784  0.00  0.00    -0.121 NA
ATOM     29  N   UNL     1       3.007  -6.667  -5.609  0.00  0.00    -0.123 NA
ATOM     30  C   UNL     1       2.740  -6.222  -6.804  0.00  0.00    +0.255 A 
ATOM     31  N   UNL     1       2.655  -4.860  -6.721  0.00  0.00    -0.220 N 
BRANCH  30  32
ATOM     32  C   UNL     1       2.552  -7.055  -8.046  0.00  0.00    +0.454 C 
ATOM     33  F   UNL     1       2.367  -8.394  -7.686  0.00  0.00    -0.163 F 
ATOM     34  F   UNL     1       1.430  -6.601  -8.747  0.00  0.00    -0.163 F 
ATOM     35  F   UNL     1       3.686  -6.943  -8.858  0.00  0.00    -0.163 F 
ENDBRANCH  30  32
BRANCH  31  36
ATOM     36  N   UNL     1       2.386  -3.987  -7.737  0.00  0.00    -0.295 N 
ATOM     37  H   UNL     1       3.236  -3.690  -8.193  0.00  0.00    +0.163 HD
ATOM     38  H   UNL     1       1.742  -4.391  -8.401  0.00  0.00    +0.163 HD
ENDBRANCH  31  36
ENDBRANCH  26  27
ENDBRANCH  25  26
ENDBRANCH   6  25
TORSDOF 7
