REMARK  Name = ZINC45947541
REMARK  7 active torsions:
REMARK  status: ('A' for Active; 'I' for Inactive)
REMARK    1  A    between atoms: C_7  and  C_11
REMARK    2  A    between atoms: C_11  and  C_13
REMARK    3  A    between atoms: C_11  and  C_28
REMARK    4  A    between atoms: C_13  and  N_14
REMARK    5  A    between atoms: C_15  and  C_17
REMARK    6  A    between atoms: C_19  and  S_24
REMARK    7  A    between atoms: S_24  and  N_27
REMARK                            x       y       z     vdW  Elec       q    Type
REMARK                         _______ _______ _______ _____ _____    ______ ____
ROOT
ATOM      1  C   UNL     1       0.666  -3.275  -0.021  0.00  0.00    +0.069 C 
ENDROOT
BRANCH   1   8
ATOM      2  C   UNL     1      -0.017   1.362   0.009  0.00  0.00    +0.001 A 
ATOM      3  C   UNL     1       1.170   2.083   0.002  0.00  0.00    +0.002 A 
ATOM      4  C   UNL     1       2.386   1.436  -0.013  0.00  0.00    +0.026 A 
ATOM      5  C   UNL     1       2.428   0.046  -0.021  0.00  0.00    +0.047 A 
ATOM      6  C   UNL     1       1.223  -0.681  -0.013  0.00  0.00    +0.003 A 
ATOM      7  C   UNL     1       0.002  -0.004   0.002  0.00  0.00    +0.010 A 
ATOM      8  C   UNL     1       1.604  -2.095  -0.025  0.00  0.00    -0.013 A 
ATOM      9  C   UNL     1       2.945  -2.141  -0.038  0.00  0.00    +0.088 A 
ATOM     10  N   UNL     1       3.455  -0.871  -0.036  0.00  0.00    -0.360 N 
ATOM     11  H   UNL     1       4.399  -0.650  -0.044  0.00  0.00    +0.165 HD
ENDBRANCH   1   8
BRANCH   1  12
ATOM     12  C   UNL     1       0.923  -4.117   1.202  0.00  0.00    -0.020 A 
ATOM     13  C   UNL     1       2.171  -4.675   1.409  0.00  0.00    +0.006 A 
ATOM     14  C   UNL     1       2.406  -5.447   2.531  0.00  0.00    +0.000 A 
ATOM     15  C   UNL     1       1.394  -5.662   3.448  0.00  0.00    +0.001 A 
ATOM     16  C   UNL     1       0.146  -5.104   3.243  0.00  0.00    +0.020 A 
ATOM     17  C   UNL     1      -0.089  -4.327   2.123  0.00  0.00    +0.045 A 
ATOM     18 CL   UNL     1      -1.654  -3.621   1.868  0.00  0.00    -0.083 Cl
ENDBRANCH   1  12
BRANCH   1  19
ATOM     19  C   UNL     1       0.901  -4.117  -1.277  0.00  0.00    +0.117 C 
BRANCH  19  20
ATOM     20  N   UNL     1      -0.088  -5.196  -1.334  0.00  0.00    -0.310 N 
ATOM     21  C   UNL     1      -0.075  -6.069  -2.361  0.00  0.00    +0.246 C 
ATOM     22  O   UNL     1       0.758  -5.961  -3.240  0.00  0.00    -0.270 OA
ATOM     23  H   UNL     1      -0.753  -5.281  -0.633  0.00  0.00    +0.149 HD
BRANCH  21  24
ATOM     24  C   UNL     1      -1.073  -7.157  -2.419  0.00  0.00    +0.057 A 
ATOM     25  C   UNL     1      -2.035  -7.280  -1.414  0.00  0.00    +0.043 A 
ATOM     26  C   UNL     1      -2.964  -8.297  -1.474  0.00  0.00    +0.106 A 
ATOM     27  C   UNL     1      -2.945  -9.196  -2.527  0.00  0.00    +0.030 A 
ATOM     28  C   UNL     1      -1.995  -9.082  -3.525  0.00  0.00    +0.022 A 
ATOM     29  C   UNL     1      -1.062  -8.064  -3.481  0.00  0.00    +0.053 A 
ATOM     30 CL   UNL     1       0.125  -7.916  -4.739  0.00  0.00    -0.083 Cl
BRANCH  26  31
ATOM     31  S   UNL     1      -4.179  -8.454  -0.208  0.00  0.00    +0.056 S 
ATOM     32  O   UNL     1      -4.593  -9.813  -0.208  0.00  0.00    -0.153 OA
ATOM     33  O   UNL     1      -3.645  -7.820   0.947  0.00  0.00    -0.153 OA
BRANCH  31  34
ATOM     34  N   UNL     1      -5.491  -7.559  -0.675  0.00  0.00    -0.204 NA
ATOM     35  H   UNL     1      -5.476  -7.078  -1.517  0.00  0.00    +0.144 HD
ATOM     36  H   UNL     1      -6.276  -7.515  -0.106  0.00  0.00    +0.144 HD
ENDBRANCH  31  34
ENDBRANCH  26  31
ENDBRANCH  21  24
ENDBRANCH  19  20
ENDBRANCH   1  19
TORSDOF 7
