REMARK  Name = ZINC36275444
REMARK  10 active torsions:
REMARK  status: ('A' for Active; 'I' for Inactive)
REMARK    1  A    between atoms: C_1  and  C_2
REMARK    2  A    between atoms: C_2  and  O_3
REMARK    3  A    between atoms: O_3  and  C_4
REMARK    4  A    between atoms: C_4  and  C_6
REMARK    5  A    between atoms: C_6  and  C_7
REMARK    6  A    between atoms: C_8  and  C_17
REMARK    7  A    between atoms: C_11  and  N_16
REMARK    8  A    between atoms: C_17  and  N_18
REMARK    9  A    between atoms: C_19  and  C_27
REMARK   10  A    between atoms: C_24  and  C_26
REMARK                            x       y       z     vdW  Elec       q    Type
REMARK                         _______ _______ _______ _____ _____    ______ ____
ROOT
ATOM      1  C   UNL     1      -3.124  -4.137   0.232  0.00  0.00    +0.072 A 
ATOM      2  C   UNL     1      -2.837  -4.908  -0.841  0.00  0.00    +0.030 A 
ATOM      3  N   UNL     1      -2.687  -6.190  -0.388  0.00  0.00    -0.303 N 
ATOM      4  C   UNL     1      -2.395  -7.365  -1.023  0.00  0.00    +0.115 A 
ATOM      5  C   UNL     1      -2.303  -8.522  -0.322  0.00  0.00    +0.041 A 
ATOM      6  C   UNL     1      -2.509  -8.522   1.072  0.00  0.00    +0.028 A 
ATOM      7  C   UNL     1      -2.799  -7.357   1.710  0.00  0.00    +0.048 A 
ATOM      8  C   UNL     1      -2.890  -6.164   0.966  0.00  0.00    +0.138 A 
ATOM      9  N   UNL     1      -3.148  -4.911   1.319  0.00  0.00    -0.232 NA
ENDROOT
BRANCH   5  10
ATOM     10  N   UNL     1      -2.004  -9.719  -0.985  0.00  0.00    -0.357 N 
ATOM     11  H   UNL     1      -1.863  -9.720  -1.945  0.00  0.00    +0.142 HD
ATOM     12  H   UNL     1      -1.938 -10.548  -0.485  0.00  0.00    +0.142 HD
ENDBRANCH   5  10
BRANCH   1  13
ATOM     13  C   UNL     1      -3.370  -2.650   0.206  0.00  0.00    +0.177 C 
BRANCH  13  14
ATOM     14  C   UNL     1      -2.065  -1.922   0.394  0.00  0.00    +0.313 C 
ATOM     15  O   UNL     1      -1.040  -2.545   0.535  0.00  0.00    -0.250 OA
BRANCH  14  16
ATOM     16  O   UNL     1      -2.041  -0.580   0.405  0.00  0.00    -0.465 OA
BRANCH  16  18
ATOM     17  C   UNL     1      -0.940   1.565   0.573  0.00  0.00    +0.048 C 
ATOM     18  C   UNL     1      -0.769   0.045   0.588  0.00  0.00    +0.229 C 
ENDBRANCH  16  18
ENDBRANCH  14  16
ENDBRANCH  13  14
ENDBRANCH   1  13
BRANCH   2  19
ATOM     19  C   UNL     1      -2.706  -4.442  -2.268  0.00  0.00    -0.021 C 
BRANCH  19  20
ATOM     20  N   UNL     1      -4.041  -4.339  -2.873  0.00  0.00    +0.387 N 
ATOM     21  C   UNL     1      -4.651  -5.672  -2.938  0.00  0.00    -0.071 C 
ATOM     22  C   UNL     1      -6.072  -5.560  -3.493  0.00  0.00    -0.016 C 
ATOM     23  C   UNL     1      -6.020  -4.953  -4.898  0.00  0.00    -0.003 C 
ATOM     24  C   UNL     1      -5.315  -3.595  -4.830  0.00  0.00    -0.016 C 
ATOM     25  C   UNL     1      -3.921  -3.780  -4.225  0.00  0.00    -0.071 C 
ATOM     26  C   UNL     1      -3.212  -2.426  -4.155  0.00  0.00    -0.013 C 
ATOM     27  C   UNL     1      -3.817  -6.571  -3.853  0.00  0.00    -0.013 C 
ATOM     28  H   UNL     1      -4.619  -3.734  -2.310  0.00  0.00    -0.081 HD
ENDBRANCH  19  20
ENDBRANCH   2  19
TORSDOF 7
