REMARK  Name = ZINC20522751
REMARK  5 active torsions:
REMARK  status: ('A' for Active; 'I' for Inactive)
REMARK    1  A    between atoms: C_4  and  C_7
REMARK    2  A    between atoms: C_7  and  N_8
REMARK    3  A    between atoms: C_17  and  O_18
REMARK    4  A    between atoms: C_19  and  N_20
REMARK    5  A    between atoms: C_21  and  C_23
REMARK                            x       y       z     vdW  Elec       q    Type
REMARK                         _______ _______ _______ _____ _____    ______ ____
ROOT
ATOM      1  N   UNL     1       6.646  -4.366   3.134  0.00  0.00    -0.378 N 
ATOM      2  C   UNL     1       7.368  -3.222   3.417  0.00  0.00    +0.075 A 
ATOM      3  C   UNL     1       8.758  -3.301   3.896  0.00  0.00    +0.042 A 
ATOM      4  C   UNL     1       9.387  -4.535   4.078  0.00  0.00    +0.013 A 
ATOM      5  C   UNL     1      10.686  -4.576   4.533  0.00  0.00    +0.001 A 
ATOM      6  C   UNL     1      11.368  -3.400   4.809  0.00  0.00    +0.004 A 
ATOM      7  C   UNL     1      10.759  -2.176   4.633  0.00  0.00    +0.047 A 
ATOM      8  C   UNL     1       9.449  -2.112   4.176  0.00  0.00    +0.141 A 
ATOM      9  O   UNL     1       8.840  -0.919   4.000  0.00  0.00    -0.424 OA
ATOM     10  C   UNL     1       7.575  -0.825   3.560  0.00  0.00    +0.309 A 
ATOM     11  C   UNL     1       6.810  -1.966   3.255  0.00  0.00    +0.139 A 
ATOM     12  H   UNL     1       6.460  -5.109   3.924  0.00  0.00    +0.160 HD
ENDROOT
BRANCH  11  13
ATOM     13  N   UNL     1       5.489  -1.831   2.796  0.00  0.00    -0.274 N 
ATOM     14  C   UNL     1       5.250  -1.318   1.573  0.00  0.00    +0.249 C 
ATOM     15  O   UNL     1       6.169  -0.890   0.903  0.00  0.00    -0.270 OA
ATOM     16  H   UNL     1       4.650  -2.145   3.435  0.00  0.00    +0.155 HD
BRANCH  14  17
ATOM     17  C   UNL     1       3.871  -1.277   1.048  0.00  0.00    +0.041 A 
ATOM     18  C   UNL     1       2.813  -1.768   1.816  0.00  0.00    +0.017 A 
ATOM     19  C   UNL     1       1.527  -1.728   1.324  0.00  0.00    +0.050 A 
ATOM     20  C   UNL     1       1.277  -1.200   0.065  0.00  0.00    +0.166 A 
ATOM     21  C   UNL     1       2.329  -0.708  -0.708  0.00  0.00    +0.167 A 
ATOM     22  C   UNL     1       3.621  -0.745  -0.220  0.00  0.00    +0.062 A 
ATOM     23  O   UNL     1       1.823  -0.250  -1.891  0.00  0.00    -0.453 OA
ATOM     24  C   UNL     1       0.410  -0.091  -1.668  0.00  0.00    +0.466 C 
ATOM     25  O   UNL     1       0.116  -1.050  -0.635  0.00  0.00    -0.453 OA
ENDBRANCH  14  17
ENDBRANCH  11  13
BRANCH  10  26
ATOM     26  O   UNL     1       7.077   0.278   3.419  0.00  0.00    -0.479 OA
ATOM     27  H   UNL     1       6.041   0.372   3.059  0.00  0.00    +0.295 HD
ENDBRANCH  10  26
BRANCH   1  28
ATOM     28  C   UNL     1       6.224  -4.386   1.727  0.00  0.00    +0.148 C 
BRANCH  28  32
ATOM     29  C   UNL     1       4.003  -7.954   0.959  0.00  0.00    +0.000 A 
ATOM     30  C   UNL     1       3.350  -6.810   1.378  0.00  0.00    +0.000 A 
ATOM     31  C   UNL     1       4.069  -5.655   1.627  0.00  0.00    +0.005 A 
ATOM     32  C   UNL     1       5.440  -5.645   1.456  0.00  0.00    -0.028 A 
ATOM     33  C   UNL     1       6.093  -6.787   1.032  0.00  0.00    +0.005 A 
ATOM     34  C   UNL     1       5.375  -7.943   0.788  0.00  0.00    +0.000 A 
ENDBRANCH  28  32
ENDBRANCH   1  28
TORSDOF 5
