REMARK  Name = ZINC40396591
REMARK  3 active torsions:
REMARK  status: ('A' for Active; 'I' for Inactive)
REMARK    1  A    between atoms: C_8  and  C_21
REMARK    2  A    between atoms: C_12  and  C_14
REMARK    3  A    between atoms: C_16  and  N_20
REMARK                            x       y       z     vdW  Elec       q    Type
REMARK                         _______ _______ _______ _____ _____    ______ ____
ROOT
ATOM      1  C   UNL     1       0.947   1.424   3.661  0.00  0.00    +0.000 A 
ATOM      2  C   UNL     1       0.256   1.721   2.501  0.00  0.00    +0.000 A 
ATOM      3  C   UNL     1       0.250   0.818   1.458  0.00  0.00    +0.005 A 
ATOM      4  C   UNL     1       0.929  -0.388   1.567  0.00  0.00    -0.027 A 
ATOM      5  C   UNL     1       1.610  -0.690   2.725  0.00  0.00    -0.040 A 
ATOM      6  C   UNL     1       1.620   0.226   3.771  0.00  0.00    +0.004 A 
ATOM      7  C   UNL     1       2.343  -1.989   2.927  0.00  0.00    +0.067 C 
ATOM      8  C   UNL     1       2.653  -2.654   1.587  0.00  0.00    +0.167 C 
ATOM      9  N   UNL     1       1.423  -2.635   0.777  0.00  0.00    -0.280 N 
ATOM     10  C   UNL     1       0.895  -1.324   0.385  0.00  0.00    +0.144 C 
ATOM     11  C   UNL     1       0.808  -3.777   0.411  0.00  0.00    +0.264 C 
ATOM     12  O   UNL     1       1.192  -4.844   0.854  0.00  0.00    -0.268 OA
ENDROOT
BRANCH  11  13
ATOM     13  C   UNL     1      -0.324  -3.734  -0.520  0.00  0.00    +0.104 A 
ATOM     14  C   UNL     1      -1.236  -4.745  -0.741  0.00  0.00    +0.055 A 
ATOM     15  C   UNL     1      -2.143  -4.281  -1.703  0.00  0.00    +0.043 A 
ATOM     16  C   UNL     1      -1.775  -3.019  -2.045  0.00  0.00    +0.106 A 
ATOM     17  N   UNL     1      -0.672  -2.675  -1.327  0.00  0.00    -0.355 N 
ATOM     18  H   UNL     1      -0.207  -1.825  -1.376  0.00  0.00    +0.166 HD
BRANCH  15  19
ATOM     19  N   UNL     1      -3.239  -4.995  -2.223  0.00  0.00    -0.357 N 
ATOM     20  H   UNL     1      -3.421  -5.896  -1.914  0.00  0.00    +0.142 HD
ATOM     21  H   UNL     1      -3.812  -4.585  -2.889  0.00  0.00    +0.142 HD
ENDBRANCH  15  19
ENDBRANCH  11  13
BRANCH   8  22
ATOM     22  C   UNL     1       3.094  -4.077   1.813  0.00  0.00    +0.231 C 
ATOM     23  O   UNL     1       4.086  -4.500   1.257  0.00  0.00    -0.274 OA
ATOM     24  N   UNL     1       2.387  -4.879   2.632  0.00  0.00    -0.328 N 
ATOM     25  H   UNL     1       1.593  -4.541   3.077  0.00  0.00    +0.145 HD
ATOM     26  H   UNL     1       2.671  -5.795   2.778  0.00  0.00    +0.145 HD
ENDBRANCH   8  22
TORSDOF 3
