REMARK  Name = ZINC47274749
REMARK  3 active torsions:
REMARK  status: ('A' for Active; 'I' for Inactive)
REMARK    1  A    between atoms: C_1  and  C_2
REMARK    2  A    between atoms: C_2  and  C_4
REMARK    3  A    between atoms: C_2  and  N_16
REMARK                            x       y       z     vdW  Elec       q    Type
REMARK                         _______ _______ _______ _____ _____    ______ ____
ROOT
ATOM      1  N   UNL     1      -1.372  -0.511   0.012  0.00  0.00    -0.293 N 
ATOM      2  C   UNL     1      -2.051  -0.643  -1.145  0.00  0.00    +0.306 C 
ATOM      3  O   UNL     1      -1.522  -0.341  -2.197  0.00  0.00    -0.252 OA
ATOM      4  N   UNL     1      -3.315  -1.109  -1.135  0.00  0.00    -0.248 N 
ATOM      5  C   UNL     1      -4.013  -1.244  -2.324  0.00  0.00    +0.167 A 
ATOM      6  N   UNL     1      -3.615  -0.979  -3.547  0.00  0.00    -0.225 NA
ATOM      7  C   UNL     1      -4.409  -1.161  -4.624  0.00  0.00    +0.080 A 
ATOM      8  C   UNL     1      -4.106  -0.917  -5.983  0.00  0.00    +0.029 A 
ATOM      9  C   UNL     1      -5.034  -1.157  -6.962  0.00  0.00    +0.002 A 
ATOM     10  C   UNL     1      -6.297  -1.645  -6.659  0.00  0.00    +0.001 A 
ATOM     11  C   UNL     1      -6.628  -1.896  -5.340  0.00  0.00    +0.017 A 
ATOM     12  C   UNL     1      -5.704  -1.659  -4.353  0.00  0.00    +0.041 A 
ATOM     13  S   UNL     1      -5.680  -1.832  -2.585  0.00  0.00    -0.052 S 
ATOM     14  H   UNL     1      -1.794  -0.752   0.852  0.00  0.00    +0.151 HD
ATOM     15  H   UNL     1      -3.737  -1.350  -0.295  0.00  0.00    +0.158 HD
ENDROOT
BRANCH   1  17
ATOM     16  C   UNL     1      -0.019   1.526   0.010  0.00  0.00    +0.033 C 
ATOM     17  C   UNL     1       0.002  -0.004   0.002  0.00  0.00    +0.102 C 
BRANCH  17  18
ATOM     18  C   UNL     1       0.731  -0.503   1.223  0.00  0.00    -0.025 A 
ATOM     19  C   UNL     1       0.077  -0.557   2.442  0.00  0.00    +0.007 A 
ATOM     20  C   UNL     1       0.737  -1.013   3.566  0.00  0.00    +0.028 A 
ATOM     21  C   UNL     1       2.059  -1.419   3.474  0.00  0.00    +0.067 A 
ATOM     22  C   UNL     1       2.719  -1.364   2.244  0.00  0.00    +0.067 A 
ATOM     23  C   UNL     1       2.047  -0.910   1.120  0.00  0.00    +0.033 A 
ATOM     24  N   UNL     1       4.014  -1.829   2.461  0.00  0.00    -0.306 N 
ATOM     25  H   UNL     1       4.709  -1.906   1.789  0.00  0.00    +0.170 HD
ATOM     26  C   UNL     1       4.137  -2.151   3.763  0.00  0.00    +0.325 A 
ATOM     27  O   UNL     1       5.145  -2.589   4.284  0.00  0.00    -0.247 OA
ATOM     28  N   UNL     1       2.974  -1.915   4.400  0.00  0.00    -0.306 N 
ATOM     29  H   UNL     1       2.803  -2.064   5.343  0.00  0.00    +0.170 HD
ENDBRANCH  17  18
ENDBRANCH   1  17
TORSDOF 2
