REMARK  Name = ZINC36546060
REMARK  15 active torsions:
REMARK  status: ('A' for Active; 'I' for Inactive)
REMARK    1  A    between atoms: C_1  and  C_2
REMARK    2  A    between atoms: C_2  and  C_4
REMARK    3  A    between atoms: C_2  and  C_33
REMARK    4  A    between atoms: C_4  and  C_5
REMARK    5  A    between atoms: N_7  and  C_8
REMARK    6  A    between atoms: N_7  and  C_15
REMARK    7  A    between atoms: C_15  and  C_17
REMARK    8  A    between atoms: C_15  and  C_26
REMARK    9  A    between atoms: C_18  and  O_25
REMARK   10  A    between atoms: C_20  and  O_24
REMARK   11  A    between atoms: C_22  and  O_23
REMARK   12  A    between atoms: N_28  and  C_29
REMARK   13  A    between atoms: C_29  and  C_30
REMARK   14  A    between atoms: C_29  and  C_31
REMARK   15  A    between atoms: C_29  and  C_32
REMARK                            x       y       z     vdW  Elec       q    Type
REMARK                         _______ _______ _______ _____ _____    ______ ____
ROOT
ATOM      1  C   UNL     1       4.338   0.087  -2.247  0.00  0.00    +0.204 C 
ENDROOT
BRANCH   1   2
ATOM      2  C   UNL     1       5.261  -1.070  -2.530  0.00  0.00    +0.065 A 
ATOM      3  C   UNL     1       5.000  -1.919  -3.595  0.00  0.00    +0.129 A 
ATOM      4  C   UNL     1       5.849  -2.985  -3.856  0.00  0.00    +0.091 A 
ATOM      5  C   UNL     1       6.958  -3.200  -3.053  0.00  0.00    +0.124 A 
ATOM      6  C   UNL     1       7.219  -2.351  -1.988  0.00  0.00    +0.091 A 
ATOM      7  C   UNL     1       6.373  -1.283  -1.730  0.00  0.00    +0.129 A 
BRANCH   7   8
ATOM      8  O   UNL     1       6.631  -0.448  -0.690  0.00  0.00    -0.506 OA
ATOM      9  H   UNL     1       6.224  -0.720   0.144  0.00  0.00    +0.292 HD
ENDBRANCH   7   8
BRANCH   5  10
ATOM     10  O   UNL     1       7.789  -4.245  -3.308  0.00  0.00    -0.507 OA
ATOM     11  H   UNL     1       8.514  -4.032  -3.912  0.00  0.00    +0.292 HD
ENDBRANCH   5  10
BRANCH   3  12
ATOM     12  O   UNL     1       3.913  -1.708  -4.383  0.00  0.00    -0.506 OA
ATOM     13  H   UNL     1       4.083  -1.131  -5.140  0.00  0.00    +0.292 HD
ENDBRANCH   3  12
ENDBRANCH   1   2
BRANCH   1  14
ATOM     14  C   UNL     1       4.164   0.909  -3.498  0.00  0.00    +0.239 C 
ATOM     15  O   UNL     1       3.060   1.055  -3.979  0.00  0.00    -0.273 OA
ATOM     16  N   UNL     1       5.235   1.482  -4.083  0.00  0.00    -0.309 N 
ATOM     17  H   UNL     1       6.118   1.365  -3.698  0.00  0.00    +0.149 HD
BRANCH  16  18
ATOM     18  C   UNL     1       5.066   2.280  -5.299  0.00  0.00    +0.026 C 
ATOM     19  C   UNL     1       4.129   3.456  -5.011  0.00  0.00    +0.031 C 
ATOM     20  C   UNL     1       6.426   2.812  -5.754  0.00  0.00    +0.031 C 
ATOM     21  C   UNL     1       4.464   1.408  -6.403  0.00  0.00    +0.031 C 
ENDBRANCH  16  18
ENDBRANCH   1  14
BRANCH   1  24
ATOM     22  C   UNL     1       2.492   0.016  -0.658  0.00  0.00    +0.221 C 
ATOM     23  O   UNL     1       3.082   0.831   0.019  0.00  0.00    -0.275 OA
ATOM     24  N   UNL     1       3.035  -0.422  -1.811  0.00  0.00    -0.254 N 
BRANCH  24  25
ATOM     25  C   UNL     1       2.355  -1.362  -2.593  0.00  0.00    +0.056 A 
ATOM     26  C   UNL     1       1.484  -0.940  -3.589  0.00  0.00    +0.025 A 
ATOM     27  C   UNL     1       0.815  -1.871  -4.359  0.00  0.00    +0.002 A 
ATOM     28  C   UNL     1       1.009  -3.222  -4.139  0.00  0.00    +0.002 A 
ATOM     29  C   UNL     1       1.875  -3.647  -3.149  0.00  0.00    +0.022 A 
ATOM     30  C   UNL     1       2.553  -2.721  -2.378  0.00  0.00    +0.062 A 
ATOM     31 CL   UNL     1       3.645  -3.254  -1.139  0.00  0.00    -0.082 Cl
ENDBRANCH  24  25
BRANCH  22  32
ATOM     32  C   UNL     1       1.152  -0.508  -0.210  0.00  0.00    +0.104 C 
BRANCH  32  34
ATOM     33  C   UNL     1       0.566   1.647   0.910  0.00  0.00    +0.013 C 
ATOM     34  C   UNL     1       0.768   0.145   1.119  0.00  0.00    +0.025 C 
BRANCH  34  35
ATOM     35  C   UNL     1      -0.512  -0.468   1.628  0.00  0.00    -0.044 A 
ATOM     36  C   UNL     1      -1.664  -0.392   0.868  0.00  0.00    +0.004 A 
ATOM     37  C   UNL     1      -2.838  -0.954   1.335  0.00  0.00    +0.000 A 
ATOM     38  C   UNL     1      -2.859  -1.591   2.562  0.00  0.00    +0.000 A 
ATOM     39  C   UNL     1      -1.706  -1.667   3.321  0.00  0.00    +0.000 A 
ATOM     40  C   UNL     1      -0.531  -1.109   2.852  0.00  0.00    +0.004 A 
ENDBRANCH  34  35
ENDBRANCH  32  34
ENDBRANCH  22  32
ENDBRANCH   1  24
TORSDOF 11
