REMARK  Name = ZINC03458097
REMARK  5 active torsions:
REMARK  status: ('A' for Active; 'I' for Inactive)
REMARK    1  A    between atoms: C_1  and  C_2
REMARK    2  A    between atoms: C_4  and  C_22
REMARK    3  A    between atoms: C_6  and  C_8
REMARK    4  A    between atoms: C_8  and  N_9
REMARK    5  A    between atoms: C_15  and  C_18
REMARK                            x       y       z     vdW  Elec       q    Type
REMARK                         _______ _______ _______ _____ _____    ______ ____
ROOT
ATOM      1  N   UNL     1      -0.089   5.843  -1.347  0.00  0.00    -0.220 N 
ATOM      2  C   UNL     1       1.016   6.120  -2.068  0.00  0.00    +0.247 C 
ATOM      3  O   UNL     1       2.171   6.011  -1.714  0.00  0.00    -0.273 OA
ATOM      4  C   UNL     1       0.513   6.593  -3.413  0.00  0.00    +0.113 C 
ATOM      5  C   UNL     1       0.969   8.025  -3.672  0.00  0.00    +0.035 C 
ATOM      6  C   UNL     1       2.496   8.069  -3.766  0.00  0.00    +0.006 C 
ATOM      7  C   UNL     1       2.962   7.154  -4.900  0.00  0.00    -0.014 C 
ATOM      8  C   UNL     1       2.519   5.718  -4.613  0.00  0.00    +0.006 C 
ATOM      9  C   UNL     1       0.992   5.664  -4.523  0.00  0.00    +0.035 C 
ATOM     10  C   UNL     1       4.488   7.206  -5.003  0.00  0.00    +0.007 C 
ATOM     11  N   UNL     1      -0.949   6.534  -3.287  0.00  0.00    -0.285 N 
ATOM     12  C   UNL     1      -1.206   6.083  -2.044  0.00  0.00    +0.310 C 
ATOM     13  O   UNL     1      -2.327   5.914  -1.606  0.00  0.00    -0.252 OA
ATOM     14  H   UNL     1      -1.600   6.771  -3.966  0.00  0.00    +0.151 HD
ENDROOT
BRANCH   1  15
ATOM     15  C   UNL     1      -0.070   5.347   0.032  0.00  0.00    +0.153 C 
BRANCH  15  21
ATOM     16  C   UNL     1       2.490   1.048  -0.016  0.00  0.00    +0.044 C 
ATOM     17  C   UNL     1       1.175   1.783   0.000  0.00  0.00    -0.050 A 
ATOM     18  C   UNL     1      -0.013   1.076   0.008  0.00  0.00    +0.006 A 
ATOM     19  C   UNL     1      -1.219   1.751   0.017  0.00  0.00    -0.050 A 
ATOM     20  C   UNL     1      -1.238   3.133   0.029  0.00  0.00    +0.008 A 
ATOM     21  C   UNL     1      -0.050   3.840   0.023  0.00  0.00    -0.029 A 
ATOM     22  C   UNL     1       1.156   3.165   0.008  0.00  0.00    +0.008 A 
ATOM     23  C   UNL     1      -2.514   0.980   0.019  0.00  0.00    +0.044 C 
ENDBRANCH  15  21
ENDBRANCH   1  15
TORSDOF 2
