REMARK  Name = ZINC58927441
REMARK  7 active torsions:
REMARK  status: ('A' for Active; 'I' for Inactive)
REMARK    1  A    between atoms: C_1  and  C_2
REMARK    2  A    between atoms: C_4  and  C_14
REMARK    3  A    between atoms: C_5  and  C_13
REMARK    4  A    between atoms: N_6  and  C_7
REMARK    5  A    between atoms: N_15  and  N_16
REMARK    6  A    between atoms: C_17  and  C_19
REMARK    7  A    between atoms: C_24  and  O_25
REMARK                            x       y       z     vdW  Elec       q    Type
REMARK                         _______ _______ _______ _____ _____    ______ ____
ROOT
ATOM      1  C   UNL     1       0.043  -3.384  -1.463  0.00  0.00    +0.140 C 
ATOM      2  N   UNL     1       0.061  -4.556  -0.904  0.00  0.00    -0.187 NA
ENDROOT
BRANCH   1   6
ATOM      3  C   UNL     1      -0.018   1.503   0.010  0.00  0.00    +0.064 C 
ATOM      4  C   UNL     1       0.002  -0.004   0.002  0.00  0.00    +0.022 A 
ATOM      5  C   UNL     1       0.008  -0.781  -1.097  0.00  0.00    +0.032 A 
ATOM      6  C   UNL     1       0.030  -2.170  -0.628  0.00  0.00    +0.016 A 
ATOM      7  C   UNL     1       0.035  -2.113   0.736  0.00  0.00    +0.030 A 
ATOM      8  N   UNL     1       0.024  -0.804   1.109  0.00  0.00    -0.317 N 
ATOM      9  C   UNL     1       0.055  -3.296   1.669  0.00  0.00    +0.064 C 
BRANCH   8  10
ATOM     10  C   UNL     1       0.029  -0.345   2.433  0.00  0.00    +0.047 A 
ATOM     11  C   UNL     1       1.131  -0.576   3.244  0.00  0.00    +0.026 A 
ATOM     12  C   UNL     1       1.134  -0.122   4.549  0.00  0.00    +0.002 A 
ATOM     13  C   UNL     1       0.040   0.561   5.047  0.00  0.00    +0.000 A 
ATOM     14  C   UNL     1      -1.060   0.793   4.241  0.00  0.00    +0.002 A 
ATOM     15  C   UNL     1      -1.066   0.347   2.934  0.00  0.00    +0.026 A 
ENDBRANCH   8  10
ENDBRANCH   1   6
BRANCH   2  16
ATOM     16  N   UNL     1       0.074  -5.710  -1.697  0.00  0.00    -0.203 N 
ATOM     17  C   UNL     1       0.093  -6.927  -1.117  0.00  0.00    +0.267 C 
ATOM     18  O   UNL     1       0.100  -7.022   0.096  0.00  0.00    -0.268 OA
ATOM     19  H   UNL     1       0.068  -5.635  -2.664  0.00  0.00    +0.178 HD
BRANCH  17  20
ATOM     20  C   UNL     1       0.106  -8.142  -1.952  0.00  0.00    +0.080 A 
ATOM     21  C   UNL     1       0.104  -8.038  -3.346  0.00  0.00    +0.017 A 
ATOM     22  C   UNL     1       0.117  -9.177  -4.120  0.00  0.00    +0.001 A 
ATOM     23  C   UNL     1       0.131 -10.428  -3.524  0.00  0.00    +0.004 A 
ATOM     24  C   UNL     1       0.132 -10.546  -2.148  0.00  0.00    +0.046 A 
ATOM     25  C   UNL     1       0.126  -9.409  -1.353  0.00  0.00    +0.129 A 
BRANCH  25  26
ATOM     26  O   UNL     1       0.134  -9.524  -0.001  0.00  0.00    -0.506 OA
ATOM     27  H   UNL     1      -0.747  -9.569   0.395  0.00  0.00    +0.292 HD
ENDBRANCH  25  26
ENDBRANCH  17  20
ENDBRANCH   2  16
TORSDOF 5
