REMARK  Name = ZINC00662975
REMARK  3 active torsions:
REMARK  status: ('A' for Active; 'I' for Inactive)
REMARK    1  A    between atoms: C_5  and  O_13
REMARK    2  A    between atoms: C_6  and  C_7
REMARK    3  A    between atoms: N_8  and  N_9
REMARK                            x       y       z     vdW  Elec       q    Type
REMARK                         _______ _______ _______ _____ _____    ______ ____
ROOT
ATOM      1  C   UNL     1      -0.017   1.376   0.010  0.00  0.00    +0.028 A 
ATOM      2  C   UNL     1       0.002  -0.004   0.002  0.00  0.00    +0.020 A 
ATOM      3  C   UNL     1       1.208  -0.685  -0.013  0.00  0.00    +0.033 A 
ATOM      4  C   UNL     1       2.403   0.009  -0.020  0.00  0.00    +0.056 A 
ATOM      5  C   UNL     1       2.402   1.395  -0.013  0.00  0.00    +0.139 A 
ATOM      6  C   UNL     1       1.184   2.088   0.002  0.00  0.00    +0.038 A 
ATOM      7  I   UNL     1       4.219  -1.035  -0.043  0.00  0.00    -0.040 I 
ATOM      8 BR   UNL     1      -1.625  -0.968   0.012  0.00  0.00    -0.050 Br
ENDROOT
BRANCH   6   9
ATOM      9  C   UNL     1       1.171   3.562   0.009  0.00  0.00    +0.142 C 
ATOM     10  N   UNL     1       2.290   4.221   0.002  0.00  0.00    -0.186 NA
BRANCH  10  11
ATOM     11  N   UNL     1       2.277   5.622   0.010  0.00  0.00    -0.191 N 
ATOM     12  C   UNL     1       3.439   6.306   0.002  0.00  0.00    +0.317 C 
ATOM     13  O   UNL     1       3.428   7.522   0.008  0.00  0.00    -0.251 OA
ATOM     14  N   UNL     1       4.612   5.642  -0.012  0.00  0.00    -0.312 N 
ATOM     15  H   UNL     1       1.433   6.100   0.020  0.00  0.00    +0.179 HD
ATOM     16  H   UNL     1       4.620   4.672  -0.017  0.00  0.00    +0.147 HD
ATOM     17  H   UNL     1       5.447   6.135  -0.018  0.00  0.00    +0.147 HD
ENDBRANCH  10  11
ENDBRANCH   6   9
BRANCH   5  18
ATOM     18  O   UNL     1       3.576   2.078  -0.021  0.00  0.00    -0.505 OA
ATOM     19  H   UNL     1       3.908   2.280  -0.906  0.00  0.00    +0.292 HD
ENDBRANCH   5  18
TORSDOF 3
