REMARK  Name = ZINC13995254
REMARK  9 active torsions:
REMARK  status: ('A' for Active; 'I' for Inactive)
REMARK    1  A    between atoms: C_1  and  C_2
REMARK    2  A    between atoms: C_9  and  C_18
REMARK    3  A    between atoms: N_11  and  C_12
REMARK    4  A    between atoms: C_19  and  C_22
REMARK    5  A    between atoms: C_24  and  O_31
REMARK    6  A    between atoms: C_25  and  O_30
REMARK    7  A    between atoms: C_26  and  O_28
REMARK    8  A    between atoms: O_28  and  C_29
REMARK    9  A    between atoms: O_31  and  C_32
REMARK                            x       y       z     vdW  Elec       q    Type
REMARK                         _______ _______ _______ _____ _____    ______ ____
ROOT
ATOM      1  C   UNL     1       0.832  -0.610  -0.101  0.00  0.00    +0.029 C 
ATOM      2  C   UNL     1       0.451  -1.991   0.437  0.00  0.00    +0.132 C 
ATOM      3  C   UNL     1      -1.010  -2.166   0.305  0.00  0.00    +0.251 C 
ATOM      4  O   UNL     1      -1.368  -2.776  -0.684  0.00  0.00    -0.272 OA
ATOM      5  N   UNL     1      -1.957  -1.773   1.073  0.00  0.00    -0.163 NA
ATOM      6  C   UNL     1      -2.053  -1.158   2.225  0.00  0.00    +0.141 C 
ATOM      7  C   UNL     1      -1.083  -0.663   3.106  0.00  0.00    +0.027 C 
ATOM      8  C   UNL     1      -1.721  -0.117   4.180  0.00  0.00    +0.027 C 
ATOM      9  N   UNL     1      -3.063  -0.242   4.014  0.00  0.00    -0.262 N 
ATOM     10  N   UNL     1      -3.291  -0.883   2.795  0.00  0.00    -0.206 N 
ATOM     11  C   UNL     1      -1.044   0.524   5.364  0.00  0.00    +0.062 C 
ATOM     12  C   UNL     1       0.411  -0.675   2.986  0.00  0.00    +0.112 C 
ATOM     13  S   UNL     1       1.027  -2.129   2.134  0.00  0.00    -0.135 S 
ATOM     14  H   UNL     1      -3.744   0.061   4.635  0.00  0.00    +0.170 HD
ENDROOT
BRANCH  10  15
ATOM     15  C   UNL     1      -4.539  -1.192   2.246  0.00  0.00    +0.055 A 
ATOM     16  C   UNL     1      -5.516  -1.788   3.032  0.00  0.00    +0.025 A 
ATOM     17  C   UNL     1      -6.748  -2.092   2.487  0.00  0.00    +0.002 A 
ATOM     18  C   UNL     1      -7.009  -1.804   1.160  0.00  0.00    +0.000 A 
ATOM     19  C   UNL     1      -6.037  -1.211   0.374  0.00  0.00    +0.002 A 
ATOM     20  C   UNL     1      -4.806  -0.898   0.915  0.00  0.00    +0.025 A 
ENDBRANCH  10  15
BRANCH  12  21
ATOM     21  C   UNL     1       1.010  -0.633   4.368  0.00  0.00    -0.023 A 
ATOM     22  C   UNL     1       0.746  -1.651   5.264  0.00  0.00    +0.054 A 
ATOM     23  C   UNL     1       1.295  -1.617   6.538  0.00  0.00    +0.165 A 
ATOM     24  C   UNL     1       2.111  -0.556   6.912  0.00  0.00    +0.201 A 
ATOM     25  C   UNL     1       2.374   0.466   6.007  0.00  0.00    +0.165 A 
ATOM     26  C   UNL     1       1.826   0.421   4.734  0.00  0.00    +0.054 A 
BRANCH  25  27
ATOM     27  O   UNL     1       3.172   1.507   6.368  0.00  0.00    -0.491 OA
ATOM     28  C   UNL     1       3.399   2.521   5.388  0.00  0.00    +0.277 C 
ENDBRANCH  25  27
BRANCH  24  29
ATOM     29  O   UNL     1       2.651  -0.517   8.160  0.00  0.00    -0.501 OA
ATOM     30  H   UNL     1       3.514  -0.948   8.229  0.00  0.00    +0.292 HD
ENDBRANCH  24  29
BRANCH  23  31
ATOM     31  O   UNL     1       1.034  -2.619   7.419  0.00  0.00    -0.491 OA
ATOM     32  C   UNL     1       0.187  -3.677   6.967  0.00  0.00    +0.277 C 
ENDBRANCH  23  31
ENDBRANCH  12  21
TORSDOF 5
