REMARK  Name = ZINC13064854
REMARK  12 active torsions:
REMARK  status: ('A' for Active; 'I' for Inactive)
REMARK    1  A    between atoms: C_1  and  C_2
REMARK    2  A    between atoms: C_2  and  C_3
REMARK    3  A    between atoms: C_3  and  C_5
REMARK    4  A    between atoms: C_3  and  N_70
REMARK    5  A    between atoms: N_9  and  C_10
REMARK    6  A    between atoms: C_10  and  C_11
REMARK    7  A    between atoms: C_17  and  C_18
REMARK    8  A    between atoms: C_17  and  N_70
REMARK    9  A    between atoms: C_25  and  C_26
REMARK   10  A    between atoms: C_25  and  N_70
REMARK   11  A    between atoms: C_29  and  C_39
REMARK   12  A    between atoms: C_31  and  C_38
REMARK                            x       y       z     vdW  Elec       q    Type
REMARK                         _______ _______ _______ _____ _____    ______ ____
ROOT
ATOM      1  N   UNL     1      -3.190  -0.506  -1.015  0.00  0.00    +0.392 N 
ATOM      2  H   UNL     1      -2.904  -0.777  -1.963  0.00  0.00    -0.080 HD
ENDROOT
BRANCH   1   3
ATOM      3  C   UNL     1      -2.383  -1.263  -0.035  0.00  0.00    +0.003 C 
BRANCH   3   4
ATOM      4  C   UNL     1      -3.015  -1.199   1.331  0.00  0.00    +0.138 A 
ATOM      5  N   UNL     1      -4.266  -1.454   1.627  0.00  0.00    -0.115 NA
ATOM      6  N   UNL     1      -4.416  -1.291   2.897  0.00  0.00    -0.023 NA
ATOM      7  N   UNL     1      -3.295  -0.930   3.417  0.00  0.00    -0.044 NA
ATOM      8  N   UNL     1      -2.406  -0.862   2.483  0.00  0.00    -0.228 N 
BRANCH   8   9
ATOM      9  C   UNL     1      -0.999  -0.489   2.647  0.00  0.00    +0.178 C 
BRANCH   9  10
ATOM     10  C   UNL     1      -0.875   1.036   2.666  0.00  0.00    +0.140 C 
ATOM     11  C   UNL     1       0.612   1.438   2.771  0.00  0.00    +0.035 C 
ATOM     12  C   UNL     1       0.556   2.655   3.735  0.00  0.00    +0.031 C 
ATOM     13  C   UNL     1      -0.610   2.239   4.666  0.00  0.00    +0.160 C 
ATOM     14  O   UNL     1      -1.549   1.565   3.813  0.00  0.00    -0.375 OA
ENDBRANCH   9  10
ENDBRANCH   8   9
ENDBRANCH   3   4
BRANCH   3  16
ATOM     15  C   UNL     1      -1.561  -2.797  -1.828  0.00  0.00    +0.002 C 
ATOM     16  C   UNL     1      -2.300  -2.721  -0.490  0.00  0.00    -0.011 C 
ENDBRANCH   3  16
ENDBRANCH   1   3
BRANCH   1  17
ATOM     17  C   UNL     1      -4.623  -0.819  -0.838  0.00  0.00    -0.042 C 
BRANCH  17  18
ATOM     18  C   UNL     1      -5.377  -0.339  -2.052  0.00  0.00    -0.064 A 
ATOM     19  C   UNL     1      -5.947   0.920  -2.058  0.00  0.00    +0.004 A 
ATOM     20  C   UNL     1      -6.634   1.363  -3.172  0.00  0.00    +0.038 A 
ATOM     21  C   UNL     1      -6.760   0.541  -4.279  0.00  0.00    +0.123 A 
ATOM     22  C   UNL     1      -6.193  -0.723  -4.270  0.00  0.00    +0.038 A 
ATOM     23  C   UNL     1      -5.502  -1.161  -3.157  0.00  0.00    +0.004 A 
ATOM     24  F   UNL     1      -7.436   0.971  -5.367  0.00  0.00    -0.205 F 
ENDBRANCH  17  18
ENDBRANCH   1  17
BRANCH   1  25
ATOM     25  C   UNL     1      -2.964   0.945  -0.842  0.00  0.00    -0.036 C 
BRANCH  25  26
ATOM     26  C   UNL     1      -1.767   1.346  -1.663  0.00  0.00    +0.001 A 
ATOM     27  C   UNL     1      -1.940   1.840  -2.914  0.00  0.00    +0.017 A 
ATOM     28  C   UNL     1      -0.756   2.225  -3.685  0.00  0.00    +0.002 A 
ATOM     29  C   UNL     1      -0.872   2.745  -4.978  0.00  0.00    -0.041 A 
ATOM     30  C   UNL     1       0.252   3.091  -5.672  0.00  0.00    +0.007 A 
ATOM     31  C   UNL     1       1.510   2.929  -5.106  0.00  0.00    -0.048 A 
ATOM     32  C   UNL     1       1.648   2.418  -3.834  0.00  0.00    +0.029 A 
ATOM     33  C   UNL     1       0.517   2.059  -3.107  0.00  0.00    +0.050 A 
ATOM     34  N   UNL     1       0.626   1.546  -1.833  0.00  0.00    -0.322 N 
ATOM     35  H   UNL     1       1.504   1.433  -1.436  0.00  0.00    +0.169 HD
ATOM     36  C   UNL     1      -0.468   1.200  -1.131  0.00  0.00    +0.251 A 
ATOM     37  O   UNL     1      -0.334   0.750  -0.006  0.00  0.00    -0.268 OA
ATOM     38  C   UNL     1       2.736   3.317  -5.891  0.00  0.00    +0.044 C 
ATOM     39  C   UNL     1      -2.232   2.924  -5.603  0.00  0.00    +0.044 C 
ENDBRANCH  25  26
ENDBRANCH   1  25
TORSDOF 9
