REMARK  Name = ZINC12987469
REMARK  6 active torsions:
REMARK  status: ('A' for Active; 'I' for Inactive)
REMARK    1  A    between atoms: C_9  and  C_12
REMARK    2  A    between atoms: C_15  and  S_17
REMARK    3  A    between atoms: S_17  and  C_18
REMARK    4  A    between atoms: C_18  and  C_19
REMARK    5  A    between atoms: N_21  and  C_22
REMARK    6  A    between atoms: C_23  and  C_31
REMARK                            x       y       z     vdW  Elec       q    Type
REMARK                         _______ _______ _______ _____ _____    ______ ____
ROOT
ATOM      1  C   UNL     1      -6.681   0.334   2.586  0.00  0.00    +0.228 C 
ATOM      2  O   UNL     1      -6.882   0.108   1.412  0.00  0.00    -0.275 OA
ATOM      3  N   UNL     1      -5.451   0.694   3.003  0.00  0.00    -0.279 N 
ATOM      4  H   UNL     1      -5.291   0.875   3.942  0.00  0.00    +0.155 HD
ENDROOT
BRANCH   3   5
ATOM      5  C   UNL     1      -4.415   0.807   2.088  0.00  0.00    +0.084 A 
ATOM      6  C   UNL     1      -3.094   1.162   2.321  0.00  0.00    +0.068 A 
ATOM      7  C   UNL     1      -2.199   1.208   1.178  0.00  0.00    -0.023 A 
ATOM      8  C   UNL     1      -2.764   0.894  -0.008  0.00  0.00    -0.004 A 
ATOM      9  S   UNL     1      -4.456   0.541   0.377  0.00  0.00    -0.077 S 
ATOM     10  C   UNL     1      -2.094   0.856  -1.347  0.00  0.00    +0.043 C 
ATOM     11  C   UNL     1      -0.750   1.591  -1.235  0.00  0.00    +0.005 C 
ATOM     12  C   UNL     1      -0.013   1.086   0.008  0.00  0.00    +0.005 C 
ATOM     13  C   UNL     1      -0.725   1.577   1.269  0.00  0.00    +0.037 C 
BRANCH   6  14
ATOM     14  C   UNL     1      -2.619   1.480   3.672  0.00  0.00    +0.244 C 
ATOM     15  O   UNL     1      -2.667   2.625   4.080  0.00  0.00    -0.270 OA
ATOM     16  N   UNL     1      -2.129   0.503   4.460  0.00  0.00    -0.325 N 
ATOM     17  H   UNL     1      -2.091  -0.410   4.135  0.00  0.00    +0.145 HD
ATOM     18  H   UNL     1      -1.815   0.712   5.354  0.00  0.00    +0.145 HD
ENDBRANCH   6  14
ENDBRANCH   3   5
BRANCH   1  19
ATOM     19  C   UNL     1      -7.807   0.210   3.580  0.00  0.00    +0.175 C 
BRANCH  19  20
ATOM     20  S   UNL     1      -9.320  -0.286   2.720  0.00  0.00    -0.056 S 
BRANCH  20  24
ATOM     21  C   UNL     1     -12.206  -0.598   5.289  0.00  0.00    +0.262 A 
ATOM     22  N   UNL     1     -11.213  -0.242   6.049  0.00  0.00    -0.108 NA
ATOM     23  N   UNL     1     -10.154  -0.093   5.334  0.00  0.00    -0.101 NA
ATOM     24  C   UNL     1     -10.438  -0.351   4.080  0.00  0.00    +0.278 A 
ATOM     25  O   UNL     1     -11.745  -0.671   4.024  0.00  0.00    -0.412 OA
BRANCH  21  34
ATOM     26  C   UNL     1     -17.459  -0.575   8.852  0.00  0.00    +0.004 A 
ATOM     27  C   UNL     1     -16.975   0.713   8.721  0.00  0.00    +0.004 A 
ATOM     28  C   UNL     1     -15.833   0.953   7.980  0.00  0.00    +0.049 A 
ATOM     29  C   UNL     1     -15.169  -0.099   7.366  0.00  0.00    +0.163 A 
ATOM     30  C   UNL     1     -15.657  -1.393   7.496  0.00  0.00    +0.162 A 
ATOM     31  C   UNL     1     -16.803  -1.627   8.241  0.00  0.00    +0.049 A 
ATOM     32  O   UNL     1     -15.024  -2.440   6.899  0.00  0.00    -0.484 OA
ATOM     33  C   UNL     1     -13.675  -2.217   6.474  0.00  0.00    +0.283 C 
ATOM     34  C   UNL     1     -13.618  -0.872   5.739  0.00  0.00    +0.297 C 
ATOM     35  O   UNL     1     -14.044   0.152   6.644  0.00  0.00    -0.472 OA
ENDBRANCH  21  34
ENDBRANCH  20  24
ENDBRANCH  19  20
ENDBRANCH   1  19
TORSDOF 6
