REMARK  Name = ZINC00887748
REMARK  10 active torsions:
REMARK  status: ('A' for Active; 'I' for Inactive)
REMARK    1  A    between atoms: C_1  and  O_2
REMARK    2  A    between atoms: O_2  and  C_3
REMARK    3  A    between atoms: C_6  and  C_9
REMARK    4  A    between atoms: C_9  and  N_10
REMARK    5  A    between atoms: C_11  and  C_13
REMARK    6  A    between atoms: C_13  and  N_14
REMARK    7  A    between atoms: N_14  and  C_15
REMARK    8  A    between atoms: C_25  and  C_27
REMARK    9  A    between atoms: C_27  and  N_28
REMARK   10  A    between atoms: C_30  and  C_33
REMARK                            x       y       z     vdW  Elec       q    Type
REMARK                         _______ _______ _______ _____ _____    ______ ____
ROOT
ATOM      1  N   UNL     1      -0.311   1.285  -4.835  0.00  0.00    -0.261 N 
ATOM      2  C   UNL     1      -0.657   0.106  -5.388  0.00  0.00    +0.243 C 
ATOM      3  O   UNL     1      -1.535  -0.565  -4.889  0.00  0.00    -0.273 OA
ENDROOT
BRANCH   1   4
ATOM      4  C   UNL     1       0.702   2.058  -5.412  0.00  0.00    +0.040 A 
ATOM      5  C   UNL     1       2.018   1.879  -5.012  0.00  0.00    +0.024 A 
ATOM      6  C   UNL     1       3.016   2.644  -5.583  0.00  0.00    +0.002 A 
ATOM      7  C   UNL     1       2.698   3.583  -6.543  0.00  0.00    +0.004 A 
ATOM      8  C   UNL     1       1.382   3.767  -6.947  0.00  0.00    -0.042 A 
ATOM      9  C   UNL     1       0.384   3.001  -6.390  0.00  0.00    -0.023 A 
ATOM     10  C   UNL     1      -1.063   3.140  -6.786  0.00  0.00    +0.037 C 
ATOM     11  C   UNL     1      -1.299   4.466  -7.506  0.00  0.00    +0.005 C 
ATOM     12  C   UNL     1      -0.263   4.598  -8.628  0.00  0.00    +0.005 C 
ATOM     13  C   UNL     1       1.110   4.815  -7.994  0.00  0.00    +0.035 C 
ENDBRANCH   1   4
BRANCH   1  14
ATOM     14  C   UNL     1      -0.997   1.758  -3.630  0.00  0.00    +0.209 C 
BRANCH  14  16
ATOM     15  N   UNL     1      -0.721   1.571  -1.179  0.00  0.00    -0.310 N 
ATOM     16  C   UNL     1      -0.268   1.258  -2.409  0.00  0.00    +0.231 C 
ATOM     17  O   UNL     1       0.726   0.575  -2.534  0.00  0.00    -0.274 OA
ATOM     18  H   UNL     1      -1.516   2.118  -1.079  0.00  0.00    +0.149 HD
BRANCH  15  19
ATOM     19  C   UNL     1      -0.013   1.086   0.008  0.00  0.00    +0.139 C 
BRANCH  19  23
ATOM     20  C   UNL     1      -2.013   2.464   3.524  0.00  0.00    +0.120 A 
ATOM     21  C   UNL     1      -2.368   1.250   2.954  0.00  0.00    +0.046 A 
ATOM     22  C   UNL     1      -1.720   0.807   1.817  0.00  0.00    +0.009 A 
ATOM     23  C   UNL     1      -0.718   1.572   1.248  0.00  0.00    -0.030 A 
ATOM     24  C   UNL     1      -0.359   2.779   1.818  0.00  0.00    +0.009 A 
ATOM     25  C   UNL     1      -1.008   3.230   2.951  0.00  0.00    +0.046 A 
BRANCH  20  27
ATOM     26  C   UNL     1      -2.232   4.161   5.174  0.00  0.00    +0.277 C 
ATOM     27  O   UNL     1      -2.649   2.902   4.642  0.00  0.00    -0.495 OA
ENDBRANCH  20  27
ENDBRANCH  19  23
ENDBRANCH  15  19
ENDBRANCH  14  16
ENDBRANCH   1  14
BRANCH   2  28
ATOM     28  C   UNL     1       0.049  -0.380  -6.628  0.00  0.00    +0.264 C 
BRANCH  28  29
ATOM     29  N   UNL     1      -0.505  -1.676  -7.029  0.00  0.00    -0.154 N 
ATOM     30  N   UNL     1      -0.070  -2.825  -6.639  0.00  0.00    -0.129 NA
ATOM     31  C   UNL     1      -0.818  -3.753  -7.205  0.00  0.00    +0.211 A 
ATOM     32  N   UNL     1      -1.720  -3.110  -7.962  0.00  0.00    -0.107 NA
ATOM     33  N   UNL     1      -1.498  -1.846  -7.830  0.00  0.00    -0.045 NA
BRANCH  31  34
ATOM     34  C   UNL     1      -0.685  -5.217  -7.040  0.00  0.00    +0.060 A 
ATOM     35  C   UNL     1      -1.431  -6.219  -7.601  0.00  0.00    +0.019 A 
ATOM     36  C   UNL     1      -1.115  -7.526  -7.302  0.00  0.00    +0.008 A 
ATOM     37  C   UNL     1      -0.086  -7.781  -6.454  0.00  0.00    +0.046 A 
ATOM     38  S   UNL     1       0.484  -6.137  -6.054  0.00  0.00    -0.093 S 
ENDBRANCH  31  34
ENDBRANCH  28  29
ENDBRANCH   2  28
TORSDOF 9
