REMARK  Name = ZINC22578123
REMARK  10 active torsions:
REMARK  status: ('A' for Active; 'I' for Inactive)
REMARK    1  A    between atoms: C_1  and  C_2
REMARK    2  A    between atoms: C_2  and  C_4
REMARK    3  A    between atoms: C_2  and  S_27
REMARK    4  A    between atoms: N_6  and  C_7
REMARK    5  A    between atoms: C_8  and  C_23
REMARK    6  A    between atoms: C_13  and  C_17
REMARK    7  A    between atoms: C_23  and  O_25
REMARK    8  A    between atoms: O_25  and  C_26
REMARK    9  A    between atoms: S_27  and  C_28
REMARK   10  A    between atoms: C_31  and  N_34
REMARK                            x       y       z     vdW  Elec       q    Type
REMARK                         _______ _______ _______ _____ _____    ______ ____
ROOT
ATOM      1  C   UNL     1      -7.286   4.682  -1.252  0.00  0.00    +0.086 A 
ATOM      2  C   UNL     1      -6.697   4.706   0.006  0.00  0.00    +0.091 A 
ATOM      3  C   UNL     1      -5.324   4.239   0.112  0.00  0.00    -0.021 A 
ATOM      4  C   UNL     1      -4.766   3.826  -1.046  0.00  0.00    -0.004 A 
ATOM      5  S   UNL     1      -6.031   4.049  -2.264  0.00  0.00    -0.077 S 
ATOM      6  C   UNL     1      -3.378   3.298  -1.241  0.00  0.00    +0.051 C 
ATOM      7  C   UNL     1      -2.549   3.642   0.005  0.00  0.00    +0.024 C 
ATOM      8  C   UNL     1      -3.350   3.255   1.252  0.00  0.00    +0.013 C 
ATOM      9  C   UNL     1      -4.541   4.201   1.419  0.00  0.00    +0.037 C 
ENDROOT
BRANCH   7  10
ATOM     10  C   UNL     1      -1.254   2.873  -0.021  0.00  0.00    -0.044 A 
ATOM     11  C   UNL     1      -1.271   1.491  -0.042  0.00  0.00    +0.004 A 
ATOM     12  C   UNL     1      -0.082   0.785  -0.061  0.00  0.00    +0.000 A 
ATOM     13  C   UNL     1       1.123   1.462  -0.069  0.00  0.00    +0.000 A 
ATOM     14  C   UNL     1       1.140   2.844  -0.052  0.00  0.00    +0.000 A 
ATOM     15  C   UNL     1      -0.048   3.549  -0.029  0.00  0.00    +0.004 A 
ENDBRANCH   7  10
BRANCH   1  18
ATOM     16  C   UNL     1      -8.967   4.975  -2.893  0.00  0.00    +0.231 C 
ATOM     17  O   UNL     1      -8.205   4.548  -3.735  0.00  0.00    -0.274 OA
ATOM     18  N   UNL     1      -8.567   5.071  -1.609  0.00  0.00    -0.278 N 
ATOM     19  H   UNL     1      -9.258   5.457  -0.846  0.00  0.00    +0.155 HD
BRANCH  16  21
ATOM     20  C   UNL     1     -10.382   6.905  -3.542  0.00  0.00    +0.029 C 
ATOM     21  C   UNL     1     -10.360   5.397  -3.282  0.00  0.00    +0.134 C 
BRANCH  21  22
ATOM     22  S   UNL     1     -10.861   4.517  -4.788  0.00  0.00    -0.113 S 
BRANCH  22  23
ATOM     23  C   UNL     1     -11.034   2.844  -4.265  0.00  0.00    +0.009 A 
ATOM     24  C   UNL     1     -10.908   2.519  -2.920  0.00  0.00    +0.016 A 
ATOM     25  C   UNL     1     -11.050   1.208  -2.510  0.00  0.00    +0.024 A 
ATOM     26  C   UNL     1     -11.308   0.213  -3.444  0.00  0.00    +0.025 A 
ATOM     27  C   UNL     1     -11.429   0.536  -4.789  0.00  0.00    +0.024 A 
ATOM     28  C   UNL     1     -11.293   1.848  -5.199  0.00  0.00    +0.016 A 
BRANCH  26  29
ATOM     29  N   UNL     1     -11.446  -1.117  -3.029  0.00  0.00    -0.358 N 
ATOM     30  H   UNL     1     -11.651  -1.906  -3.768  0.00  0.00    +0.142 HD
ATOM     31  H   UNL     1     -11.351  -1.374  -1.963  0.00  0.00    +0.142 HD
ENDBRANCH  26  29
ENDBRANCH  22  23
ENDBRANCH  21  22
ENDBRANCH  16  21
ENDBRANCH   1  18
BRANCH   2  32
ATOM     32  C   UNL     1      -7.430   5.184   1.180  0.00  0.00    +0.342 C 
ATOM     33  O   UNL     1      -7.387   6.360   1.486  0.00  0.00    -0.245 OA
BRANCH  32  34
ATOM     34  O   UNL     1      -8.153   4.319   1.921  0.00  0.00    -0.464 OA
ATOM     35  C   UNL     1      -8.854   4.862   3.071  0.00  0.00    +0.280 C 
ENDBRANCH  32  34
ENDBRANCH   2  32
TORSDOF 8
