REMARK  Name = ZINC15967928
REMARK  11 active torsions:
REMARK  status: ('A' for Active; 'I' for Inactive)
REMARK    1  A    between atoms: C_1  and  C_2
REMARK    2  A    between atoms: N_20  and  C_23
REMARK    3  A    between atoms: C_28  and  C_29
REMARK    4  A    between atoms: N_31  and  C_32
REMARK    5  A    between atoms: C_32  and  C_34
REMARK    6  A    between atoms: C_32  and  C_35
REMARK    7  A    between atoms: C_35  and  C_36
REMARK    8  A    between atoms: C_36  and  C_37
REMARK    9  A    between atoms: C_37  and  C_38
REMARK   10  A    between atoms: C_38  and  C_39
REMARK   11  A    between atoms: C_38  and  C_40
REMARK                            x       y       z     vdW  Elec       q    Type
REMARK                         _______ _______ _______ _____ _____    ______ ____
ROOT
ATOM      1  C   UNL     1      -4.581   5.747  -3.028  0.00  0.00    +0.035 C 
ATOM      2  C   UNL     1      -5.227   5.477  -1.667  0.00  0.00    +0.122 C 
ATOM      3  C   UNL     1      -5.622   6.784  -1.010  0.00  0.00    +0.041 A 
ATOM      4  C   UNL     1      -5.247   7.138   0.238  0.00  0.00    -0.015 A 
ATOM      5  C   UNL     1      -5.831   8.441   0.496  0.00  0.00    +0.003 A 
ATOM      6  C   UNL     1      -5.788   9.292   1.605  0.00  0.00    +0.010 A 
ATOM      7  C   UNL     1      -6.471  10.479   1.501  0.00  0.00    +0.001 A 
ATOM      8  C   UNL     1      -7.172  10.828   0.358  0.00  0.00    +0.002 A 
ATOM      9  C   UNL     1      -7.231  10.004  -0.753  0.00  0.00    +0.026 A 
ATOM     10  C   UNL     1      -6.547   8.793  -0.676  0.00  0.00    +0.047 A 
ATOM     11  N   UNL     1      -6.396   7.768  -1.565  0.00  0.00    -0.356 N 
ATOM     12  H   UNL     1      -6.780   7.740  -2.456  0.00  0.00    +0.166 HD
ATOM     13  C   UNL     1      -4.385   6.320   1.166  0.00  0.00    +0.069 C 
ATOM     14  C   UNL     1      -4.389   4.857   0.707  0.00  0.00    +0.169 C 
ATOM     15  N   UNL     1      -4.258   4.840  -0.767  0.00  0.00    -0.265 N 
ATOM     16  C   UNL     1      -3.130   4.189  -1.057  0.00  0.00    +0.317 C 
ATOM     17  O   UNL     1      -2.751   3.961  -2.189  0.00  0.00    -0.252 OA
ATOM     18  N   UNL     1      -2.465   3.812   0.044  0.00  0.00    -0.192 N 
ATOM     19  C   UNL     1      -3.117   4.175   1.168  0.00  0.00    +0.248 C 
ATOM     20  O   UNL     1      -2.758   3.993   2.312  0.00  0.00    -0.273 OA
ENDROOT
BRANCH  18  21
ATOM     21  C   UNL     1      -1.245   3.133   0.030  0.00  0.00    +0.058 A 
ATOM     22  C   UNL     1      -1.220   1.746   0.017  0.00  0.00    +0.025 A 
ATOM     23  C   UNL     1      -0.013   1.076   0.008  0.00  0.00    +0.002 A 
ATOM     24  C   UNL     1       1.180   1.781   0.000  0.00  0.00    +0.001 A 
ATOM     25  C   UNL     1       1.174   3.159   0.008  0.00  0.00    +0.015 A 
ATOM     26  C   UNL     1      -0.040   3.850   0.023  0.00  0.00    +0.059 A 
BRANCH  26  27
ATOM     27  C   UNL     1      -0.054   5.325   0.031  0.00  0.00    +0.246 C 
ATOM     28  O   UNL     1      -1.113   5.923   0.044  0.00  0.00    -0.270 OA
ATOM     29  N   UNL     1       1.107   6.010   0.025  0.00  0.00    -0.309 N 
ATOM     30  H   UNL     1       1.951   5.533   0.014  0.00  0.00    +0.149 HD
BRANCH  29  31
ATOM     31  C   UNL     1       1.093   7.475   0.033  0.00  0.00    +0.070 C 
ATOM     32  C   UNL     1       0.975   7.976   1.474  0.00  0.00    +0.028 C 
BRANCH  31  33
ATOM     33  C   UNL     1       2.390   8.001  -0.585  0.00  0.00    +0.022 C 
BRANCH  33  34
ATOM     34  C   UNL     1       2.448   7.605  -2.062  0.00  0.00    +0.002 C 
BRANCH  34  35
ATOM     35  C   UNL     1       3.745   8.131  -2.680  0.00  0.00    +0.003 C 
BRANCH  35  36
ATOM     36  C   UNL     1       3.803   7.736  -4.157  0.00  0.00    -0.017 C 
ATOM     37  C   UNL     1       5.037   8.366  -4.806  0.00  0.00    +0.007 C 
ATOM     38  C   UNL     1       3.887   6.212  -4.274  0.00  0.00    +0.007 C 
ENDBRANCH  35  36
ENDBRANCH  34  35
ENDBRANCH  33  34
ENDBRANCH  31  33
ENDBRANCH  29  31
ENDBRANCH  26  27
ENDBRANCH  18  21
TORSDOF 7
