REMARK  Name = ZINC21670328
REMARK  6 active torsions:
REMARK  status: ('A' for Active; 'I' for Inactive)
REMARK    1  A    between atoms: C_1  and  C_2
REMARK    2  A    between atoms: C_5  and  N_8
REMARK    3  A    between atoms: C_12  and  N_16
REMARK    4  A    between atoms: C_20  and  C_21
REMARK    5  A    between atoms: C_22  and  O_34
REMARK    6  A    between atoms: C_24  and  C_25
REMARK                            x       y       z     vdW  Elec       q    Type
REMARK                         _______ _______ _______ _____ _____    ______ ____
ROOT
ATOM      1  N   UNL     1       0.922  -7.045   0.419  0.00  0.00    -0.303 N 
ATOM      2  C   UNL     1       2.199  -6.458  -0.019  0.00  0.00    +0.128 C 
ATOM      3  C   UNL     1       3.255  -7.295   0.729  0.00  0.00    +0.133 C 
ATOM      4  N   UNL     1       2.465  -8.260   1.506  0.00  0.00    -0.371 N 
ATOM      5  C   UNL     1       1.196  -8.068   1.298  0.00  0.00    +0.102 C 
ATOM      6  H   UNL     1       2.836  -8.938   2.092  0.00  0.00    +0.161 HD
ENDROOT
BRANCH   1  11
ATOM      7  N   UNL     1      -0.808  -4.535  -0.977  0.00  0.00    -0.209 N 
ATOM      8  C   UNL     1      -0.830  -5.376  -2.019  0.00  0.00    +0.228 C 
ATOM      9  O   UNL     1      -1.018  -5.058  -3.174  0.00  0.00    -0.275 OA
ATOM     10  C   UNL     1      -0.582  -6.785  -1.526  0.00  0.00    +0.128 C 
ATOM     11  C   UNL     1      -0.411  -6.611  -0.004  0.00  0.00    +0.170 C 
ATOM     12  C   UNL     1      -0.575  -5.121   0.204  0.00  0.00    +0.247 C 
ATOM     13  O   UNL     1      -0.509  -4.549   1.270  0.00  0.00    -0.273 OA
BRANCH   7  18
ATOM     14  C   UNL     1      -1.613   1.056  -1.528  0.00  0.00    +0.044 C 
ATOM     15  C   UNL     1      -1.399  -0.428  -1.381  0.00  0.00    -0.050 A 
ATOM     16  C   UNL     1      -0.165  -0.912  -0.990  0.00  0.00    +0.005 A 
ATOM     17  C   UNL     1       0.034  -2.273  -0.855  0.00  0.00    +0.024 A 
ATOM     18  C   UNL     1      -1.007  -3.154  -1.113  0.00  0.00    +0.044 A 
ATOM     19  C   UNL     1      -2.246  -2.665  -1.505  0.00  0.00    +0.024 A 
ATOM     20  C   UNL     1      -2.440  -1.303  -1.633  0.00  0.00    +0.005 A 
ENDBRANCH   7  18
ENDBRANCH   1  11
BRANCH   5  21
ATOM     21  C   UNL     1       0.185  -8.845   1.918  0.00  0.00    +0.032 C 
ATOM     22  C   UNL     1      -0.005 -10.170   1.720  0.00  0.00    +0.126 C 
ATOM     23  C   UNL     1      -1.126 -10.680   2.501  0.00  0.00    -0.005 C 
ATOM     24  C   UNL     1      -1.567 -11.954   2.522  0.00  0.00    +0.015 C 
ATOM     25  C   UNL     1      -1.706  -9.522   3.284  0.00  0.00    +0.044 C 
ATOM     26  C   UNL     1      -0.832  -8.317   2.898  0.00  0.00    +0.047 C 
BRANCH  24  27
ATOM     27  C   UNL     1      -0.785 -13.014   1.864  0.00  0.00    -0.025 A 
ATOM     28  C   UNL     1       0.608 -13.037   1.983  0.00  0.00    +0.009 A 
ATOM     29  C   UNL     1       1.333 -14.032   1.365  0.00  0.00    +0.020 A 
ATOM     30  C   UNL     1       0.685 -15.009   0.626  0.00  0.00    +0.041 A 
ATOM     31  C   UNL     1      -0.695 -14.992   0.503  0.00  0.00    +0.020 A 
ATOM     32  C   UNL     1      -1.433 -14.006   1.121  0.00  0.00    +0.009 A 
ATOM     33 CL   UNL     1       1.607 -16.259  -0.150  0.00  0.00    -0.084 Cl
ENDBRANCH  24  27
BRANCH  22  34
ATOM     34  O   UNL     1       0.755 -10.931   0.895  0.00  0.00    -0.506 OA
ATOM     35  H   UNL     1       1.408 -10.430   0.388  0.00  0.00    +0.292 HD
ENDBRANCH  22  34
ENDBRANCH   5  21
TORSDOF 5
