REMARK  Name = ZINC64384614
REMARK  8 active torsions:
REMARK  status: ('A' for Active; 'I' for Inactive)
REMARK    1  A    between atoms: C_1  and  C_2
REMARK    2  A    between atoms: C_4  and  S_23
REMARK    3  A    between atoms: C_6  and  N_9
REMARK    4  A    between atoms: C_7  and  C_8
REMARK    5  A    between atoms: C_10  and  C_12
REMARK    6  A    between atoms: C_12  and  C_13
REMARK    7  A    between atoms: N_15  and  C_22
REMARK    8  A    between atoms: S_23  and  N_26
REMARK                            x       y       z     vdW  Elec       q    Type
REMARK                         _______ _______ _______ _____ _____    ______ ____
ROOT
ATOM      1  N   UNL     1       0.052  -2.797   2.393  0.00  0.00    -0.285 N 
ATOM      2  C   UNL     1      -0.031  -4.143   2.385  0.00  0.00    +0.222 C 
ATOM      3  O   UNL     1      -0.028  -4.745   1.333  0.00  0.00    -0.275 OA
ATOM      4  H   UNL     1       0.130  -2.321   3.234  0.00  0.00    +0.155 HD
ENDROOT
BRANCH   1  10
ATOM      5  C   UNL     1       1.206   1.236  -0.172  0.00  0.00    +0.044 C 
ATOM      6  C   UNL     1       0.577  -0.131  -0.084  0.00  0.00    -0.044 A 
ATOM      7  C   UNL     1      -0.027  -0.686  -1.198  0.00  0.00    +0.032 A 
ATOM      8  C   UNL     1      -0.605  -1.940  -1.122  0.00  0.00    +0.107 A 
ATOM      9  C   UNL     1      -0.580  -2.642   0.067  0.00  0.00    +0.052 A 
ATOM     10  C   UNL     1       0.026  -2.088   1.187  0.00  0.00    +0.038 A 
ATOM     11  C   UNL     1       0.610  -0.831   1.106  0.00  0.00    -0.026 A 
ATOM     12  C   UNL     1       1.274  -0.228   2.317  0.00  0.00    +0.046 C 
BRANCH   8  13
ATOM     13  S   UNL     1      -1.374  -2.642  -2.544  0.00  0.00    +0.056 S 
ATOM     14  O   UNL     1      -2.317  -3.591  -2.067  0.00  0.00    -0.153 OA
ATOM     15  O   UNL     1      -1.743  -1.556  -3.383  0.00  0.00    -0.153 OA
BRANCH  13  16
ATOM     16  N   UNL     1      -0.212  -3.496  -3.357  0.00  0.00    -0.204 NA
ATOM     17  H   UNL     1       0.695  -3.530  -3.014  0.00  0.00    +0.144 HD
ATOM     18  H   UNL     1      -0.438  -3.962  -4.177  0.00  0.00    +0.144 HD
ENDBRANCH  13  16
ENDBRANCH   8  13
ENDBRANCH   1  10
BRANCH   2  19
ATOM     19  C   UNL     1      -0.129  -4.898   3.686  0.00  0.00    +0.133 C 
BRANCH  19  20
ATOM     20  C   UNL     1      -0.210  -6.376   3.402  0.00  0.00    -0.013 A 
ATOM     21  C   UNL     1      -1.330  -7.109   3.298  0.00  0.00    +0.090 A 
ATOM     22  N   UNL     1      -1.011  -8.414   3.035  0.00  0.00    -0.349 N 
ATOM     23  C   UNL     1       0.357  -8.556   2.962  0.00  0.00    +0.049 A 
ATOM     24  C   UNL     1       0.918  -7.285   3.183  0.00  0.00    +0.003 A 
ATOM     25  C   UNL     1       2.305  -7.123   3.162  0.00  0.00    +0.010 A 
ATOM     26  C   UNL     1       3.110  -8.200   2.922  0.00  0.00    +0.001 A 
ATOM     27  C   UNL     1       2.561  -9.455   2.700  0.00  0.00    +0.002 A 
ATOM     28  C   UNL     1       1.196  -9.640   2.726  0.00  0.00    +0.026 A 
ATOM     29  C   UNL     1      -1.980  -9.497   2.857  0.00  0.00    +0.149 C 
ENDBRANCH  19  20
ENDBRANCH   2  19
TORSDOF 5
