REMARK  Name = ZINC18744549
REMARK  12 active torsions:
REMARK  status: ('A' for Active; 'I' for Inactive)
REMARK    1  A    between atoms: C_1  and  C_2
REMARK    2  A    between atoms: C_5  and  N_9
REMARK    3  A    between atoms: C_10  and  C_12
REMARK    4  A    between atoms: C_12  and  C_14
REMARK    5  A    between atoms: C_12  and  S_15
REMARK    6  A    between atoms: S_15  and  C_16
REMARK    7  A    between atoms: C_19  and  C_22
REMARK    8  A    between atoms: N_20  and  N_21
REMARK    9  A    between atoms: C_22  and  O_23
REMARK   10  A    between atoms: O_23  and  C_24
REMARK   11  A    between atoms: C_26  and  C_31
REMARK   12  A    between atoms: C_28  and  C_30
REMARK                            x       y       z     vdW  Elec       q    Type
REMARK                         _______ _______ _______ _____ _____    ______ ____
ROOT
ATOM      1  C   UNL     1      -5.128  -3.350   0.297  0.00  0.00    +0.209 A 
ATOM      2  N   UNL     1      -6.179  -2.672  -0.102  0.00  0.00    -0.121 NA
ATOM      3  N   UNL     1      -7.225  -3.417  -0.048  0.00  0.00    -0.128 NA
ATOM      4  C   UNL     1      -6.909  -4.601   0.395  0.00  0.00    +0.189 A 
ATOM      5  N   UNL     1      -5.562  -4.601   0.630  0.00  0.00    -0.225 N 
ENDROOT
BRANCH   5   6
ATOM      6  N   UNL     1      -4.807  -5.638   1.101  0.00  0.00    -0.295 N 
ATOM      7  H   UNL     1      -4.761  -5.623   2.109  0.00  0.00    +0.163 HD
ATOM      8  H   UNL     1      -5.160  -6.522   0.767  0.00  0.00    +0.163 HD
ENDBRANCH   5   6
BRANCH   1   9
ATOM      9  S   UNL     1      -3.473  -2.755   0.394  0.00  0.00    -0.072 S 
BRANCH   9  10
ATOM     10  C   UNL     1      -3.712  -1.062  -0.201  0.00  0.00    +0.137 C 
ATOM     11  C   UNL     1      -4.160  -1.095  -1.664  0.00  0.00    +0.029 C 
BRANCH  10  13
ATOM     12  N   UNL     1      -2.428   1.040   0.019  0.00  0.00    -0.284 N 
ATOM     13  C   UNL     1      -2.415  -0.303  -0.090  0.00  0.00    +0.230 C 
ATOM     14  O   UNL     1      -1.359  -0.900  -0.098  0.00  0.00    -0.274 OA
ATOM     15  H   UNL     1      -3.271   1.512   0.107  0.00  0.00    +0.155 HD
BRANCH  12  20
ATOM     16  C   UNL     1       2.447   3.944  -0.045  0.00  0.00    +0.044 C 
ATOM     17  C   UNL     1       1.153   3.172  -0.025  0.00  0.00    -0.049 A 
ATOM     18  C   UNL     1       1.082   1.928  -0.626  0.00  0.00    +0.005 A 
ATOM     19  C   UNL     1      -0.102   1.218  -0.610  0.00  0.00    +0.024 A 
ATOM     20  C   UNL     1      -1.225   1.755   0.006  0.00  0.00    +0.047 A 
ATOM     21  C   UNL     1      -1.149   3.003   0.614  0.00  0.00    +0.039 A 
ATOM     22  C   UNL     1       0.039   3.708   0.594  0.00  0.00    +0.020 A 
ATOM     23 BR   UNL     1      -2.673   3.737   1.459  0.00  0.00    -0.048 Br
ENDBRANCH  12  20
ENDBRANCH  10  13
ENDBRANCH   9  10
ENDBRANCH   1   9
BRANCH   4  24
ATOM     24  C   UNL     1      -7.853  -5.757   0.607  0.00  0.00    +0.306 C 
BRANCH  24  25
ATOM     25  O   UNL     1      -8.372  -5.709   1.937  0.00  0.00    -0.484 OA
BRANCH  25  26
ATOM     26  C   UNL     1      -9.245  -6.688   2.294  0.00  0.00    +0.122 A 
ATOM     27  C   UNL     1      -9.599  -7.670   1.381  0.00  0.00    +0.049 A 
ATOM     28  C   UNL     1     -10.482  -8.667   1.748  0.00  0.00    -0.047 A 
ATOM     29  C   UNL     1     -11.022  -8.680   3.020  0.00  0.00    +0.007 A 
ATOM     30  C   UNL     1     -10.676  -7.699   3.931  0.00  0.00    -0.047 A 
ATOM     31  C   UNL     1      -9.788  -6.703   3.571  0.00  0.00    +0.049 A 
ATOM     32  C   UNL     1     -11.265  -7.716   5.317  0.00  0.00    +0.044 C 
ATOM     33  C   UNL     1     -10.861  -9.738   0.758  0.00  0.00    +0.044 C 
ENDBRANCH  25  26
ENDBRANCH  24  25
ENDBRANCH   4  24
TORSDOF 8
