REMARK  Name = ZINC32282241
REMARK  4 active torsions:
REMARK  status: ('A' for Active; 'I' for Inactive)
REMARK    1  A    between atoms: C_1  and  C_2
REMARK    2  A    between atoms: C_2  and  C_4
REMARK    3  A    between atoms: C_2  and  N_15
REMARK    4  A    between atoms: C_16  and  C_18
REMARK                            x       y       z     vdW  Elec       q    Type
REMARK                         _______ _______ _______ _____ _____    ______ ____
ROOT
ATOM      1  C   UNL     1       1.423   1.615  -0.003  0.00  0.00    +0.033 C 
ATOM      2  C   UNL     1      -0.013   1.086   0.008  0.00  0.00    +0.100 C 
ENDROOT
BRANCH   2   3
ATOM      3  C   UNL     1      -0.742   1.585  -1.213  0.00  0.00    -0.024 A 
ATOM      4  C   UNL     1      -1.251   2.870  -1.234  0.00  0.00    +0.009 A 
ATOM      5  C   UNL     1      -1.921   3.335  -2.351  0.00  0.00    +0.050 A 
ATOM      6  C   UNL     1      -2.079   2.509  -3.450  0.00  0.00    +0.162 A 
ATOM      7  C   UNL     1      -1.567   1.219  -3.430  0.00  0.00    +0.162 A 
ATOM      8  C   UNL     1      -0.893   0.758  -2.312  0.00  0.00    +0.055 A 
ATOM      9  O   UNL     1      -1.728   0.412  -4.518  0.00  0.00    -0.488 OA
ATOM     10  C   UNL     1      -3.067  -0.010  -4.791  0.00  0.00    +0.232 C 
ATOM     11  C   UNL     1      -3.809   1.042  -5.600  0.00  0.00    +0.082 C 
ATOM     12  C   UNL     1      -3.997   2.339  -4.829  0.00  0.00    +0.232 C 
ATOM     13  O   UNL     1      -2.736   2.956  -4.560  0.00  0.00    -0.488 OA
ENDBRANCH   2   3
BRANCH   2  14
ATOM     14  N   UNL     1      -0.698   1.558   1.213  0.00  0.00    -0.309 N 
ATOM     15  C   UNL     1      -0.575   0.877   2.369  0.00  0.00    +0.217 C 
ATOM     16  O   UNL     1       0.103  -0.128   2.412  0.00  0.00    -0.275 OA
ATOM     17  H   UNL     1      -1.314   2.469   1.175  0.00  0.00    +0.149 HD
BRANCH  15  18
ATOM     18  C   UNL     1      -1.281   1.363   3.609  0.00  0.00    +0.079 C 
ATOM     19  C   UNL     1      -0.988   0.411   4.776  0.00  0.00    +0.017 C 
ATOM     20  C   UNL     1      -1.565   1.021   6.055  0.00  0.00    +0.027 C 
ATOM     21  C   UNL     1      -2.987   1.444   5.830  0.00  0.00    -0.031 C 
ATOM     22  C   UNL     1      -3.519   1.605   4.661  0.00  0.00    -0.030 C 
ATOM     23  C   UNL     1      -2.791   1.387   3.366  0.00  0.00    +0.039 C 
ENDBRANCH  15  18
ENDBRANCH   2  14
TORSDOF 3
