REMARK  Name = ZINC43221251
REMARK  8 active torsions:
REMARK  status: ('A' for Active; 'I' for Inactive)
REMARK    1  A    between atoms: C_1  and  O_2
REMARK    2  A    between atoms: O_2  and  C_3
REMARK    3  A    between atoms: C_5  and  C_10
REMARK    4  A    between atoms: C_8  and  O_9
REMARK    5  A    between atoms: N_18  and  C_21
REMARK    6  A    between atoms: C_27  and  C_29
REMARK    7  A    between atoms: C_27  and  C_36
REMARK    8  A    between atoms: C_29  and  C_30
REMARK                            x       y       z     vdW  Elec       q    Type
REMARK                         _______ _______ _______ _____ _____    ______ ____
ROOT
ATOM      1  C   UNL     1      -4.871   0.257   0.037  0.00  0.00    -0.027 C 
ATOM      2  C   UNL     1      -5.500   0.288  -1.352  0.00  0.00    +0.077 C 
ATOM      3  C   UNL     1      -6.945   0.729  -0.903  0.00  0.00    +0.086 C 
ATOM      4  C   UNL     1      -7.516   1.193  -2.145  0.00  0.00    +0.225 C 
ATOM      5  O   UNL     1      -8.672   1.116  -2.500  0.00  0.00    -0.275 OA
ATOM      6  N   UNL     1      -6.463   1.741  -2.836  0.00  0.00    -0.239 N 
ATOM      7  C   UNL     1      -5.235   1.419  -2.295  0.00  0.00    +0.225 C 
ATOM      8  O   UNL     1      -4.166   1.941  -2.524  0.00  0.00    -0.275 OA
ATOM      9  C   UNL     1      -7.252  -0.184   0.205  0.00  0.00    +0.052 C 
ATOM     10  N   UNL     1      -5.917  -0.419   0.873  0.00  0.00    +0.396 N 
ATOM     11  H   UNL     1      -5.734  -1.410   0.914  0.00  0.00    -0.083 HD
ATOM     12  H   UNL     1      -5.915  -0.030   1.804  0.00  0.00    -0.083 HD
ENDROOT
BRANCH   1  15
ATOM     13  C   UNL     1      -1.201  -0.638   0.010  0.00  0.00    +0.161 A 
ATOM     14  C   UNL     1      -2.374   0.099   0.019  0.00  0.00    +0.051 A 
ATOM     15  C   UNL     1      -3.596  -0.546   0.027  0.00  0.00    -0.057 A 
ATOM     16  C   UNL     1      -3.652  -1.928   0.026  0.00  0.00    +0.006 A 
ATOM     17  C   UNL     1      -2.485  -2.669   0.017  0.00  0.00    +0.049 A 
ATOM     18  C   UNL     1      -1.257  -2.028   0.003  0.00  0.00    +0.158 A 
BRANCH  13  20
ATOM     19  C   UNL     1      -0.017   1.425   0.010  0.00  0.00    +0.277 C 
ATOM     20  O   UNL     1       0.002  -0.004   0.002  0.00  0.00    -0.491 OA
ENDBRANCH  13  20
BRANCH  18  21
ATOM     21  O   UNL     1      -0.108  -2.756  -0.012  0.00  0.00    -0.503 OA
ATOM     22  H   UNL     1       0.232  -2.972   0.867  0.00  0.00    +0.292 HD
ENDBRANCH  18  21
ENDBRANCH   1  15
BRANCH   6  23
ATOM     23  C   UNL     1      -6.623   2.571  -4.032  0.00  0.00    +0.084 C 
ATOM     24  C   UNL     1      -5.901   1.912  -5.210  0.00  0.00    +0.023 C 
ATOM     25  C   UNL     1      -6.067   2.779  -6.459  0.00  0.00    +0.002 C 
ATOM     26  C   UNL     1      -5.468   4.164  -6.203  0.00  0.00    +0.000 C 
ATOM     27  C   UNL     1      -6.190   4.822  -5.026  0.00  0.00    +0.002 C 
ATOM     28  C   UNL     1      -6.023   3.955  -3.776  0.00  0.00    +0.023 C 
ENDBRANCH   6  23
BRANCH   9  29
ATOM     29  C   UNL     1      -7.840  -1.469  -0.319  0.00  0.00    +0.347 C 
ATOM     30  O   UNL     1      -7.280  -2.529  -0.099  0.00  0.00    -0.248 OA
ATOM     31  O   UNL     1      -8.875  -1.448  -0.962  0.00  0.00    -0.248 OA
ENDBRANCH   9  29
BRANCH   9  32
ATOM     32  C   UNL     1      -8.214   0.481   1.192  0.00  0.00    +0.035 C 
BRANCH  32  33
ATOM     33  C   UNL     1      -8.419  -0.423   2.381  0.00  0.00    -0.048 A 
ATOM     34  C   UNL     1      -9.435  -1.360   2.369  0.00  0.00    +0.003 A 
ATOM     35  C   UNL     1      -9.623  -2.189   3.459  0.00  0.00    +0.000 A 
ATOM     36  C   UNL     1      -8.794  -2.082   4.560  0.00  0.00    +0.000 A 
ATOM     37  C   UNL     1      -7.777  -1.145   4.571  0.00  0.00    +0.000 A 
ATOM     38  C   UNL     1      -7.587  -0.319   3.479  0.00  0.00    +0.003 A 
ENDBRANCH  32  33
ENDBRANCH   9  32
TORSDOF 7
