REMARK  Name = ZINC62789061
REMARK  3 active torsions:
REMARK  status: ('A' for Active; 'I' for Inactive)
REMARK    1  A    between atoms: C_3  and  C_17
REMARK    2  A    between atoms: C_4  and  O_8
REMARK    3  A    between atoms: O_8  and  C_9
REMARK                            x       y       z     vdW  Elec       q    Type
REMARK                         _______ _______ _______ _____ _____    ______ ____
ROOT
ATOM      1  C   UNL     1       0.018   1.296  -0.441  0.00  0.00    +0.021 A 
ATOM      2  C   UNL     1       1.161   2.058  -0.334  0.00  0.00    +0.016 A 
ATOM      3  C   UNL     1       2.400   1.437  -0.162  0.00  0.00    +0.054 A 
ATOM      4  C   UNL     1       2.471   0.038  -0.100  0.00  0.00    +0.140 A 
ATOM      5  C   UNL     1       1.312  -0.715  -0.209  0.00  0.00    +0.067 A 
ATOM      6  C   UNL     1       0.092  -0.087  -0.379  0.00  0.00    +0.044 A 
ATOM      7 CL   UNL     1      -1.356  -1.036  -0.514  0.00  0.00    -0.083 Cl
ENDROOT
BRANCH   3   8
ATOM      8  C   UNL     1       3.628   2.248  -0.047  0.00  0.00    +0.098 C 
ATOM      9  N   UNL     1       3.943   3.119  -1.005  0.00  0.00    -0.387 N 
ATOM     10  N   UNL     1       4.422   2.109   1.015  0.00  0.00    -0.344 N 
ATOM     11  H   UNL     1       4.709   3.704  -0.896  0.00  0.00    +0.157 HD
ATOM     12  H   UNL     1       4.192   1.474   1.712  0.00  0.00    +0.144 HD
ATOM     13  H   UNL     1       5.228   2.642   1.090  0.00  0.00    +0.144 HD
ATOM     14  H   UNL     1       3.406   3.169  -1.811  0.00  0.00    +0.157 HD
ENDBRANCH   3   8
BRANCH   4  15
ATOM     15  O   UNL     1       3.669  -0.576   0.066  0.00  0.00    -0.454 OA
BRANCH  15  16
ATOM     16  C   UNL     1       3.703  -1.934   0.009  0.00  0.00    +0.147 A 
ATOM     17  C   UNL     1       3.616  -2.681   1.174  0.00  0.00    +0.049 A 
ATOM     18  C   UNL     1       3.651  -4.061   1.114  0.00  0.00    +0.023 A 
ATOM     19  C   UNL     1       3.773  -4.698  -0.109  0.00  0.00    +0.043 A 
ATOM     20  C   UNL     1       3.861  -3.956  -1.273  0.00  0.00    +0.043 A 
ATOM     21  C   UNL     1       3.820  -2.575  -1.217  0.00  0.00    +0.085 A 
ATOM     22 CL   UNL     1       3.922  -1.643  -2.679  0.00  0.00    -0.080 Cl
ATOM     23 CL   UNL     1       3.818  -6.432  -0.181  0.00  0.00    -0.083 Cl
ENDBRANCH  15  16
ENDBRANCH   4  15
TORSDOF 3
