REMARK  Name = ZINC01339177
REMARK  11 active torsions:
REMARK  status: ('A' for Active; 'I' for Inactive)
REMARK    1  A    between atoms: C_1  and  C_2
REMARK    2  A    between atoms: C_5  and  C_7
REMARK    3  A    between atoms: C_7  and  C_9
REMARK    4  A    between atoms: C_7  and  N_18
REMARK    5  A    between atoms: N_11  and  C_12
REMARK    6  A    between atoms: C_12  and  C_13
REMARK    7  A    between atoms: N_18  and  C_19
REMARK    8  A    between atoms: C_22  and  O_25
REMARK    9  A    between atoms: O_25  and  C_26
REMARK   10  A    between atoms: C_27  and  C_29
REMARK   11  A    between atoms: C_29  and  N_30
REMARK                            x       y       z     vdW  Elec       q    Type
REMARK                         _______ _______ _______ _____ _____    ______ ____
ROOT
ATOM      1  N   UNL     1       3.047  -3.640   0.274  0.00  0.00    -0.251 N 
ATOM      2  C   UNL     1       3.305  -4.002   1.547  0.00  0.00    +0.242 C 
ATOM      3  O   UNL     1       2.397  -4.338   2.277  0.00  0.00    -0.273 OA
ENDROOT
BRANCH   1   4
ATOM      4  C   UNL     1       3.923  -2.780  -0.401  0.00  0.00    +0.038 A 
ATOM      5  C   UNL     1       4.968  -2.174   0.284  0.00  0.00    +0.027 A 
ATOM      6  C   UNL     1       5.831  -1.327  -0.382  0.00  0.00    +0.047 A 
ATOM      7  C   UNL     1       5.655  -1.082  -1.736  0.00  0.00    +0.120 A 
ATOM      8  C   UNL     1       4.612  -1.687  -2.421  0.00  0.00    +0.047 A 
ATOM      9  C   UNL     1       3.752  -2.539  -1.758  0.00  0.00    +0.027 A 
BRANCH   7  10
ATOM     10  O   UNL     1       6.505  -0.247  -2.392  0.00  0.00    -0.495 OA
ATOM     11  C   UNL     1       6.266  -0.040  -3.785  0.00  0.00    +0.277 C 
ENDBRANCH   7  10
ENDBRANCH   1   4
BRANCH   1  12
ATOM     12  C   UNL     1       1.851  -4.146  -0.403  0.00  0.00    +0.233 C 
BRANCH  12  17
ATOM     13  C   UNL     1       0.400   0.306  -2.278  0.00  0.00    +0.086 C 
ATOM     14  C   UNL     1       0.347  -1.052  -1.627  0.00  0.00    +0.102 A 
ATOM     15  C   UNL     1      -0.761  -1.659  -1.163  0.00  0.00    +0.045 A 
ATOM     16  C   UNL     1      -0.354  -2.907  -0.637  0.00  0.00    +0.047 A 
ATOM     17  C   UNL     1       0.977  -2.988  -0.812  0.00  0.00    +0.135 A 
ATOM     18  O   UNL     1       1.395  -1.864  -1.417  0.00  0.00    -0.462 OA
ENDBRANCH  12  17
BRANCH  12  19
ATOM     19  C   UNL     1       2.257  -4.925  -1.627  0.00  0.00    +0.242 C 
ATOM     20  O   UNL     1       3.431  -5.046  -1.906  0.00  0.00    -0.273 OA
ATOM     21  N   UNL     1       1.317  -5.488  -2.411  0.00  0.00    -0.306 N 
ATOM     22  H   UNL     1       0.378  -5.391  -2.188  0.00  0.00    +0.149 HD
BRANCH  21  23
ATOM     23  C   UNL     1       1.712  -6.245  -3.601  0.00  0.00    +0.178 C 
BRANCH  23  24
ATOM     24  C   UNL     1       0.481  -6.766  -4.298  0.00  0.00    +0.122 A 
ATOM     25  C   UNL     1      -0.206  -6.127  -5.261  0.00  0.00    +0.046 A 
ATOM     26  C   UNL     1      -1.280  -6.972  -5.627  0.00  0.00    +0.041 A 
ATOM     27  C   UNL     1      -1.184  -8.076  -4.864  0.00  0.00    +0.195 A 
ATOM     28  O   UNL     1      -0.112  -7.948  -4.065  0.00  0.00    -0.466 OA
ENDBRANCH  23  24
ENDBRANCH  21  23
ENDBRANCH  12  19
ENDBRANCH   1  12
BRANCH   2  29
ATOM     29  C   UNL     1       4.721  -3.987   2.062  0.00  0.00    +0.242 C 
BRANCH  29  30
ATOM     30  N   UNL     1       5.011  -5.258   2.730  0.00  0.00    -0.235 N 
ATOM     31  C   UNL     1       4.817  -5.553   4.058  0.00  0.00    +0.090 A 
ATOM     32  C   UNL     1       4.329  -4.836   5.146  0.00  0.00    +0.029 A 
ATOM     33  C   UNL     1       4.260  -5.429   6.375  0.00  0.00    +0.002 A 
ATOM     34  C   UNL     1       4.675  -6.743   6.550  0.00  0.00    +0.002 A 
ATOM     35  C   UNL     1       5.157  -7.468   5.499  0.00  0.00    +0.032 A 
ATOM     36  C   UNL     1       5.237  -6.883   4.228  0.00  0.00    +0.113 A 
ATOM     37  N   UNL     1       5.660  -7.335   3.031  0.00  0.00    -0.129 NA
ATOM     38  N   UNL     1       5.535  -6.417   2.138  0.00  0.00    -0.064 NA
ENDBRANCH  29  30
ENDBRANCH   2  29
TORSDOF 9
