REMARK  Name = ZINC39532676
REMARK  11 active torsions:
REMARK  status: ('A' for Active; 'I' for Inactive)
REMARK    1  A    between atoms: C_1  and  C_2
REMARK    2  A    between atoms: C_2  and  C_3
REMARK    3  A    between atoms: C_3  and  C_4
REMARK    4  A    between atoms: C_7  and  C_10
REMARK    5  A    between atoms: C_10  and  C_12
REMARK    6  A    between atoms: C_10  and  N_23
REMARK    7  A    between atoms: C_12  and  N_13
REMARK    8  A    between atoms: N_13  and  S_14
REMARK    9  A    between atoms: S_14  and  C_17
REMARK   10  A    between atoms: C_27  and  C_30
REMARK   11  A    between atoms: C_35  and  O_36
REMARK                            x       y       z     vdW  Elec       q    Type
REMARK                         _______ _______ _______ _____ _____    ______ ____
ROOT
ATOM      1  C   UNL     1       0.686  -6.161  -1.259  0.00  0.00    +0.102 C 
ENDROOT
BRANCH   1   2
ATOM      2  N   UNL     1       0.060  -6.560  -2.526  0.00  0.00    -0.297 NA
ATOM      3  C   UNL     1      -0.130  -8.016  -2.585  0.00  0.00    +0.066 C 
ATOM      4  C   UNL     1      -0.836  -8.383  -3.892  0.00  0.00    -0.066 C 
ATOM      5  N   UNL     1      -0.026  -7.931  -5.031  0.00  0.00    +0.385 N 
ATOM      6  C   UNL     1       0.134  -6.472  -4.972  0.00  0.00    -0.023 C 
ATOM      7  C   UNL     1       0.849  -6.090  -3.674  0.00  0.00    +0.074 C 
ATOM      8  H   UNL     1       0.881  -8.371  -4.993  0.00  0.00    -0.085 HD
ATOM      9  H   UNL     1      -0.486  -8.184  -5.892  0.00  0.00    -0.085 HD
BRANCH   6  10
ATOM     10  C   UNL     1       0.951  -6.008  -6.150  0.00  0.00    -0.019 A 
ATOM     11  C   UNL     1       1.748  -6.905  -6.835  0.00  0.00    +0.005 A 
ATOM     12  C   UNL     1       2.498  -6.480  -7.916  0.00  0.00    +0.000 A 
ATOM     13  C   UNL     1       2.451  -5.157  -8.316  0.00  0.00    +0.004 A 
ATOM     14  C   UNL     1       1.655  -4.257  -7.635  0.00  0.00    +0.045 A 
ATOM     15  C   UNL     1       0.897  -4.682  -6.553  0.00  0.00    +0.118 A 
BRANCH  15  16
ATOM     16  O   UNL     1       0.109  -3.799  -5.885  0.00  0.00    -0.507 OA
ATOM     17  H   UNL     1       0.552  -3.353  -5.151  0.00  0.00    +0.292 HD
ENDBRANCH  15  16
ENDBRANCH   6  10
ENDBRANCH   1   2
BRANCH   1  21
ATOM     18  C   UNL     1       0.994  -1.904  -1.100  0.00  0.00    -0.047 A 
ATOM     19  C   UNL     1       2.029  -2.689  -0.628  0.00  0.00    +0.004 A 
ATOM     20  C   UNL     1       1.929  -4.067  -0.679  0.00  0.00    +0.005 A 
ATOM     21  C   UNL     1       0.794  -4.659  -1.202  0.00  0.00    -0.029 A 
ATOM     22  C   UNL     1      -0.241  -3.874  -1.673  0.00  0.00    +0.005 A 
ATOM     23  C   UNL     1      -0.143  -2.496  -1.618  0.00  0.00    +0.004 A 
BRANCH  18  24
ATOM     24  C   UNL     1       1.102  -0.402  -1.044  0.00  0.00    +0.035 C 
BRANCH  24  26
ATOM     25  C   UNL     1       0.654   1.626   0.345  0.00  0.00    +0.004 C 
ATOM     26  C   UNL     1       0.544   0.101   0.288  0.00  0.00    +0.001 C 
ENDBRANCH  24  26
ENDBRANCH  18  24
ENDBRANCH   1  21
BRANCH   1  27
ATOM     27  C   UNL     1      -0.169  -6.656  -0.090  0.00  0.00    +0.129 C 
BRANCH  27  28
ATOM     28  N   UNL     1       0.494  -6.326   1.174  0.00  0.00    -0.188 NA
ATOM     29  H   UNL     1       1.434  -6.086   1.180  0.00  0.00    +0.148 HD
BRANCH  28  30
ATOM     30  S   UNL     1      -0.360  -6.365   2.592  0.00  0.00    +0.058 S 
ATOM     31  O   UNL     1       0.554  -6.029   3.627  0.00  0.00    -0.153 OA
ATOM     32  O   UNL     1      -1.557  -5.633   2.365  0.00  0.00    -0.153 OA
BRANCH  30  33
ATOM     33  C   UNL     1      -0.838  -8.039   2.867  0.00  0.00    +0.105 A 
ATOM     34  C   UNL     1      -2.038  -8.507   2.363  0.00  0.00    +0.028 A 
ATOM     35  C   UNL     1      -2.413  -9.819   2.579  0.00  0.00    +0.002 A 
ATOM     36  C   UNL     1      -1.588 -10.665   3.297  0.00  0.00    +0.000 A 
ATOM     37  C   UNL     1      -0.388 -10.197   3.800  0.00  0.00    +0.002 A 
ATOM     38  C   UNL     1      -0.011  -8.886   3.580  0.00  0.00    +0.028 A 
ENDBRANCH  30  33
ENDBRANCH  28  30
ENDBRANCH  27  28
ENDBRANCH   1  27
TORSDOF 10
