REMARK  Name = ZINC41127683
REMARK  3 active torsions:
REMARK  status: ('A' for Active; 'I' for Inactive)
REMARK    1  A    between atoms: C_9  and  S_12
REMARK    2  A    between atoms: C_10  and  N_11
REMARK    3  A    between atoms: S_12  and  C_13
REMARK                            x       y       z     vdW  Elec       q    Type
REMARK                         _______ _______ _______ _____ _____    ______ ____
ROOT
ATOM      1  C   UNL     1      -0.016   1.357   0.009  0.00  0.00    +0.001 A 
ATOM      2  C   UNL     1       1.169   2.091   0.002  0.00  0.00    +0.001 A 
ATOM      3  C   UNL     1       2.378   1.467  -0.013  0.00  0.00    +0.010 A 
ATOM      4  C   UNL     1       2.437   0.064  -0.021  0.00  0.00    +0.005 A 
ATOM      5  C   UNL     1       1.232  -0.683  -0.013  0.00  0.00    -0.002 A 
ATOM      6  C   UNL     1       0.002  -0.004   0.002  0.00  0.00    +0.009 A 
ATOM      7  C   UNL     1       1.287  -2.088  -0.020  0.00  0.00    +0.027 A 
ATOM      8  C   UNL     1       2.492  -2.723  -0.035  0.00  0.00    +0.033 A 
ATOM      9  C   UNL     1       3.686  -1.999  -0.043  0.00  0.00    +0.045 A 
ATOM     10  C   UNL     1       3.672  -0.615  -0.037  0.00  0.00    +0.047 A 
ATOM     11 BR   UNL     1      -0.313  -3.096  -0.009  0.00  0.00    -0.050 Br
ENDROOT
BRANCH  10  12
ATOM     12  N   UNL     1       4.871   0.103  -0.045  0.00  0.00    -0.357 N 
ATOM     13  H   UNL     1       4.856   1.073  -0.040  0.00  0.00    +0.142 HD
ATOM     14  H   UNL     1       5.719  -0.369  -0.056  0.00  0.00    +0.142 HD
ENDBRANCH  10  12
BRANCH   9  15
ATOM     15  S   UNL     1       5.226  -2.856  -0.060  0.00  0.00    -0.008 S 
BRANCH  15  16
ATOM     16  C   UNL     1       4.762  -4.574  -0.064  0.00  0.00    +0.138 C 
ATOM     17  N   UNL     1       4.466  -5.671  -0.065  0.00  0.00    -0.183 NA
ENDBRANCH  15  16
ENDBRANCH   9  15
TORSDOF 3
