REMARK  Name = ZINC13495849
REMARK  13 active torsions:
REMARK  status: ('A' for Active; 'I' for Inactive)
REMARK    1  A    between atoms: C_1  and  C_2
REMARK    2  A    between atoms: C_2  and  C_3
REMARK    3  A    between atoms: C_3  and  C_5
REMARK    4  A    between atoms: C_3  and  N_69
REMARK    5  A    between atoms: N_9  and  C_10
REMARK    6  A    between atoms: C_10  and  C_11
REMARK    7  A    between atoms: C_16  and  C_17
REMARK    8  A    between atoms: C_16  and  N_69
REMARK    9  A    between atoms: C_17  and  C_18
REMARK   10  A    between atoms: C_24  and  C_25
REMARK   11  A    between atoms: C_24  and  N_69
REMARK   12  A    between atoms: C_29  and  C_38
REMARK   13  A    between atoms: C_31  and  C_37
REMARK                            x       y       z     vdW  Elec       q    Type
REMARK                         _______ _______ _______ _____ _____    ______ ____
ROOT
ATOM      1  N   UNL     1      -1.379   7.973  -1.681  0.00  0.00    +0.389 N 
ATOM      2  H   UNL     1      -0.720   7.696  -2.418  0.00  0.00    -0.080 HD
ENDROOT
BRANCH   1   3
ATOM      3  C   UNL     1      -1.397   9.448  -1.583  0.00  0.00    +0.003 C 
BRANCH   3   4
ATOM      4  C   UNL     1      -0.012   9.966  -1.878  0.00  0.00    +0.139 A 
ATOM      5  N   UNL     1       1.118   9.479  -1.427  0.00  0.00    -0.115 NA
ATOM      6  N   UNL     1       2.078  10.195  -1.903  0.00  0.00    -0.023 NA
ATOM      7  N   UNL     1       1.589  11.126  -2.646  0.00  0.00    -0.044 NA
ATOM      8  N   UNL     1       0.303  11.015  -2.660  0.00  0.00    -0.223 N 
BRANCH   8   9
ATOM      9  C   UNL     1      -0.636  11.873  -3.387  0.00  0.00    +0.221 C 
BRANCH   9  10
ATOM     10  C   UNL     1      -1.041  13.030  -2.511  0.00  0.00    +0.126 A 
ATOM     11  C   UNL     1      -0.415  14.218  -2.438  0.00  0.00    +0.046 A 
ATOM     12  C   UNL     1      -1.129  15.000  -1.501  0.00  0.00    +0.041 A 
ATOM     13  C   UNL     1      -2.144  14.241  -1.051  0.00  0.00    +0.195 A 
ATOM     14  O   UNL     1      -2.086  13.048  -1.667  0.00  0.00    -0.466 OA
ENDBRANCH   9  10
ENDBRANCH   8   9
ENDBRANCH   3   4
BRANCH   3  16
ATOM     15  C   UNL     1      -3.272   9.483   0.068  0.00  0.00    +0.002 C 
ATOM     16  C   UNL     1      -1.816   9.885  -0.178  0.00  0.00    -0.011 C 
ENDBRANCH   3  16
ENDBRANCH   1   3
BRANCH   1  17
ATOM     17  C   UNL     1      -2.726   7.474  -2.027  0.00  0.00    -0.073 C 
BRANCH  17  18
ATOM     18  C   UNL     1      -3.064   7.915  -3.453  0.00  0.00    +0.016 C 
BRANCH  18  19
ATOM     19  C   UNL     1      -4.371   7.295  -3.874  0.00  0.00    -0.049 A 
ATOM     20  C   UNL     1      -4.381   6.065  -4.506  0.00  0.00    +0.003 A 
ATOM     21  C   UNL     1      -5.580   5.494  -4.887  0.00  0.00    +0.000 A 
ATOM     22  C   UNL     1      -6.769   6.156  -4.646  0.00  0.00    +0.000 A 
ATOM     23  C   UNL     1      -6.760   7.388  -4.020  0.00  0.00    +0.000 A 
ATOM     24  C   UNL     1      -5.561   7.957  -3.633  0.00  0.00    +0.003 A 
ENDBRANCH  18  19
ENDBRANCH  17  18
ENDBRANCH   1  17
BRANCH   1  25
ATOM     25  C   UNL     1      -0.937   7.388  -0.398  0.00  0.00    -0.037 C 
BRANCH  25  26
ATOM     26  C   UNL     1      -0.606   5.934  -0.617  0.00  0.00    +0.001 A 
ATOM     27  C   UNL     1       0.672   5.565  -0.882  0.00  0.00    +0.017 A 
ATOM     28  C   UNL     1       0.960   4.144  -1.090  0.00  0.00    -0.001 A 
ATOM     29  C   UNL     1       2.259   3.703  -1.366  0.00  0.00    +0.013 A 
ATOM     30  C   UNL     1       2.495   2.371  -1.555  0.00  0.00    -0.050 A 
ATOM     31  C   UNL     1       1.458   1.451  -1.476  0.00  0.00    +0.008 A 
ATOM     32  C   UNL     1       0.170   1.864  -1.211  0.00  0.00    -0.026 A 
ATOM     33  C   UNL     1      -0.094   3.215  -1.009  0.00  0.00    +0.052 A 
ATOM     34  N   UNL     1      -1.371   3.655  -0.736  0.00  0.00    -0.322 N 
ATOM     35  H   UNL     1      -2.096   3.014  -0.681  0.00  0.00    +0.169 HD
ATOM     36  C   UNL     1      -1.627   4.962  -0.546  0.00  0.00    +0.251 A 
ATOM     37  O   UNL     1      -2.768   5.315  -0.307  0.00  0.00    -0.268 OA
ATOM     38  C   UNL     1      -0.947   0.856  -1.134  0.00  0.00    +0.046 C 
ATOM     39  C   UNL     1       3.894   1.895  -1.851  0.00  0.00    +0.044 C 
ENDBRANCH  25  26
ENDBRANCH   1  25
TORSDOF 10
