REMARK  Name = ZINC65428060
REMARK  10 active torsions:
REMARK  status: ('A' for Active; 'I' for Inactive)
REMARK    1  A    between atoms: C_1  and  C_2
REMARK    2  A    between atoms: C_6  and  C_7
REMARK    3  A    between atoms: N_11  and  C_16
REMARK    4  A    between atoms: C_13  and  O_15
REMARK    5  A    between atoms: C_16  and  C_17
REMARK    6  A    between atoms: C_18  and  C_26
REMARK    7  A    between atoms: N_20  and  C_23
REMARK    8  A    between atoms: C_21  and  C_22
REMARK    9  A    between atoms: C_23  and  C_24
REMARK   10  A    between atoms: C_23  and  C_25
REMARK                            x       y       z     vdW  Elec       q    Type
REMARK                         _______ _______ _______ _____ _____    ______ ____
ROOT
ATOM      1  C   UNL     1       0.030  -0.179   2.581  0.00  0.00    +0.051 C 
ATOM      2  C   UNL     1       1.291  -0.666   3.299  0.00  0.00    -0.008 C 
ATOM      3  C   UNL     1       1.253  -0.202   4.757  0.00  0.00    -0.078 C 
ATOM      4  N   UNL     1       0.066  -0.755   5.419  0.00  0.00    +0.384 N 
ATOM      5  C   UNL     1      -1.149  -0.235   4.781  0.00  0.00    -0.046 C 
ATOM      6  C   UNL     1      -1.204  -0.699   3.324  0.00  0.00    +0.106 C 
ATOM      7  H   UNL     1       0.079  -1.762   5.345  0.00  0.00    -0.081 HD
ENDROOT
BRANCH   1  13
ATOM      8  C   UNL     1      -0.018   1.503   0.010  0.00  0.00    +0.044 C 
ATOM      9  C   UNL     1       0.002  -0.004   0.002  0.00  0.00    -0.040 A 
ATOM     10  C   UNL     1       0.006  -0.699  -1.193  0.00  0.00    +0.011 A 
ATOM     11  C   UNL     1       0.024  -2.054  -1.165  0.00  0.00    +0.046 A 
ATOM     12  S   UNL     1       0.037  -2.387   0.589  0.00  0.00    -0.101 S 
ATOM     13  C   UNL     1       0.023  -0.698   1.166  0.00  0.00    -0.002 A 
ENDBRANCH   1  13
BRANCH   6  14
ATOM     14  O   UNL     1      -2.386  -0.188   2.703  0.00  0.00    -0.393 OA
ATOM     15  H   UNL     1      -3.207  -0.477   3.123  0.00  0.00    +0.210 HD
ENDBRANCH   6  14
BRANCH   4  16
ATOM     16  C   UNL     1       0.075  -0.372   6.837  0.00  0.00    -0.039 C 
BRANCH  16  17
ATOM     17  C   UNL     1       1.252  -1.014   7.524  0.00  0.00    -0.021 A 
ATOM     18  C   UNL     1       1.260  -2.269   8.142  0.00  0.00    +0.062 A 
ATOM     19  N   UNL     1       2.458  -2.481   8.624  0.00  0.00    -0.176 NA
ATOM     20  N   UNL     1       3.252  -1.365   8.327  0.00  0.00    -0.266 N 
ATOM     21  C   UNL     1       2.490  -0.482   7.647  0.00  0.00    +0.038 A 
ATOM     22  C   UNL     1       2.938   0.858   7.123  0.00  0.00    +0.065 C 
ATOM     23  C   UNL     1       0.090  -3.215   8.237  0.00  0.00    +0.068 C 
BRANCH  20  24
ATOM     24  C   UNL     1       4.661  -1.191   8.686  0.00  0.00    +0.101 C 
ATOM     25  C   UNL     1       4.811  -1.249  10.207  0.00  0.00    +0.032 C 
ATOM     26  C   UNL     1       5.492  -2.307   8.049  0.00  0.00    +0.032 C 
ENDBRANCH  20  24
ENDBRANCH  16  17
ENDBRANCH   4  16
TORSDOF 5
