REMARK  Name = ZINC32472800
REMARK  11 active torsions:
REMARK  status: ('A' for Active; 'I' for Inactive)
REMARK    1  A    between atoms: C_1  and  C_2
REMARK    2  A    between atoms: C_2  and  C_3
REMARK    3  A    between atoms: C_2  and  C_4
REMARK    4  A    between atoms: C_2  and  C_5
REMARK    5  A    between atoms: C_5  and  C_6
REMARK    6  A    between atoms: C_6  and  C_8
REMARK    7  A    between atoms: C_6  and  N_14
REMARK    8  A    between atoms: N_14  and  S_15
REMARK    9  A    between atoms: S_15  and  C_18
REMARK   10  A    between atoms: C_22  and  S_24
REMARK   11  A    between atoms: S_24  and  N_27
REMARK                            x       y       z     vdW  Elec       q    Type
REMARK                         _______ _______ _______ _____ _____    ______ ____
ROOT
ATOM      1  S   UNL     1      -6.269  -2.015   3.804  0.00  0.00    +0.059 S 
ATOM      2  O   UNL     1      -7.545  -2.483   4.216  0.00  0.00    -0.153 OA
ATOM      3  O   UNL     1      -5.163  -1.933   4.693  0.00  0.00    -0.153 OA
ENDROOT
BRANCH   1   4
ATOM      4  C   UNL     1      -5.763  -3.046   2.467  0.00  0.00    +0.107 A 
ATOM      5  C   UNL     1      -6.703  -3.775   1.762  0.00  0.00    +0.028 A 
ATOM      6  C   UNL     1      -6.307  -4.583   0.713  0.00  0.00    +0.004 A 
ATOM      7  C   UNL     1      -4.971  -4.658   0.365  0.00  0.00    +0.028 A 
ATOM      8  C   UNL     1      -4.030  -3.933   1.073  0.00  0.00    +0.107 A 
ATOM      9  C   UNL     1      -4.427  -3.125   2.122  0.00  0.00    +0.057 A 
BRANCH   8  10
ATOM     10  S   UNL     1      -2.327  -4.033   0.633  0.00  0.00    +0.056 S 
ATOM     11  O   UNL     1      -1.717  -2.836   1.095  0.00  0.00    -0.153 OA
ATOM     12  O   UNL     1      -2.282  -4.435  -0.729  0.00  0.00    -0.153 OA
BRANCH  10  13
ATOM     13  N   UNL     1      -1.666  -5.271   1.513  0.00  0.00    -0.204 NA
ATOM     14  H   UNL     1      -0.599  -5.367   1.266  0.00  0.00    +0.144 HD
ATOM     15  H   UNL     1      -2.184  -6.210   1.271  0.00  0.00    +0.144 HD
ENDBRANCH  10  13
ENDBRANCH   8  10
ENDBRANCH   1   4
BRANCH   1  16
ATOM     16  N   UNL     1      -6.497  -0.494   3.190  0.00  0.00    -0.183 NA
ATOM     17  H   UNL     1      -5.764   0.293   3.420  0.00  0.00    +0.149 HD
BRANCH  16  18
ATOM     18  C   UNL     1      -7.534  -0.259   2.183  0.00  0.00    +0.107 C 
BRANCH  18  19
ATOM     19  C   UNL     1      -8.809   0.167   2.864  0.00  0.00    -0.029 A 
ATOM     20  C   UNL     1      -8.761   1.030   3.943  0.00  0.00    +0.005 A 
ATOM     21  C   UNL     1      -9.931   1.424   4.566  0.00  0.00    +0.000 A 
ATOM     22  C   UNL     1     -11.148   0.949   4.114  0.00  0.00    +0.000 A 
ATOM     23  C   UNL     1     -11.195   0.082   3.039  0.00  0.00    +0.000 A 
ATOM     24  C   UNL     1     -10.026  -0.309   2.414  0.00  0.00    +0.005 A 
ENDBRANCH  18  19
BRANCH  18  25
ATOM     25  C   UNL     1      -7.075   0.843   1.226  0.00  0.00    +0.031 C 
BRANCH  25  27
ATOM     26  C   UNL     1      -6.239  -0.975  -0.271  0.00  0.00    +0.010 C 
ATOM     27  C   UNL     1      -5.878   0.345   0.412  0.00  0.00    -0.036 C 
ATOM     28  C   UNL     1      -5.514   1.386  -0.648  0.00  0.00    +0.010 C 
ATOM     29  C   UNL     1      -4.684   0.128   1.344  0.00  0.00    +0.010 C 
ENDBRANCH  25  27
ENDBRANCH  18  25
ENDBRANCH  16  18
ENDBRANCH   1  16
TORSDOF 8
