REMARK  Name = ZINC05244356
REMARK  5 active torsions:
REMARK  status: ('A' for Active; 'I' for Inactive)
REMARK    1  A    between atoms: C_5  and  C_7
REMARK    2  A    between atoms: C_13  and  C_24
REMARK    3  A    between atoms: C_13  and  O_28
REMARK    4  A    between atoms: C_15  and  C_17
REMARK    5  A    between atoms: C_21  and  O_23
REMARK                            x       y       z     vdW  Elec       q    Type
REMARK                         _______ _______ _______ _____ _____    ______ ____
ROOT
ATOM      1  C   UNL     1      -4.238   9.203   0.093  0.00  0.00    +0.098 A 
ATOM      2  C   UNL     1      -5.603   9.297   0.107  0.00  0.00    +0.078 A 
ATOM      3  S   UNL     1      -6.055   7.567   0.101  0.00  0.00    -0.058 S 
ATOM      4  C   UNL     1      -4.396   6.903   0.082  0.00  0.00    +0.184 A 
ATOM      5  N   UNL     1      -3.670   8.006   0.087  0.00  0.00    -0.222 NA
ATOM      6  N   UNL     1      -3.982   5.582   0.071  0.00  0.00    -0.160 N 
ATOM      7  C   UNL     1      -4.867   4.407   0.073  0.00  0.00    +0.256 C 
ATOM      8  C   UNL     1      -3.889   3.216   0.057  0.00  0.00    +0.124 C 
ATOM      9  C   UNL     1      -2.524   3.866   0.047  0.00  0.00    +0.072 C 
ATOM     10  N   UNL     1      -2.658   5.147   0.061  0.00  0.00    -0.179 NA
ENDROOT
BRANCH   1  15
ATOM     11  C   UNL     1      -1.248  11.469   0.079  0.00  0.00    +0.004 A 
ATOM     12  C   UNL     1      -1.898  12.697   0.092  0.00  0.00    +0.020 A 
ATOM     13  C   UNL     1      -3.279  12.733   0.105  0.00  0.00    +0.111 A 
ATOM     14  N   UNL     1      -3.986  11.620   0.105  0.00  0.00    -0.253 NA
ATOM     15  C   UNL     1      -3.404  10.427   0.093  0.00  0.00    +0.090 A 
ATOM     16  C   UNL     1      -2.014  10.317   0.085  0.00  0.00    +0.030 A 
ENDBRANCH   1  15
BRANCH   9  17
ATOM     17  C   UNL     1      -1.238   3.144   0.031  0.00  0.00    +0.001 A 
ATOM     18  C   UNL     1      -1.218   1.747   0.017  0.00  0.00    +0.010 A 
ATOM     19  C   UNL     1      -0.013   1.076   0.008  0.00  0.00    +0.004 A 
ATOM     20  C   UNL     1       1.177   1.781   0.000  0.00  0.00    +0.045 A 
ATOM     21  C   UNL     1       1.167   3.170   0.008  0.00  0.00    +0.117 A 
ATOM     22  C   UNL     1      -0.036   3.854   0.023  0.00  0.00    +0.055 A 
BRANCH  21  23
ATOM     23  O   UNL     1       2.340   3.857   0.000  0.00  0.00    -0.507 OA
ATOM     24  H   UNL     1       2.670   4.061  -0.886  0.00  0.00    +0.292 HD
ENDBRANCH  21  23
ENDBRANCH   9  17
BRANCH   7  25
ATOM     25  C   UNL     1      -5.750   4.396  -1.177  0.00  0.00    +0.438 C 
ATOM     26  F   UNL     1      -6.485   3.206  -1.219  0.00  0.00    -0.166 F 
ATOM     27  F   UNL     1      -6.627   5.485  -1.138  0.00  0.00    -0.166 F 
ATOM     28  F   UNL     1      -4.944   4.487  -2.317  0.00  0.00    -0.166 F 
ENDBRANCH   7  25
BRANCH   7  29
ATOM     29  O   UNL     1      -5.669   4.383   1.256  0.00  0.00    -0.363 OA
ATOM     30  H   UNL     1      -6.302   5.111   1.317  0.00  0.00    +0.212 HD
ENDBRANCH   7  29
TORSDOF 5
