REMARK  Name = ZINC06429083
REMARK  9 active torsions:
REMARK  status: ('A' for Active; 'I' for Inactive)
REMARK    1  A    between atoms: C_1  and  C_2
REMARK    2  A    between atoms: C_2  and  C_3
REMARK    3  A    between atoms: C_3  and  C_4
REMARK    4  A    between atoms: C_4  and  N_5
REMARK    5  A    between atoms: N_5  and  C_6
REMARK    6  A    between atoms: C_6  and  C_8
REMARK    7  A    between atoms: C_6  and  C_14
REMARK    8  A    between atoms: N_16  and  C_17
REMARK    9  A    between atoms: C_20  and  N_24
REMARK                            x       y       z     vdW  Elec       q    Type
REMARK                         _______ _______ _______ _____ _____    ______ ____
ROOT
ATOM      1  C   UNL     1       1.461  -3.969  -2.473  0.00  0.00    +0.047 C 
ENDROOT
BRANCH   1   2
ATOM      2  C   UNL     1       0.049  -4.486  -2.577  0.00  0.00    -0.053 A 
ATOM      3  C   UNL     1      -0.856  -3.859  -3.412  0.00  0.00    +0.002 A 
ATOM      4  C   UNL     1      -2.151  -4.332  -3.508  0.00  0.00    +0.000 A 
ATOM      5  C   UNL     1      -2.541  -5.434  -2.768  0.00  0.00    +0.000 A 
ATOM      6  C   UNL     1      -1.635  -6.061  -1.934  0.00  0.00    +0.000 A 
ATOM      7  C   UNL     1      -0.339  -5.590  -1.842  0.00  0.00    +0.002 A 
ENDBRANCH   1   2
BRANCH   1   8
ATOM      8  C   UNL     1       2.262  -4.455  -3.653  0.00  0.00    +0.207 C 
ATOM      9  O   UNL     1       2.770  -3.656  -4.411  0.00  0.00    -0.277 OA
ATOM     10  N   UNL     1       2.414  -5.777  -3.866  0.00  0.00    -0.286 N 
ATOM     11  H   UNL     1       2.064  -6.415  -3.225  0.00  0.00    +0.155 HD
BRANCH  10  12
ATOM     12  C   UNL     1       3.077  -6.229  -5.013  0.00  0.00    +0.048 A 
ATOM     13  C   UNL     1       4.143  -5.505  -5.532  0.00  0.00    +0.026 A 
ATOM     14  C   UNL     1       4.795  -5.954  -6.663  0.00  0.00    +0.034 A 
ATOM     15  C   UNL     1       4.388  -7.122  -7.281  0.00  0.00    +0.127 A 
ATOM     16  C   UNL     1       3.328  -7.846  -6.768  0.00  0.00    +0.049 A 
ATOM     17  C   UNL     1       2.675  -7.406  -5.632  0.00  0.00    +0.041 A 
ATOM     18 BR   UNL     1       1.229  -8.400  -4.926  0.00  0.00    -0.048 Br
BRANCH  15  19
ATOM     19  N   UNL     1       5.089  -7.599  -8.494  0.00  0.00    +0.056 N 
ATOM     20  O   UNL     1       6.017  -6.968  -8.944  0.00  0.00    -0.126 OA
ATOM     21  O   UNL     1       4.735  -8.621  -9.035  0.00  0.00    -0.126 OA
ENDBRANCH  15  19
ENDBRANCH  10  12
ENDBRANCH   1   8
BRANCH   1  22
ATOM     22  N   UNL     1       1.446  -2.500  -2.462  0.00  0.00    +0.389 N 
ATOM     23  H   UNL     1       0.953  -2.163  -3.276  0.00  0.00    -0.084 HD
ATOM     24  H   UNL     1       2.393  -2.154  -2.475  0.00  0.00    -0.084 HD
BRANCH  22  25
ATOM     25  C   UNL     1       0.768  -2.026  -1.248  0.00  0.00    -0.081 C 
BRANCH  25  26
ATOM     26  C   UNL     1       0.752  -0.496  -1.238  0.00  0.00    -0.019 C 
BRANCH  26  28
ATOM     27  C   UNL     1       0.029   1.527   0.038  0.00  0.00    +0.004 C 
ATOM     28  C   UNL     1       0.045  -0.003   0.027  0.00  0.00    -0.005 C 
ENDBRANCH  26  28
ENDBRANCH  25  26
ENDBRANCH  22  25
ENDBRANCH   1  22
TORSDOF 8
