REMARK  Name = ZINC39666467
REMARK  10 active torsions:
REMARK  status: ('A' for Active; 'I' for Inactive)
REMARK    1  A    between atoms: C_1  and  C_2
REMARK    2  A    between atoms: C_2  and  C_4
REMARK    3  A    between atoms: C_2  and  O_31
REMARK    4  A    between atoms: C_4  and  N_5
REMARK    5  A    between atoms: C_6  and  C_8
REMARK    6  A    between atoms: C_19  and  C_21
REMARK    7  A    between atoms: C_21  and  C_23
REMARK    8  A    between atoms: C_21  and  O_24
REMARK    9  A    between atoms: O_24  and  C_25
REMARK   10  A    between atoms: O_31  and  C_32
REMARK                            x       y       z     vdW  Elec       q    Type
REMARK                         _______ _______ _______ _____ _____    ______ ____
ROOT
ATOM      1  C   UNL     1       2.273  -3.875  -2.314  0.00  0.00    +0.100 C 
ATOM      2  C   UNL     1       0.950  -4.593  -2.661  0.00  0.00    +0.121 C 
ATOM      3  N   UNL     1       0.968  -4.717  -4.137  0.00  0.00    -0.297 N 
ATOM      4  C   UNL     1       2.377  -5.043  -4.463  0.00  0.00    +0.115 C 
ATOM      5  C   UNL     1       3.208  -4.176  -3.497  0.00  0.00    -0.004 C 
ATOM      6  C   UNL     1       4.435  -4.946  -3.018  0.00  0.00    -0.010 C 
ATOM      7  C   UNL     1       5.378  -5.183  -4.202  0.00  0.00    -0.082 C 
ATOM      8  N   UNL     1       5.778  -3.893  -4.776  0.00  0.00    +0.379 N 
ATOM      9  C   UNL     1       4.603  -3.200  -5.318  0.00  0.00    -0.082 C 
ATOM     10  C   UNL     1       3.628  -2.879  -4.182  0.00  0.00    -0.010 C 
ATOM     11  C   UNL     1      -0.064  -4.568  -4.991  0.00  0.00    +0.256 C 
ATOM     12  O   UNL     1      -1.148  -4.215  -4.577  0.00  0.00    -0.272 OA
ATOM     13  H   UNL     1       6.202  -3.324  -4.059  0.00  0.00    -0.086 HD
ATOM     14  H   UNL     1       6.446  -4.049  -5.516  0.00  0.00    -0.086 HD
ENDROOT
BRANCH   1  16
ATOM     15  N   UNL     1       2.907  -1.636  -1.475  0.00  0.00    -0.312 N 
ATOM     16  C   UNL     1       2.048  -2.390  -2.188  0.00  0.00    +0.218 C 
ATOM     17  O   UNL     1       1.093  -1.874  -2.729  0.00  0.00    -0.275 OA
ATOM     18  H   UNL     1       3.670  -2.048  -1.042  0.00  0.00    +0.149 HD
BRANCH  15  19
ATOM     19  C   UNL     1       2.687  -0.192  -1.353  0.00  0.00    +0.148 C 
BRANCH  19  21
ATOM     20  C   UNL     1       3.501   1.905  -0.266  0.00  0.00    +0.053 C 
ATOM     21  C   UNL     1       3.797   0.422  -0.498  0.00  0.00    +0.187 C 
BRANCH  21  22
ATOM     22  O   UNL     1       5.049   0.286  -1.173  0.00  0.00    -0.486 OA
BRANCH  22  23
ATOM     23  C   UNL     1       6.170   0.302  -0.404  0.00  0.00    +0.139 A 
ATOM     24  C   UNL     1       6.065   0.392   0.976  0.00  0.00    +0.047 A 
ATOM     25  C   UNL     1       7.205   0.408   1.756  0.00  0.00    +0.004 A 
ATOM     26  C   UNL     1       8.452   0.336   1.161  0.00  0.00    +0.002 A 
ATOM     27  C   UNL     1       8.560   0.248  -0.214  0.00  0.00    +0.023 A 
ATOM     28  C   UNL     1       7.422   0.225  -0.998  0.00  0.00    +0.083 A 
ATOM     29 CL   UNL     1       7.559   0.106  -2.725  0.00  0.00    -0.080 Cl
ENDBRANCH  22  23
ENDBRANCH  21  22
ENDBRANCH  19  21
ENDBRANCH  15  19
ENDBRANCH   1  16
BRANCH  11  30
ATOM     30  C   UNL     1       0.129  -4.841  -6.461  0.00  0.00    +0.256 C 
ATOM     31  C   UNL     1       0.384  -6.334  -6.673  0.00  0.00    +0.062 C 
BRANCH  30  32
ATOM     32  O   UNL     1      -1.046  -4.452  -7.176  0.00  0.00    -0.480 OA
BRANCH  32  33
ATOM     33  C   UNL     1      -0.892  -4.130  -8.487  0.00  0.00    +0.122 A 
ATOM     34  C   UNL     1      -1.971  -3.649  -9.215  0.00  0.00    +0.045 A 
ATOM     35  C   UNL     1      -1.811  -3.322 -10.548  0.00  0.00    +0.004 A 
ATOM     36  C   UNL     1      -0.579  -3.473 -11.156  0.00  0.00    +0.000 A 
ATOM     37  C   UNL     1       0.497  -3.953 -10.432  0.00  0.00    +0.004 A 
ATOM     38  C   UNL     1       0.345  -4.276  -9.098  0.00  0.00    +0.045 A 
ENDBRANCH  32  33
ENDBRANCH  30  32
ENDBRANCH  11  30
TORSDOF 8
