REMARK  Name = ZINC39663953
REMARK  12 active torsions:
REMARK  status: ('A' for Active; 'I' for Inactive)
REMARK    1  A    between atoms: C_1  and  C_2
REMARK    2  A    between atoms: C_7  and  C_8
REMARK    3  A    between atoms: C_8  and  C_9
REMARK    4  A    between atoms: C_13  and  C_22
REMARK    5  A    between atoms: N_24  and  C_25
REMARK    6  A    between atoms: C_25  and  C_26
REMARK    7  A    between atoms: C_26  and  C_28
REMARK    8  A    between atoms: C_26  and  N_36
REMARK    9  A    between atoms: C_31  and  O_34
REMARK   10  A    between atoms: O_34  and  C_35
REMARK   11  A    between atoms: N_36  and  C_37
REMARK   12  A    between atoms: N_36  and  C_38
REMARK                            x       y       z     vdW  Elec       q    Type
REMARK                         _______ _______ _______ _____ _____    ______ ____
ROOT
ATOM      1  C   UNL     1      -2.449   0.755   2.871  0.00  0.00    +0.220 C 
ATOM      2  O   UNL     1      -3.456   0.550   2.227  0.00  0.00    -0.275 OA
ATOM      3  N   UNL     1      -2.521   1.417   4.043  0.00  0.00    -0.300 N 
ATOM      4  C   UNL     1      -1.410   1.766   4.959  0.00  0.00    +0.121 C 
ATOM      5  C   UNL     1      -1.749   3.187   5.462  0.00  0.00    +0.100 C 
ATOM      6  C   UNL     1      -3.273   3.308   5.295  0.00  0.00    -0.004 C 
ATOM      7  C   UNL     1      -3.729   1.967   4.703  0.00  0.00    +0.115 C 
ATOM      8  C   UNL     1      -3.611   4.444   4.334  0.00  0.00    -0.010 C 
ATOM      9  C   UNL     1      -5.132   4.582   4.228  0.00  0.00    -0.082 C 
ATOM     10  N   UNL     1      -5.694   4.855   5.557  0.00  0.00    +0.379 N 
ATOM     11  C   UNL     1      -5.445   3.717   6.449  0.00  0.00    -0.082 C 
ATOM     12  C   UNL     1      -3.937   3.542   6.649  0.00  0.00    -0.010 C 
ATOM     13  H   UNL     1      -5.261   5.682   5.940  0.00  0.00    -0.086 HD
ATOM     14  H   UNL     1      -6.688   5.006   5.476  0.00  0.00    -0.086 HD
ENDROOT
BRANCH   5  15
ATOM     15  C   UNL     1      -1.364   3.336   6.911  0.00  0.00    +0.218 C 
ATOM     16  O   UNL     1      -1.426   2.382   7.657  0.00  0.00    -0.275 OA
ATOM     17  N   UNL     1      -0.952   4.531   7.379  0.00  0.00    -0.316 N 
ATOM     18  H   UNL     1      -0.902   5.295   6.782  0.00  0.00    +0.149 HD
BRANCH  17  19
ATOM     19  C   UNL     1      -0.577   4.677   8.788  0.00  0.00    +0.093 C 
BRANCH  19  20
ATOM     20  C   UNL     1      -0.254   6.143   9.081  0.00  0.00    -0.021 C 
BRANCH  20  21
ATOM     21  C   UNL     1       0.968   6.554   8.301  0.00  0.00    -0.059 A 
ATOM     22  C   UNL     1       2.227   6.215   8.762  0.00  0.00    +0.005 A 
ATOM     23  C   UNL     1       3.349   6.590   8.049  0.00  0.00    +0.046 A 
ATOM     24  C   UNL     1       3.212   7.308   6.870  0.00  0.00    +0.120 A 
ATOM     25  C   UNL     1       1.948   7.647   6.410  0.00  0.00    +0.046 A 
ATOM     26  C   UNL     1       0.829   7.264   7.123  0.00  0.00    +0.005 A 
BRANCH  24  27
ATOM     27  O   UNL     1       4.315   7.679   6.168  0.00  0.00    -0.495 OA
ATOM     28  C   UNL     1       4.099   8.416   4.963  0.00  0.00    +0.277 C 
ENDBRANCH  24  27
ENDBRANCH  20  21
BRANCH  20  29
ATOM     29  N   UNL     1       0.002   6.311  10.518  0.00  0.00    +0.382 N 
ATOM     30  C   UNL     1       0.325   7.716  10.797  0.00  0.00    -0.096 C 
ATOM     31  C   UNL     1      -1.194   5.923  11.277  0.00  0.00    -0.096 C 
ATOM     32  H   UNL     1       0.778   5.727  10.791  0.00  0.00    -0.082 HD
ENDBRANCH  20  29
ENDBRANCH  19  20
ENDBRANCH  17  19
ENDBRANCH   5  15
BRANCH   1  33
ATOM     33  C   UNL     1      -1.116   0.270   2.361  0.00  0.00    +0.131 C 
BRANCH  33  40
ATOM     34  C   UNL     1      -1.189   1.794  -0.093  0.00  0.00    +0.044 C 
ATOM     35  C   UNL     1      -1.344   0.296  -0.132  0.00  0.00    -0.047 A 
ATOM     36  C   UNL     1      -1.516  -0.350  -1.342  0.00  0.00    +0.003 A 
ATOM     37  C   UNL     1      -1.658  -1.724  -1.378  0.00  0.00    +0.000 A 
ATOM     38  C   UNL     1      -1.629  -2.453  -0.203  0.00  0.00    +0.000 A 
ATOM     39  C   UNL     1      -1.456  -1.808   1.006  0.00  0.00    +0.004 A 
ATOM     40  C   UNL     1      -1.310  -0.433   1.042  0.00  0.00    -0.036 A 
ENDBRANCH  33  40
ENDBRANCH   1  33
TORSDOF 8
