REMARK  Name = ZINC11968032
REMARK  4 active torsions:
REMARK  status: ('A' for Active; 'I' for Inactive)
REMARK    1  A    between atoms: C_1  and  C_2
REMARK    2  A    between atoms: C_9  and  C_14
REMARK    3  A    between atoms: C_20  and  C_22
REMARK    4  A    between atoms: C_22  and  C_23
REMARK                            x       y       z     vdW  Elec       q    Type
REMARK                         _______ _______ _______ _____ _____    ______ ____
ROOT
ATOM      1  C   UNL     1       0.094  -4.260  -0.043  0.00  0.00    +0.080 A 
ATOM      2  C   UNL     1      -0.928  -4.975   0.517  0.00  0.00    +0.076 A 
ATOM      3  S   UNL     1      -0.370  -6.646   0.212  0.00  0.00    -0.060 S 
ATOM      4  C   UNL     1       1.158  -6.223  -0.615  0.00  0.00    +0.165 A 
ATOM      5  N   UNL     1       1.112  -4.904  -0.592  0.00  0.00    -0.225 NA
ATOM      6  N   UNL     1       2.134  -7.061  -1.141  0.00  0.00    -0.264 N 
ATOM      7  C   UNL     1       1.988  -8.398  -1.061  0.00  0.00    +0.223 C 
ATOM      8  O   UNL     1       1.006  -8.871  -0.529  0.00  0.00    -0.275 OA
ATOM      9  H   UNL     1       2.919  -6.683  -1.566  0.00  0.00    +0.157 HD
ENDROOT
BRANCH   1  17
ATOM     10  C   UNL     1       1.905   1.882   1.378  0.00  0.00    +0.062 C 
ATOM     11  C   UNL     1       1.252   2.016   0.001  0.00  0.00    +0.256 C 
ATOM     12  C   UNL     1       2.143   1.389  -1.041  0.00  0.00    +0.258 C 
ATOM     13  O   UNL     1       2.971   2.060  -1.619  0.00  0.00    -0.271 OA
ATOM     14  N   UNL     1       2.015   0.075  -1.328  0.00  0.00    -0.280 N 
ATOM     15  C   UNL     1       1.026  -0.671  -0.671  0.00  0.00    +0.076 A 
ATOM     16  C   UNL     1       1.059  -2.054  -0.687  0.00  0.00    +0.037 A 
ATOM     17  C   UNL     1       0.065  -2.777  -0.029  0.00  0.00    +0.003 A 
ATOM     18  C   UNL     1      -0.955  -2.105   0.642  0.00  0.00    +0.014 A 
ATOM     19  C   UNL     1      -0.984  -0.725   0.655  0.00  0.00    +0.048 A 
ATOM     20  C   UNL     1       0.002  -0.004   0.002  0.00  0.00    +0.143 A 
ATOM     21  O   UNL     1      -0.016   1.356   0.009  0.00  0.00    -0.478 OA
ATOM     22  H   UNL     1       2.598  -0.346  -1.979  0.00  0.00    +0.155 HD
ENDBRANCH   1  17
BRANCH   7  23
ATOM     23  C   UNL     1       3.047  -9.306  -1.631  0.00  0.00    +0.138 C 
BRANCH  23  24
ATOM     24  C   UNL     1       2.647 -10.743  -1.413  0.00  0.00    -0.001 A 
ATOM     25  C   UNL     1       1.915 -11.556  -2.213  0.00  0.00    +0.011 A 
ATOM     26  C   UNL     1       1.673 -12.855  -1.806  0.00  0.00    +0.008 A 
ATOM     27  C   UNL     1       2.165 -13.274  -0.615  0.00  0.00    +0.045 A 
ATOM     28  S   UNL     1       3.008 -11.813  -0.030  0.00  0.00    -0.101 S 
ENDBRANCH  23  24
ENDBRANCH   7  23
TORSDOF 3
