REMARK  Name = ZINC59854684
REMARK  5 active torsions:
REMARK  status: ('A' for Active; 'I' for Inactive)
REMARK    1  A    between atoms: N_13  and  C_14
REMARK    2  A    between atoms: C_14  and  C_15
REMARK    3  A    between atoms: C_18  and  C_21
REMARK    4  A    between atoms: N_23  and  C_24
REMARK    5  A    between atoms: C_24  and  C_25
REMARK                            x       y       z     vdW  Elec       q    Type
REMARK                         _______ _______ _______ _____ _____    ______ ____
ROOT
ATOM      1  C   UNL     1       7.491  -1.937   2.882  0.00  0.00    -0.030 A 
ATOM      2  C   UNL     1       8.632  -1.762   2.119  0.00  0.00    +0.006 A 
ATOM      3  C   UNL     1       9.628  -0.909   2.546  0.00  0.00    +0.013 A 
ATOM      4  C   UNL     1       9.483  -0.222   3.753  0.00  0.00    +0.037 A 
ATOM      5  C   UNL     1       8.330  -0.403   4.518  0.00  0.00    +0.013 A 
ATOM      6  C   UNL     1       7.339  -1.255   4.076  0.00  0.00    +0.006 A 
ENDROOT
BRANCH   4   7
ATOM      7  C   UNL     1      10.547   0.694   4.218  0.00  0.00    +0.244 C 
ATOM      8  O   UNL     1      11.550   0.849   3.549  0.00  0.00    -0.270 OA
ATOM      9  N   UNL     1      10.404   1.356   5.383  0.00  0.00    -0.303 N 
ATOM     10  H   UNL     1       9.603   1.232   5.916  0.00  0.00    +0.150 HD
BRANCH   9  11
ATOM     11  C   UNL     1      11.458   2.263   5.844  0.00  0.00    +0.200 C 
BRANCH  11  12
ATOM     12  C   UNL     1      11.055   2.872   7.162  0.00  0.00    +0.228 C 
ATOM     13  O   UNL     1       9.993   2.578   7.667  0.00  0.00    -0.274 OA
ATOM     14  N   UNL     1      11.876   3.744   7.780  0.00  0.00    -0.328 N 
ATOM     15  H   UNL     1      12.726   3.980   7.376  0.00  0.00    +0.145 HD
ATOM     16  H   UNL     1      11.617   4.137   8.628  0.00  0.00    +0.145 HD
ENDBRANCH  11  12
ENDBRANCH   9  11
ENDBRANCH   4   7
BRANCH   1  17
ATOM     17  C   UNL     1       6.407  -2.871   2.408  0.00  0.00    +0.141 C 
BRANCH  17  30
ATOM     18  C   UNL     1      -0.025   1.367   0.014  0.00  0.00    +0.000 A 
ATOM     19  C   UNL     1       1.163   2.074   0.010  0.00  0.00    +0.000 A 
ATOM     20  C   UNL     1       2.363   1.394  -0.011  0.00  0.00    +0.005 A 
ATOM     21  C   UNL     1       2.387   0.005  -0.024  0.00  0.00    -0.027 A 
ATOM     22  C   UNL     1       1.204  -0.700  -0.011  0.00  0.00    -0.041 A 
ATOM     23  C   UNL     1      -0.003  -0.012   0.003  0.00  0.00    +0.004 A 
ATOM     24  C   UNL     1       1.151  -2.205   0.007  0.00  0.00    +0.054 C 
ATOM     25  C   UNL     1       2.468  -2.802  -0.488  0.00  0.00    +0.114 C 
ATOM     26  N   UNL     1       3.568  -2.108   0.203  0.00  0.00    -0.281 N 
ATOM     27  C   UNL     1       3.732  -0.675  -0.061  0.00  0.00    +0.144 C 
ATOM     28  C   UNL     1       4.391  -2.765   1.044  0.00  0.00    +0.303 C 
ATOM     29  O   UNL     1       4.176  -3.930   1.319  0.00  0.00    -0.253 OA
ATOM     30  N   UNL     1       5.452  -2.130   1.581  0.00  0.00    -0.295 N 
ATOM     31  H   UNL     1       5.582  -1.183   1.419  0.00  0.00    +0.151 HD
ENDBRANCH  17  30
ENDBRANCH   1  17
TORSDOF 5
