REMARK  Name = ZINC12793712
REMARK  8 active torsions:
REMARK  status: ('A' for Active; 'I' for Inactive)
REMARK    1  A    between atoms: C_1  and  N_2
REMARK    2  A    between atoms: C_6  and  C_29
REMARK    3  A    between atoms: C_11  and  S_12
REMARK    4  A    between atoms: S_12  and  C_13
REMARK    5  A    between atoms: C_13  and  C_14
REMARK    6  A    between atoms: N_16  and  C_17
REMARK    7  A    between atoms: C_22  and  C_23
REMARK    8  A    between atoms: C_22  and  N_57
REMARK                            x       y       z     vdW  Elec       q    Type
REMARK                         _______ _______ _______ _____ _____    ______ ____
ROOT
ATOM      1  C   UNL     1       3.742   1.492   0.632  0.00  0.00    +0.173 C 
ENDROOT
BRANCH   1   2
ATOM      2  C   UNL     1       2.336   0.951   0.643  0.00  0.00    +0.223 C 
ATOM      3  O   UNL     1       2.087  -0.080   1.231  0.00  0.00    -0.275 OA
ATOM      4  N   UNL     1       1.355   1.612  -0.002  0.00  0.00    -0.314 N 
ATOM      5  H   UNL     1       1.553   2.437  -0.473  0.00  0.00    +0.149 HD
BRANCH   4   6
ATOM      6  C   UNL     1      -0.013   1.086   0.008  0.00  0.00    +0.055 C 
ATOM      7  C   UNL     1      -0.778   1.605   1.246  0.00  0.00    +0.002 C 
ATOM      8  C   UNL     1      -1.565   2.817   0.682  0.00  0.00    -0.077 C 
ATOM      9  C   UNL     1      -0.799   1.616  -1.205  0.00  0.00    -0.056 C 
ATOM     10  N   UNL     1      -1.943   2.349  -0.661  0.00  0.00    +0.384 N 
ATOM     11  H   UNL     1      -2.755   1.725  -0.596  0.00  0.00    -0.081 HD
BRANCH  10  12
ATOM     12  C   UNL     1      -2.285   3.509  -1.538  0.00  0.00    -0.043 C 
BRANCH  12  13
ATOM     13  C   UNL     1      -3.302   4.383  -0.850  0.00  0.00    -0.064 A 
ATOM     14  C   UNL     1      -4.652   4.156  -1.043  0.00  0.00    +0.002 A 
ATOM     15  C   UNL     1      -5.585   4.955  -0.408  0.00  0.00    +0.000 A 
ATOM     16  C   UNL     1      -5.168   5.986   0.412  0.00  0.00    +0.000 A 
ATOM     17  C   UNL     1      -3.818   6.216   0.601  0.00  0.00    +0.000 A 
ATOM     18  C   UNL     1      -2.885   5.415  -0.030  0.00  0.00    +0.002 A 
ENDBRANCH  12  13
ENDBRANCH  10  12
ENDBRANCH   4   6
ENDBRANCH   1   2
BRANCH   1  19
ATOM     19  S   UNL     1       4.821   0.388   1.578  0.00  0.00    -0.078 S 
BRANCH  19  30
ATOM     20  C   UNL     1       7.387  -0.522   2.750  0.00  0.00    +0.154 C 
ATOM     21  N   UNL     1       7.478   0.726   1.988  0.00  0.00    -0.290 N 
ATOM     22  C   UNL     1       8.666   1.347   1.876  0.00  0.00    +0.263 A 
ATOM     23  O   UNL     1       9.660   0.877   2.404  0.00  0.00    -0.267 OA
ATOM     24  C   UNL     1       8.749   2.563   1.132  0.00  0.00    +0.080 A 
ATOM     25  C   UNL     1       9.912   3.408   0.875  0.00  0.00    +0.010 A 
ATOM     26  C   UNL     1       9.750   4.531   0.133  0.00  0.00    +0.057 A 
ATOM     27  S   UNL     1       8.012   4.516  -0.265  0.00  0.00    -0.076 S 
ATOM     28  C   UNL     1       7.547   3.018   0.565  0.00  0.00    +0.117 A 
ATOM     29  N   UNL     1       6.405   2.354   0.708  0.00  0.00    -0.216 NA
ATOM     30  C   UNL     1       6.355   1.237   1.404  0.00  0.00    +0.173 A 
BRANCH  25  31
ATOM     31  C   UNL     1      11.240   3.047   1.413  0.00  0.00    +0.021 A 
ATOM     32  C   UNL     1      12.443   2.970   0.763  0.00  0.00    +0.016 A 
ATOM     33  C   UNL     1      13.562   2.607   1.482  0.00  0.00    +0.008 A 
ATOM     34  C   UNL     1      13.439   2.338   2.806  0.00  0.00    +0.046 A 
ATOM     35  S   UNL     1      11.695   2.605   3.082  0.00  0.00    -0.097 S 
ENDBRANCH  25  31
ENDBRANCH  19  30
ENDBRANCH   1  19
TORSDOF 7
