REMARK  Name = ZINC32983718
REMARK  6 active torsions:
REMARK  status: ('A' for Active; 'I' for Inactive)
REMARK    1  A    between atoms: C_5  and  C_7
REMARK    2  A    between atoms: C_7  and  C_9
REMARK    3  A    between atoms: C_7  and  N_28
REMARK    4  A    between atoms: C_9  and  C_10
REMARK    5  A    between atoms: N_15  and  S_18
REMARK    6  A    between atoms: S_18  and  C_21
REMARK                            x       y       z     vdW  Elec       q    Type
REMARK                         _______ _______ _______ _____ _____    ______ ____
ROOT
ATOM      1  C   UNL     1      -0.030   1.193   0.305  0.00  0.00    +0.218 C 
ATOM      2  O   UNL     1      -0.010  -0.016   0.213  0.00  0.00    -0.276 OA
ATOM      3  N   UNL     1       1.121   1.875   0.466  0.00  0.00    -0.299 N 
ATOM      4  C   UNL     1       1.113   3.341   0.574  0.00  0.00    +0.125 C 
ATOM      5  C   UNL     1       1.824   3.737   1.879  0.00  0.00    +0.128 C 
ATOM      6  N   UNL     1       3.110   3.029   1.944  0.00  0.00    -0.174 NA
ATOM      7  C   UNL     1       3.119   1.564   1.831  0.00  0.00    +0.128 C 
ATOM      8  C   UNL     1       2.408   1.168   0.531  0.00  0.00    +0.125 C 
ENDROOT
BRANCH   6   9
ATOM      9  S   UNL     1       4.525   3.868   2.140  0.00  0.00    +0.062 S 
ATOM     10  O   UNL     1       4.183   5.100   2.759  0.00  0.00    -0.153 OA
ATOM     11  O   UNL     1       5.458   2.961   2.712  0.00  0.00    -0.153 OA
BRANCH   9  12
ATOM     12  C   UNL     1       5.125   4.261   0.531  0.00  0.00    +0.124 A 
ATOM     13  C   UNL     1       5.199   5.580   0.124  0.00  0.00    +0.030 A 
ATOM     14  C   UNL     1       5.674   5.889  -1.136  0.00  0.00    +0.002 A 
ATOM     15  C   UNL     1       6.066   4.879  -1.995  0.00  0.00    +0.002 A 
ATOM     16  C   UNL     1       5.988   3.559  -1.591  0.00  0.00    +0.022 A 
ATOM     17  C   UNL     1       5.517   3.250  -0.327  0.00  0.00    +0.067 A 
ATOM     18 CL   UNL     1       5.418   1.593   0.181  0.00  0.00    -0.082 Cl
ENDBRANCH   9  12
ENDBRANCH   6   9
BRANCH   1  19
ATOM     19  C   UNL     1      -1.341   1.933   0.234  0.00  0.00    +0.123 C 
BRANCH  19  20
ATOM     20  C   UNL     1      -2.482   0.931   0.044  0.00  0.00    +0.115 C 
BRANCH  20  25
ATOM     21  C   UNL     1      -5.040   3.708  -0.028  0.00  0.00    +0.000 A 
ATOM     22  C   UNL     1      -6.154   3.045  -0.506  0.00  0.00    +0.001 A 
ATOM     23  C   UNL     1      -6.081   1.698  -0.807  0.00  0.00    +0.020 A 
ATOM     24  C   UNL     1      -4.891   1.014  -0.634  0.00  0.00    +0.046 A 
ATOM     25  C   UNL     1      -3.777   1.677  -0.150  0.00  0.00    -0.008 A 
ATOM     26  C   UNL     1      -3.851   3.024   0.150  0.00  0.00    +0.007 A 
ATOM     27 CL   UNL     1      -4.796  -0.676  -1.019  0.00  0.00    -0.083 Cl
ENDBRANCH  20  25
BRANCH  20  28
ATOM     28  N   UNL     1      -2.584   0.076   1.229  0.00  0.00    -0.292 N 
ATOM     29  C   UNL     1      -2.888   0.616   2.425  0.00  0.00    +0.298 C 
ATOM     30  O   UNL     1      -3.169   1.796   2.506  0.00  0.00    -0.253 OA
ATOM     31  N   UNL     1      -2.882  -0.153   3.533  0.00  0.00    -0.313 N 
ATOM     32  H   UNL     1      -2.411  -1.007   1.142  0.00  0.00    +0.151 HD
ATOM     33  H   UNL     1      -3.131   0.288   4.509  0.00  0.00    +0.146 HD
ATOM     34  H   UNL     1      -2.628  -1.221   3.459  0.00  0.00    +0.146 HD
ENDBRANCH  20  28
ENDBRANCH  19  20
ENDBRANCH   1  19
TORSDOF 6
