REMARK  Name = ZINC39597733
REMARK  5 active torsions:
REMARK  status: ('A' for Active; 'I' for Inactive)
REMARK    1  A    between atoms: C_7  and  C_10
REMARK    2  A    between atoms: C_10  and  C_11
REMARK    3  A    between atoms: C_11  and  N_12
REMARK    4  A    between atoms: C_13  and  C_15
REMARK    5  A    between atoms: C_26  and  C_28
REMARK                            x       y       z     vdW  Elec       q    Type
REMARK                         _______ _______ _______ _____ _____    ______ ____
ROOT
ATOM      1  C   UNL     1      -5.340   6.694  -2.847  0.00  0.00    +0.100 C 
ATOM      2  C   UNL     1      -4.642   7.652  -1.855  0.00  0.00    +0.121 C 
ATOM      3  N   UNL     1      -3.767   8.496  -2.701  0.00  0.00    -0.296 N 
ATOM      4  C   UNL     1      -4.573   8.759  -3.918  0.00  0.00    +0.115 C 
ATOM      5  C   UNL     1      -5.295   7.426  -4.199  0.00  0.00    -0.004 C 
ATOM      6  C   UNL     1      -4.510   6.606  -5.218  0.00  0.00    -0.010 C 
ATOM      7  C   UNL     1      -4.528   7.327  -6.569  0.00  0.00    -0.082 C 
ATOM      8  N   UNL     1      -5.916   7.499  -7.015  0.00  0.00    +0.379 N 
ATOM      9  C   UNL     1      -6.640   8.366  -6.077  0.00  0.00    -0.082 C 
ATOM     10  C   UNL     1      -6.710   7.689  -4.705  0.00  0.00    -0.010 C 
ATOM     11  C   UNL     1      -2.520   8.928  -2.428  0.00  0.00    +0.248 C 
ATOM     12  O   UNL     1      -1.963   9.698  -3.186  0.00  0.00    -0.270 OA
ATOM     13  H   UNL     1      -5.923   7.919  -7.932  0.00  0.00    -0.086 HD
ATOM     14  H   UNL     1      -6.369   6.599  -7.056  0.00  0.00    -0.086 HD
ENDROOT
BRANCH  11  15
ATOM     15  C   UNL     1      -1.829   8.465  -1.206  0.00  0.00    +0.057 A 
ATOM     16  C   UNL     1      -2.553   8.248  -0.031  0.00  0.00    +0.014 A 
ATOM     17  C   UNL     1      -1.903   7.816   1.106  0.00  0.00    +0.002 A 
ATOM     18  C   UNL     1      -0.536   7.598   1.087  0.00  0.00    +0.021 A 
ATOM     19  C   UNL     1       0.188   7.812  -0.073  0.00  0.00    +0.060 A 
ATOM     20  C   UNL     1      -0.451   8.238  -1.222  0.00  0.00    +0.071 A 
ATOM     21 CL   UNL     1       0.457   8.498  -2.679  0.00  0.00    -0.081 Cl
ATOM     22 CL   UNL     1       1.902   7.536  -0.086  0.00  0.00    -0.082 Cl
ENDBRANCH  11  15
BRANCH   1  24
ATOM     23  N   UNL     1      -5.245   4.257  -3.260  0.00  0.00    -0.315 N 
ATOM     24  C   UNL     1      -4.591   5.389  -2.932  0.00  0.00    +0.218 C 
ATOM     25  O   UNL     1      -3.400   5.358  -2.704  0.00  0.00    -0.275 OA
ATOM     26  H   UNL     1      -6.197   4.283  -3.442  0.00  0.00    +0.149 HD
BRANCH  23  27
ATOM     27  C   UNL     1      -4.516   2.989  -3.342  0.00  0.00    +0.109 C 
BRANCH  27  28
ATOM     28  C   UNL     1      -5.485   1.869  -3.730  0.00  0.00    +0.056 C 
BRANCH  28  35
ATOM     29  C   UNL     1      -4.282  -1.351  -0.543  0.00  0.00    +0.001 A 
ATOM     30  C   UNL     1      -3.580  -2.416  -1.090  0.00  0.00    +0.002 A 
ATOM     31  C   UNL     1      -3.300  -2.457  -2.438  0.00  0.00    +0.026 A 
ATOM     32  C   UNL     1      -3.726  -1.420  -3.263  0.00  0.00    +0.047 A 
ATOM     33  N   UNL     1      -3.608  -1.173  -4.612  0.00  0.00    -0.360 N 
ATOM     34  C   UNL     1      -4.215   0.013  -4.923  0.00  0.00    +0.087 A 
ATOM     35  C   UNL     1      -4.736   0.564  -3.815  0.00  0.00    -0.021 A 
ATOM     36  C   UNL     1      -4.438  -0.343  -2.704  0.00  0.00    +0.003 A 
ATOM     37  C   UNL     1      -4.714  -0.325  -1.336  0.00  0.00    +0.010 A 
ATOM     38  H   UNL     1      -3.160  -1.753  -5.248  0.00  0.00    +0.165 HD
ENDBRANCH  28  35
ENDBRANCH  27  28
ENDBRANCH  23  27
ENDBRANCH   1  24
TORSDOF 5
