REMARK  Name = ZINC15947237
REMARK  5 active torsions:
REMARK  status: ('A' for Active; 'I' for Inactive)
REMARK    1  A    between atoms: C_1  and  C_2
REMARK    2  A    between atoms: C_2  and  N_3
REMARK    3  A    between atoms: C_11  and  O_25
REMARK    4  A    between atoms: C_13  and  C_16
REMARK    5  A    between atoms: C_21  and  O_22
REMARK                            x       y       z     vdW  Elec       q    Type
REMARK                         _______ _______ _______ _____ _____    ______ ____
ROOT
ATOM      1  N   UNL     1       0.713  -0.491   1.192  0.00  0.00    +0.383 N 
ATOM      2  C   UNL     1       0.840  -1.952   1.122  0.00  0.00    -0.074 C 
ATOM      3  C   UNL     1       1.836  -2.447   2.176  0.00  0.00    +0.018 C 
ATOM      4  C   UNL     1       1.419  -1.870   3.522  0.00  0.00    -0.027 A 
ATOM      5  C   UNL     1       0.567  -0.819   3.573  0.00  0.00    -0.021 A 
ATOM      6  S   UNL     1       0.362  -0.490   5.301  0.00  0.00    -0.080 S 
ATOM      7  C   UNL     1       1.344  -1.673   5.923  0.00  0.00    +0.080 A 
ATOM      8  C   UNL     1       1.862  -2.353   4.814  0.00  0.00    +0.067 A 
ATOM      9  C   UNL     1       2.801  -3.474   5.077  0.00  0.00    +0.220 C 
ATOM     10  N   UNL     1       2.890  -3.916   6.302  0.00  0.00    -0.223 NA
ATOM     11  C   UNL     1       2.087  -3.429   7.416  0.00  0.00    +0.227 C 
ATOM     12  N   UNL     1       1.667  -2.031   7.213  0.00  0.00    -0.313 N 
ATOM     13  C   UNL     1      -0.043  -0.117   2.402  0.00  0.00    -0.035 C 
ATOM     14  H   UNL     1       1.621  -1.398   7.946  0.00  0.00    +0.149 HD
ATOM     15  H   UNL     1       1.631  -0.075   1.228  0.00  0.00    -0.081 HD
ENDROOT
BRANCH  11  16
ATOM     16  C   UNL     1       0.862  -4.295   7.555  0.00  0.00    +0.038 A 
ATOM     17  C   UNL     1      -0.339  -3.735   7.947  0.00  0.00    +0.031 A 
ATOM     18  C   UNL     1      -1.465  -4.529   8.074  0.00  0.00    +0.043 A 
ATOM     19  C   UNL     1      -1.392  -5.885   7.809  0.00  0.00    +0.039 A 
ATOM     20  C   UNL     1      -0.193  -6.449   7.416  0.00  0.00    +0.061 A 
ATOM     21  C   UNL     1       0.937  -5.652   7.283  0.00  0.00    +0.138 A 
ATOM     22 BR   UNL     1      -0.092  -8.302   7.054  0.00  0.00    -0.046 Br
ATOM     23 CL   UNL     1      -2.973  -3.822   8.567  0.00  0.00    -0.083 Cl
BRANCH  21  24
ATOM     24  O   UNL     1       2.116  -6.204   6.891  0.00  0.00    -0.505 OA
ATOM     25  H   UNL     1       2.664  -6.521   7.622  0.00  0.00    +0.292 HD
ENDBRANCH  21  24
ENDBRANCH  11  16
BRANCH   1  27
ATOM     26  C   UNL     1      -0.019   1.526   0.010  0.00  0.00    -0.017 C 
ATOM     27  C   UNL     1       0.002  -0.004   0.002  0.00  0.00    -0.082 C 
ENDBRANCH   1  27
BRANCH   9  28
ATOM     28  O   UNL     1       3.538  -4.018   4.081  0.00  0.00    -0.492 OA
ATOM     29  H   UNL     1       4.114  -4.741   4.367  0.00  0.00    +0.294 HD
ENDBRANCH   9  28
TORSDOF 4
