REMARK  Name = ZINC20559949
REMARK  7 active torsions:
REMARK  status: ('A' for Active; 'I' for Inactive)
REMARK    1  A    between atoms: C_1  and  C_2
REMARK    2  A    between atoms: C_2  and  C_4
REMARK    3  A    between atoms: C_2  and  N_11
REMARK    4  A    between atoms: N_11  and  C_12
REMARK    5  A    between atoms: C_16  and  N_18
REMARK    6  A    between atoms: N_18  and  S_19
REMARK    7  A    between atoms: S_19  and  C_22
REMARK                            x       y       z     vdW  Elec       q    Type
REMARK                         _______ _______ _______ _____ _____    ______ ____
ROOT
ATOM      1  C   UNL     1       4.657   2.133   1.140  0.00  0.00    +0.029 A 
ATOM      2  C   UNL     1       4.799   0.750   1.162  0.00  0.00    +0.023 A 
ATOM      3  C   UNL     1       5.921   0.178   1.728  0.00  0.00    +0.004 A 
ATOM      4  C   UNL     1       6.907   0.977   2.275  0.00  0.00    +0.024 A 
ATOM      5  C   UNL     1       6.772   2.360   2.257  0.00  0.00    +0.049 A 
ATOM      6  C   UNL     1       5.648   2.939   1.683  0.00  0.00    +0.047 A 
ENDROOT
BRANCH   1   7
ATOM      7  N   UNL     1       3.522   2.711   0.567  0.00  0.00    -0.337 N 
ATOM      8  H   UNL     1       3.411   3.805   0.550  0.00  0.00    +0.147 HD
BRANCH   7  10
ATOM      9  C   UNL     1       2.850   1.508  -1.454  0.00  0.00    +0.033 C 
ATOM     10  C   UNL     1       2.480   1.859  -0.012  0.00  0.00    +0.099 C 
BRANCH  10  11
ATOM     11  C   UNL     1       1.165   2.595   0.005  0.00  0.00    -0.014 A 
ATOM     12  C   UNL     1       1.145   3.977   0.012  0.00  0.00    +0.006 A 
ATOM     13  C   UNL     1      -0.061   4.651   0.027  0.00  0.00    +0.000 A 
ATOM     14  C   UNL     1      -1.249   3.944   0.034  0.00  0.00    +0.001 A 
ATOM     15  C   UNL     1      -1.231   2.562   0.022  0.00  0.00    +0.015 A 
ATOM     16  C   UNL     1      -0.024   1.887   0.012  0.00  0.00    +0.023 A 
ATOM     17 BR   UNL     1       0.002  -0.004   0.002  0.00  0.00    -0.050 Br
ENDBRANCH  10  11
ENDBRANCH   7  10
ENDBRANCH   1   7
BRANCH   5  18
ATOM     18  N   UNL     1       7.769   3.167   2.809  0.00  0.00    -0.221 N 
ATOM     19  H   UNL     1       7.495   4.012   3.459  0.00  0.00    +0.173 HD
BRANCH  18  20
ATOM     20  S   UNL     1       9.362   2.853   2.486  0.00  0.00    +0.040 S 
ATOM     21  O   UNL     1      10.081   3.837   3.218  0.00  0.00    -0.155 OA
ATOM     22  O   UNL     1       9.525   1.472   2.776  0.00  0.00    -0.155 OA
ATOM     23  C   UNL     1       9.543   3.143   0.705  0.00  0.00    +0.218 C 
ENDBRANCH  18  20
ENDBRANCH   5  18
TORSDOF 5
