REMARK  Name = ZINC02819757
REMARK  5 active torsions:
REMARK  status: ('A' for Active; 'I' for Inactive)
REMARK    1  A    between atoms: C_4  and  C_11
REMARK    2  A    between atoms: N_12  and  N_13
REMARK    3  A    between atoms: C_14  and  C_16
REMARK    4  A    between atoms: N_18  and  N_19
REMARK    5  A    between atoms: C_20  and  C_21
REMARK                            x       y       z     vdW  Elec       q    Type
REMARK                         _______ _______ _______ _____ _____    ______ ____
ROOT
ATOM      1  N   UNL     1       3.928   5.536  -0.006  0.00  0.00    -0.199 N 
ATOM      2  C   UNL     1       3.060   6.567   0.008  0.00  0.00    +0.320 C 
ATOM      3  O   UNL     1       1.864   6.354   0.019  0.00  0.00    -0.263 OA
ATOM      4  H   UNL     1       4.883   5.706  -0.015  0.00  0.00    +0.178 HD
ENDROOT
BRANCH   2   5
ATOM      5  C   UNL     1       3.567   7.966   0.011  0.00  0.00    +0.320 C 
ATOM      6  O   UNL     1       4.763   8.179  -0.000  0.00  0.00    -0.263 OA
ATOM      7  N   UNL     1       2.698   8.997   0.025  0.00  0.00    -0.199 N 
ATOM      8  H   UNL     1       1.743   8.827   0.033  0.00  0.00    +0.178 HD
BRANCH   7   9
ATOM      9  N   UNL     1       3.175  10.314   0.027  0.00  0.00    -0.187 NA
ATOM     10  C   UNL     1       2.337  11.309   0.041  0.00  0.00    +0.140 C 
BRANCH  10  11
ATOM     11  C   UNL     1       2.837  12.692   0.043  0.00  0.00    +0.020 A 
ATOM     12  C   UNL     1       4.248  13.118   0.026  0.00  0.00    +0.008 A 
ATOM     13  C   UNL     1       4.228  14.523   0.036  0.00  0.00    +0.047 A 
ATOM     14  N   UNL     1       2.906  14.917   0.058  0.00  0.00    -0.360 N 
ATOM     15  H   UNL     1       2.603  15.839   0.069  0.00  0.00    +0.165 HD
ATOM     16  C   UNL     1       2.088  13.829   0.056  0.00  0.00    +0.093 A 
ATOM     17  C   UNL     1       5.429  15.223   0.023  0.00  0.00    +0.026 A 
ATOM     18  C   UNL     1       6.624  14.537   0.001  0.00  0.00    +0.002 A 
ATOM     19  C   UNL     1       6.643  13.150  -0.010  0.00  0.00    +0.001 A 
ATOM     20  C   UNL     1       5.463  12.438   0.003  0.00  0.00    +0.010 A 
ENDBRANCH  10  11
ENDBRANCH   7   9
ENDBRANCH   2   5
BRANCH   1  22
ATOM     21  C   UNL     1       4.290   3.224  -0.022  0.00  0.00    +0.140 C 
ATOM     22  N   UNL     1       3.451   4.219  -0.009  0.00  0.00    -0.187 NA
BRANCH  21  26
ATOM     23  C   UNL     1      -0.017   1.383   0.010  0.00  0.00    +0.001 A 
ATOM     24  C   UNL     1       1.163   2.095   0.002  0.00  0.00    +0.010 A 
ATOM     25  C   UNL     1       2.378   1.415  -0.013  0.00  0.00    +0.008 A 
ATOM     26  C   UNL     1       3.789   1.841  -0.025  0.00  0.00    +0.020 A 
ATOM     27  C   UNL     1       4.538   0.704  -0.038  0.00  0.00    +0.093 A 
ATOM     28  N   UNL     1       3.720  -0.385  -0.036  0.00  0.00    -0.360 N 
ATOM     29  H   UNL     1       4.024  -1.306  -0.044  0.00  0.00    +0.165 HD
ATOM     30  C   UNL     1       2.399   0.010  -0.021  0.00  0.00    +0.047 A 
ATOM     31  C   UNL     1       1.197  -0.690  -0.013  0.00  0.00    +0.026 A 
ATOM     32  C   UNL     1       0.002  -0.004   0.002  0.00  0.00    +0.002 A 
ENDBRANCH  21  26
ENDBRANCH   1  22
TORSDOF 5
