REMARK  Name = ZINC43225359
REMARK  12 active torsions:
REMARK  status: ('A' for Active; 'I' for Inactive)
REMARK    1  A    between atoms: C_1  and  C_2
REMARK    2  A    between atoms: C_2  and  C_3
REMARK    3  A    between atoms: C_3  and  C_4
REMARK    4  A    between atoms: C_4  and  C_5
REMARK    5  A    between atoms: C_5  and  C_6
REMARK    6  A    between atoms: C_7  and  C_23
REMARK    7  A    between atoms: C_8  and  C_20
REMARK    8  A    between atoms: C_9  and  C_19
REMARK    9  A    between atoms: N_10  and  C_11
REMARK   10  A    between atoms: C_11  and  C_12
REMARK   11  A    between atoms: C_12  and  C_13
REMARK   12  A    between atoms: C_27  and  O_29
REMARK                            x       y       z     vdW  Elec       q    Type
REMARK                         _______ _______ _______ _____ _____    ______ ____
ROOT
ATOM      1  C   UNL     1       1.523  -4.054   2.464  0.00  0.00    +0.027 A 
ATOM      2  C   UNL     1       0.581  -4.862   3.015  0.00  0.00    +0.015 A 
ATOM      3  C   UNL     1       1.028  -6.243   2.759  0.00  0.00    +0.065 A 
ATOM      4  C   UNL     1       2.204  -6.138   2.072  0.00  0.00    +0.029 A 
ATOM      5  N   UNL     1       2.487  -4.832   1.898  0.00  0.00    -0.346 N 
ATOM      6  C   UNL     1       3.043  -7.291   1.586  0.00  0.00    +0.064 C 
ENDROOT
BRANCH   2   7
ATOM      7  C   UNL     1      -0.647  -4.440   3.731  0.00  0.00    -0.012 A 
ATOM      8  C   UNL     1      -0.551  -3.745   4.936  0.00  0.00    +0.009 A 
ATOM      9  C   UNL     1      -1.696  -3.353   5.599  0.00  0.00    +0.004 A 
ATOM     10  C   UNL     1      -2.940  -3.648   5.073  0.00  0.00    +0.045 A 
ATOM     11  C   UNL     1      -3.045  -4.340   3.874  0.00  0.00    +0.117 A 
ATOM     12  C   UNL     1      -1.901  -4.732   3.198  0.00  0.00    +0.054 A 
BRANCH  11  13
ATOM     13  O   UNL     1      -4.270  -4.628   3.360  0.00  0.00    -0.507 OA
ATOM     14  H   UNL     1      -4.619  -3.947   2.770  0.00  0.00    +0.292 HD
ENDBRANCH  11  13
ENDBRANCH   2   7
BRANCH   3  15
ATOM     15  C   UNL     1       0.344  -7.482   3.160  0.00  0.00    +0.244 C 
ATOM     16  O   UNL     1      -0.468  -7.997   2.415  0.00  0.00    -0.270 OA
ATOM     17  N   UNL     1       0.619  -8.048   4.352  0.00  0.00    -0.325 N 
ATOM     18  H   UNL     1       1.268  -7.638   4.945  0.00  0.00    +0.145 HD
ATOM     19  H   UNL     1       0.169  -8.865   4.616  0.00  0.00    +0.145 HD
ENDBRANCH   3  15
BRANCH   1  20
ATOM     20  C   UNL     1       1.503  -2.548   2.473  0.00  0.00    +0.054 C 
BRANCH  20  21
ATOM     21  C   UNL     1       0.763  -2.041   1.233  0.00  0.00    +0.006 C 
BRANCH  21  22
ATOM     22  C   UNL     1       0.742  -0.511   1.242  0.00  0.00    +0.000 C 
BRANCH  22  24
ATOM     23  C   UNL     1      -0.019   1.526   0.010  0.00  0.00    +0.004 C 
ATOM     24  C   UNL     1       0.002  -0.004   0.002  0.00  0.00    -0.003 C 
ENDBRANCH  22  24
ENDBRANCH  21  22
ENDBRANCH  20  21
ENDBRANCH   1  20
BRANCH   5  25
ATOM     25  C   UNL     1       3.669  -4.321   1.199  0.00  0.00    +0.128 C 
BRANCH  25  26
ATOM     26  C   UNL     1       4.813  -4.139   2.197  0.00  0.00    +0.076 C 
BRANCH  26  27
ATOM     27  C   UNL     1       6.029  -3.613   1.479  0.00  0.00    +0.037 A 
ATOM     28  C   UNL     1       6.950  -4.341   0.820  0.00  0.00    +0.133 A 
ATOM     29  N   UNL     1       7.867  -3.499   0.323  0.00  0.00    -0.244 NA
ATOM     30  C   UNL     1       7.549  -2.276   0.647  0.00  0.00    +0.196 A 
ATOM     31  N   UNL     1       6.405  -2.302   1.364  0.00  0.00    -0.348 N 
ATOM     32  H   UNL     1       5.938  -1.535   1.731  0.00  0.00    +0.166 HD
ENDBRANCH  26  27
ENDBRANCH  25  26
ENDBRANCH   5  25
TORSDOF 10
