REMARK  Name = ZINC02431003
REMARK  1 active torsions:
REMARK  status: ('A' for Active; 'I' for Inactive)
REMARK    1  A    between atoms: C_3  and  N_8
REMARK                            x       y       z     vdW  Elec       q    Type
REMARK                         _______ _______ _______ _____ _____    ______ ____
ROOT
ATOM      1  N   UNL     1       3.586   2.127  -0.021  0.00  0.00    -0.210 N 
ATOM      2  C   UNL     1       3.633   3.461  -0.107  0.00  0.00    +0.228 C 
ATOM      3  O   UNL     1       2.670   4.193  -0.186  0.00  0.00    -0.275 OA
ATOM      4  C   UNL     1       5.075   3.915  -0.091  0.00  0.00    +0.074 C 
ATOM      5  C   UNL     1       5.355   4.685   1.213  0.00  0.00    -0.054 C 
ATOM      6  C   UNL     1       4.036   5.271   1.749  0.00  0.00    -0.016 C 
ATOM      7  C   UNL     1       3.461   4.197   2.693  0.00  0.00    -0.020 C 
ATOM      8  C   UNL     1       4.467   3.030   2.635  0.00  0.00    -0.076 C 
ATOM      9  N   UNL     1       5.772   3.644   2.201  0.00  0.00    +0.395 N 
ATOM     10  C   UNL     1       6.550   2.675   1.412  0.00  0.00    +0.053 C 
ATOM     11  C   UNL     1       5.868   2.584   0.026  0.00  0.00    +0.089 C 
ATOM     12  C   UNL     1       4.782   1.533   0.062  0.00  0.00    +0.229 C 
ATOM     13  O   UNL     1       4.966   0.338   0.151  0.00  0.00    -0.275 OA
ATOM     14  C   UNL     1       7.988   3.094   1.284  0.00  0.00    -0.026 A 
ATOM     15  C   UNL     1       8.607   4.208   0.763  0.00  0.00    +0.004 A 
ATOM     16  C   UNL     1       9.987   4.310   0.791  0.00  0.00    +0.002 A 
ATOM     17  C   UNL     1      10.742   3.292   1.344  0.00  0.00    +0.022 A 
ATOM     18  C   UNL     1      10.126   2.174   1.868  0.00  0.00    +0.062 A 
ATOM     19  C   UNL     1       8.736   2.063   1.843  0.00  0.00    +0.054 A 
ATOM     20  N   UNL     1       7.893   1.048   2.303  0.00  0.00    -0.285 N 
ATOM     21  C   UNL     1       6.595   1.330   2.087  0.00  0.00    +0.212 C 
ATOM     22  O   UNL     1       5.644   0.636   2.381  0.00  0.00    -0.277 OA
ATOM     23 CL   UNL     1      11.084   0.901   2.559  0.00  0.00    -0.082 Cl
ATOM     24  H   UNL     1       8.207   0.234   2.727  0.00  0.00    +0.155 HD
ATOM     25  H   UNL     1       6.295   4.031   2.973  0.00  0.00    -0.079 HD
ENDROOT
BRANCH   1  28
ATOM     26  C   UNL     1       0.796   0.025   1.136  0.00  0.00    +0.003 A 
ATOM     27  C   UNL     1       1.984   0.731   1.130  0.00  0.00    +0.024 A 
ATOM     28  C   UNL     1       2.381   1.410  -0.013  0.00  0.00    +0.045 A 
ATOM     29  C   UNL     1       1.583   1.379  -1.149  0.00  0.00    +0.044 A 
ATOM     30  C   UNL     1       0.396   0.671  -1.137  0.00  0.00    +0.043 A 
ATOM     31  C   UNL     1       0.003  -0.005   0.005  0.00  0.00    +0.020 A 
ATOM     32 CL   UNL     1      -0.604   0.631  -2.556  0.00  0.00    -0.083 Cl
ENDBRANCH   1  28
TORSDOF 1
