REMARK  Name = ZINC05243357
REMARK  6 active torsions:
REMARK  status: ('A' for Active; 'I' for Inactive)
REMARK    1  A    between atoms: C_4  and  O_26
REMARK    2  A    between atoms: C_5  and  C_7
REMARK    3  A    between atoms: C_8  and  C_9
REMARK    4  A    between atoms: C_12  and  C_14
REMARK    5  A    between atoms: C_12  and  O_18
REMARK    6  A    between atoms: C_21  and  C_24
REMARK                            x       y       z     vdW  Elec       q    Type
REMARK                         _______ _______ _______ _____ _____    ______ ____
ROOT
ATOM      1  C   UNK     1       1.191  -0.514  -0.012  0.00  0.00    +0.064 C 
ATOM      2  N   UNK     1       0.002  -0.004   0.002  0.00  0.00    -0.180 NA
ATOM      3  N   UNK     1      -0.017   1.389   0.010  0.00  0.00    -0.160 N 
ATOM      4  C   UNK     1       1.368   1.885  -0.001  0.00  0.00    +0.256 C 
ATOM      5  C   UNK     1       2.216   0.598  -0.016  0.00  0.00    +0.123 C 
ATOM      6  C   UNK     1      -1.153   2.178   0.020  0.00  0.00    +0.184 A 
ATOM      7  N   UNK     1      -2.420   1.811   0.024  0.00  0.00    -0.217 NA
ATOM      8  C   UNK     1      -3.379   2.741   0.035  0.00  0.00    +0.161 A 
ATOM      9  C   UNK     1      -3.021   4.064   0.040  0.00  0.00    +0.083 A 
ATOM     10  S   UNK     1      -1.288   3.958   0.037  0.00  0.00    -0.058 S 
ENDROOT
BRANCH   4  11
ATOM     11  C   UNK     1       1.632   2.717  -1.257  0.00  0.00    +0.438 C 
ATOM     12  F   UNK     1       0.782   3.828  -1.268  0.00  0.00    -0.166 F 
ATOM     13  F   UNK     1       2.963   3.149  -1.260  0.00  0.00    -0.166 F 
ATOM     14  F   UNK     1       1.393   1.936  -2.393  0.00  0.00    -0.166 F 
ENDBRANCH   4  11
BRANCH   8  15
ATOM     15  C   UNK     1      -4.796   2.350   0.040  0.00  0.00    +0.405 C 
ATOM     16  O   UNK     1      -5.662   3.204   0.049  0.00  0.00    -0.239 OA
ATOM     17  O   UNK     1      -5.136   1.046   0.034  0.00  0.00    -0.239 OA
ENDBRANCH   8  15
BRANCH   1  19
ATOM     18  C   UNK     1       0.485  -2.804  -0.017  0.00  0.00    +0.013 C 
ATOM     19  C   UNK     1       1.487  -1.900  -0.022  0.00  0.00    +0.026 C 
BRANCH  18  24
ATOM     20  C   UNK     1       2.401  -6.028  -0.052  0.00  0.00    +0.001 A 
ATOM     21  C   UNK     1       1.372  -6.955  -0.048  0.00  0.00    +0.004 A 
ATOM     22  C   UNK     1       0.054  -6.538  -0.033  0.00  0.00    +0.046 A 
ATOM     23  C   UNK     1      -0.247  -5.186  -0.023  0.00  0.00    +0.124 A 
ATOM     24  C   UNK     1       0.792  -4.243  -0.028  0.00  0.00    +0.016 A 
ATOM     25  C   UNK     1       2.120  -4.678  -0.048  0.00  0.00    +0.011 A 
BRANCH  23  26
ATOM     26  O   UNK     1      -1.541  -4.775  -0.008  0.00  0.00    -0.506 OA
ATOM     27  H   UNK     1      -1.925  -4.651  -0.887  0.00  0.00    +0.292 HD
ENDBRANCH  23  26
ENDBRANCH  18  24
ENDBRANCH   1  19
BRANCH   4  28
ATOM     28  O   UNK     1       1.637   2.650   1.176  0.00  0.00    -0.363 OA
ATOM     29  H   UNK     1       1.083   3.437   1.268  0.00  0.00    +0.212 HD
ENDBRANCH   4  28
TORSDOF 6
