REMARK  Name = ZINC16022006
REMARK  8 active torsions:
REMARK  status: ('A' for Active; 'I' for Inactive)
REMARK    1  A    between atoms: C_1  and  C_2
REMARK    2  A    between atoms: C_16  and  C_19
REMARK    3  A    between atoms: C_19  and  C_20
REMARK    4  A    between atoms: C_23  and  O_26
REMARK    5  A    between atoms: N_29  and  C_32
REMARK    6  A    between atoms: C_32  and  C_33
REMARK    7  A    between atoms: C_32  and  C_34
REMARK    8  A    between atoms: C_32  and  C_35
REMARK                            x       y       z     vdW  Elec       q    Type
REMARK                         _______ _______ _______ _____ _____    ______ ____
ROOT
ATOM      1  C   UNL     1      -0.018   1.503   0.010  0.00  0.00    +0.045 C 
ATOM      2  C   UNL     1       0.002  -0.004   0.002  0.00  0.00    -0.029 A 
ATOM      3  C   UNL     1       0.006  -0.685  -1.198  0.00  0.00    +0.005 A 
ATOM      4  C   UNL     1       0.024  -2.068  -1.216  0.00  0.00    +0.001 A 
ATOM      5  C   UNL     1       0.040  -2.772  -0.025  0.00  0.00    +0.008 A 
ATOM      6  C   UNL     1       0.037  -2.096   1.175  0.00  0.00    +0.004 A 
ATOM      7  C   UNL     1       0.023  -0.705   1.205  0.00  0.00    +0.042 A 
ATOM      8  N   UNL     1       0.029  -0.250   2.526  0.00  0.00    -0.283 N 
ATOM      9  C   UNL     1       0.050  -1.265   3.412  0.00  0.00    +0.243 C 
ATOM     10  O   UNL     1       0.059  -1.170   4.621  0.00  0.00    -0.273 OA
ATOM     11  C   UNL     1       0.049  -2.538   2.611  0.00  0.00    +0.136 C 
ATOM     12  C   UNL     1      -1.161  -3.420   2.939  0.00  0.00    +0.122 C 
ATOM     13  C   UNL     1      -0.620  -4.875   2.853  0.00  0.00    +0.107 C 
ATOM     14  C   UNL     1       0.863  -4.723   2.453  0.00  0.00    +0.072 C 
ATOM     15  N   UNL     1       1.239  -3.354   2.916  0.00  0.00    -0.295 NA
ATOM     16  C   UNL     1      -0.719  -5.369   4.278  0.00  0.00    +0.228 C 
ATOM     17  O   UNL     1      -0.386  -6.469   4.663  0.00  0.00    -0.275 OA
ATOM     18  N   UNL     1      -1.231  -4.402   5.049  0.00  0.00    -0.236 N 
ATOM     19  C   UNL     1      -1.529  -3.255   4.397  0.00  0.00    +0.229 C 
ATOM     20  O   UNL     1      -2.009  -2.257   4.889  0.00  0.00    -0.275 OA
ATOM     21  H   UNL     1       0.018   0.687   2.776  0.00  0.00    +0.155 HD
ATOM     22  H   UNL     1       2.047  -3.016   2.414  0.00  0.00    +0.124 HD
ENDROOT
BRANCH  18  23
ATOM     23  C   UNL     1      -1.459  -4.573   6.487  0.00  0.00    +0.036 C 
ATOM     24  C   UNL     1      -1.025  -5.978   6.909  0.00  0.00    +0.031 C 
ATOM     25  C   UNL     1      -0.643  -3.534   7.258  0.00  0.00    +0.031 C 
ATOM     26  C   UNL     1      -2.946  -4.385   6.793  0.00  0.00    +0.031 C 
ENDBRANCH  18  23
BRANCH  14  27
ATOM     27  C   UNL     1       1.718  -5.768   3.171  0.00  0.00    +0.054 C 
BRANCH  27  28
ATOM     28  C   UNL     1       3.139  -5.682   2.675  0.00  0.00    -0.046 A 
ATOM     29  C   UNL     1       3.535  -6.436   1.585  0.00  0.00    +0.007 A 
ATOM     30  C   UNL     1       4.837  -6.360   1.129  0.00  0.00    +0.045 A 
ATOM     31  C   UNL     1       5.746  -5.526   1.763  0.00  0.00    +0.117 A 
ATOM     32  C   UNL     1       5.345  -4.770   2.856  0.00  0.00    +0.045 A 
ATOM     33  C   UNL     1       4.041  -4.846   3.305  0.00  0.00    +0.007 A 
BRANCH  31  34
ATOM     34  O   UNL     1       7.027  -5.449   1.316  0.00  0.00    -0.507 OA
ATOM     35  H   UNL     1       7.169  -4.767   0.645  0.00  0.00    +0.292 HD
ENDBRANCH  31  34
ENDBRANCH  27  28
ENDBRANCH  14  27
TORSDOF 4
