REMARK  Name = ZINC04277882
REMARK  7 active torsions:
REMARK  status: ('A' for Active; 'I' for Inactive)
REMARK    1  A    between atoms: C_1  and  C_2
REMARK    2  A    between atoms: C_8  and  C_11
REMARK    3  A    between atoms: N_13  and  C_14
REMARK    4  A    between atoms: C_14  and  C_16
REMARK    5  A    between atoms: C_14  and  C_23
REMARK    6  A    between atoms: C_16  and  C_17
REMARK    7  A    between atoms: N_28  and  C_29
REMARK                            x       y       z     vdW  Elec       q    Type
REMARK                         _______ _______ _______ _____ _____    ______ ____
ROOT
ATOM      1  C   UNL     1       4.870   5.245  -0.345  0.00  0.00    +0.109 C 
ATOM      2  C   UNL     1       5.725   4.303  -1.153  0.00  0.00    +0.213 C 
ATOM      3  O   UNL     1       6.873   4.596  -1.411  0.00  0.00    -0.276 OA
ATOM      4  N   UNL     1       5.214   3.134  -1.589  0.00  0.00    -0.298 N 
ATOM      5  C   UNL     1       6.068   2.151  -2.270  0.00  0.00    +0.127 C 
ATOM      6  C   UNL     1       5.961   0.812  -1.530  0.00  0.00    +0.129 C 
ATOM      7  N   UNL     1       4.540   0.496  -1.328  0.00  0.00    -0.271 N 
ATOM      8  C   UNL     1       3.685   1.481  -0.650  0.00  0.00    +0.181 C 
ATOM      9  C   UNL     1       3.792   2.820  -1.390  0.00  0.00    +0.139 C 
ATOM     10  C   UNL     1       4.029  -0.674  -1.759  0.00  0.00    +0.303 C 
ATOM     11  O   UNL     1       2.881  -0.973  -1.490  0.00  0.00    -0.253 OA
ATOM     12  N   UNL     1       4.790  -1.513  -2.489  0.00  0.00    -0.296 N 
ATOM     13  H   UNL     1       5.726  -1.310  -2.642  0.00  0.00    +0.151 HD
ENDROOT
BRANCH  12  14
ATOM     14  C   UNL     1       4.204  -2.732  -3.052  0.00  0.00    +0.074 C 
ATOM     15  C   UNL     1       4.239  -3.846  -2.003  0.00  0.00    +0.022 C 
ATOM     16  C   UNL     1       3.627  -5.119  -2.591  0.00  0.00    +0.002 C 
ATOM     17  C   UNL     1       4.429  -5.551  -3.820  0.00  0.00    +0.000 C 
ATOM     18  C   UNL     1       4.393  -4.437  -4.869  0.00  0.00    +0.002 C 
ATOM     19  C   UNL     1       5.006  -3.164  -4.281  0.00  0.00    +0.022 C 
ENDBRANCH  12  14
BRANCH   8  20
ATOM     20  C   UNL     1       2.255   1.006  -0.668  0.00  0.00    +0.236 C 
ATOM     21  O   UNL     1       1.671   0.878  -1.723  0.00  0.00    -0.274 OA
ATOM     22  N   UNL     1       1.624   0.724   0.489  0.00  0.00    -0.302 N 
ATOM     23  H   UNL     1       2.091   0.826   1.333  0.00  0.00    +0.150 HD
BRANCH  22  24
ATOM     24  C   UNL     1       0.234   0.262   0.472  0.00  0.00    +0.159 C 
BRANCH  24  25
ATOM     25  C   UNL     1      -0.690   1.452   0.427  0.00  0.00    +0.231 C 
ATOM     26  O   UNL     1      -0.232   2.575   0.410  0.00  0.00    -0.274 OA
ATOM     27  N   UNL     1      -2.025   1.268   0.404  0.00  0.00    -0.328 N 
ATOM     28  H   UNL     1      -2.391   0.370   0.417  0.00  0.00    +0.145 HD
ATOM     29  H   UNL     1      -2.620   2.034   0.375  0.00  0.00    +0.145 HD
ENDBRANCH  24  25
BRANCH  24  30
ATOM     30  C   UNL     1      -0.049  -0.554   1.735  0.00  0.00    +0.035 C 
BRANCH  30  31
ATOM     31  C   UNL     1       0.801  -1.827   1.719  0.00  0.00    -0.009 C 
ATOM     32  C   UNL     1       0.363  -2.718   0.555  0.00  0.00    +0.003 C 
ATOM     33  C   UNL     1       1.212  -3.991   0.539  0.00  0.00    +0.000 C 
ATOM     34  C   UNL     1       1.024  -4.745   1.857  0.00  0.00    +0.000 C 
ATOM     35  C   UNL     1       1.462  -3.854   3.021  0.00  0.00    +0.000 C 
ATOM     36  C   UNL     1       0.613  -2.582   3.037  0.00  0.00    +0.003 C 
ENDBRANCH  30  31
ENDBRANCH  24  30
ENDBRANCH  22  24
ENDBRANCH   8  20
TORSDOF 6
