REMARK  Name = ZINC62049435
REMARK  11 active torsions:
REMARK  status: ('A' for Active; 'I' for Inactive)
REMARK    1  A    between atoms: C_1  and  C_2
REMARK    2  A    between atoms: C_9  and  C_27
REMARK    3  A    between atoms: C_10  and  C_11
REMARK    4  A    between atoms: C_11  and  C_12
REMARK    5  A    between atoms: N_14  and  C_15
REMARK    6  A    between atoms: C_15  and  C_16
REMARK    7  A    between atoms: C_16  and  C_17
REMARK    8  A    between atoms: C_20  and  S_23
REMARK    9  A    between atoms: S_23  and  N_26
REMARK   10  A    between atoms: C_30  and  C_34
REMARK   11  A    between atoms: C_31  and  C_33
REMARK                            x       y       z     vdW  Elec       q    Type
REMARK                         _______ _______ _______ _____ _____    ______ ____
ROOT
ATOM      1  C   UNL     1      -0.269  -3.933   2.962  0.00  0.00    +0.151 C 
ENDROOT
BRANCH   1  11
ATOM      2  C   UNL     1       0.567   1.464   0.023  0.00  0.00    +0.047 C 
ATOM      3  C   UNL     1       0.475  -0.040   0.024  0.00  0.00    -0.008 A 
ATOM      4  C   UNL     1       0.629  -0.738  -1.133  0.00  0.00    +0.008 A 
ATOM      5  C   UNL     1       0.541  -2.140  -1.117  0.00  0.00    +0.018 A 
ATOM      6  C   UNL     1       0.303  -2.794   0.039  0.00  0.00    +0.093 A 
ATOM      7  N   UNL     1       0.145  -2.106   1.208  0.00  0.00    -0.302 N 
ATOM      8  C   UNL     1       0.233  -0.738   1.225  0.00  0.00    +0.141 A 
ATOM      9  N   UNL     1       0.052  -0.325   2.471  0.00  0.00    -0.227 NA
ATOM     10  C   UNL     1      -0.145  -1.391   3.263  0.00  0.00    +0.093 A 
ATOM     11  C   UNL     1      -0.100  -2.512   2.490  0.00  0.00    +0.060 A 
BRANCH  10  12
ATOM     12  C   UNL     1      -0.385  -1.354   4.727  0.00  0.00    +0.002 A 
ATOM     13  C   UNL     1       0.238  -2.281   5.561  0.00  0.00    +0.010 A 
ATOM     14  C   UNL     1       0.011  -2.242   6.922  0.00  0.00    +0.004 A 
ATOM     15  C   UNL     1      -0.833  -1.286   7.458  0.00  0.00    -0.047 A 
ATOM     16  C   UNL     1      -1.454  -0.364   6.634  0.00  0.00    -0.047 A 
ATOM     17  C   UNL     1      -1.229  -0.390   5.272  0.00  0.00    +0.013 A 
ATOM     18  C   UNL     1      -2.372   0.674   7.226  0.00  0.00    +0.044 C 
ATOM     19  C   UNL     1      -1.077  -1.249   8.944  0.00  0.00    +0.044 C 
ENDBRANCH  10  12
ENDBRANCH   1  11
BRANCH   1  20
ATOM     20  C   UNL     1       1.085  -4.538   3.230  0.00  0.00    +0.219 C 
ATOM     21  O   UNL     1       2.089  -3.880   3.055  0.00  0.00    -0.275 OA
ATOM     22  N   UNL     1       1.181  -5.810   3.664  0.00  0.00    -0.315 N 
ATOM     23  H   UNL     1       0.379  -6.337   3.805  0.00  0.00    +0.149 HD
BRANCH  22  24
ATOM     24  C   UNL     1       2.498  -6.398   3.925  0.00  0.00    +0.109 C 
BRANCH  24  25
ATOM     25  C   UNL     1       2.326  -7.841   4.405  0.00  0.00    +0.054 C 
BRANCH  25  26
ATOM     26  C   UNL     1       3.680  -8.445   4.673  0.00  0.00    -0.046 A 
ATOM     27  C   UNL     1       4.357  -9.101   3.661  0.00  0.00    +0.005 A 
ATOM     28  C   UNL     1       5.599  -9.656   3.907  0.00  0.00    +0.029 A 
ATOM     29  C   UNL     1       6.165  -9.555   5.164  0.00  0.00    +0.105 A 
ATOM     30  C   UNL     1       5.489  -8.898   6.175  0.00  0.00    +0.029 A 
ATOM     31  C   UNL     1       4.248  -8.340   5.928  0.00  0.00    +0.005 A 
BRANCH  29  32
ATOM     32  S   UNL     1       7.747 -10.262   5.478  0.00  0.00    +0.056 S 
ATOM     33  O   UNL     1       7.814 -10.505   6.876  0.00  0.00    -0.153 OA
ATOM     34  O   UNL     1       7.929 -11.293   4.516  0.00  0.00    -0.153 OA
BRANCH  32  35
ATOM     35  N   UNL     1       8.879  -9.100   5.144  0.00  0.00    -0.204 NA
ATOM     36  H   UNL     1       8.598  -8.223   4.838  0.00  0.00    +0.144 HD
ATOM     37  H   UNL     1       9.822  -9.295   5.255  0.00  0.00    +0.144 HD
ENDBRANCH  32  35
ENDBRANCH  29  32
ENDBRANCH  25  26
ENDBRANCH  24  25
ENDBRANCH  22  24
ENDBRANCH   1  20
TORSDOF 8
