REMARK  Name = ZINC15548369
REMARK  8 active torsions:
REMARK  status: ('A' for Active; 'I' for Inactive)
REMARK    1  A    between atoms: C_1  and  C_2
REMARK    2  A    between atoms: C_2  and  O_3
REMARK    3  A    between atoms: O_3  and  C_4
REMARK    4  A    between atoms: C_7  and  C_10
REMARK    5  A    between atoms: C_15  and  C_16
REMARK    6  A    between atoms: C_15  and  N_49
REMARK    7  A    between atoms: N_18  and  C_19
REMARK    8  A    between atoms: C_20  and  C_24
REMARK                            x       y       z     vdW  Elec       q    Type
REMARK                         _______ _______ _______ _____ _____    ______ ____
ROOT
ATOM      1  C   UNL     1      -4.961   2.003   0.040  0.00  0.00    +0.020 C 
ENDROOT
BRANCH   1   6
ATOM      2  C   UNL     1      -7.267   2.672  -0.306  0.00  0.00    -0.037 C 
ATOM      3  C   UNL     1      -8.201   3.076   0.854  0.00  0.00    -0.013 C 
ATOM      4  C   UNL     1      -7.428   4.233   1.539  0.00  0.00    -0.020 C 
ATOM      5  C   UNL     1      -5.960   3.765   1.380  0.00  0.00    -0.077 C 
ATOM      6  N   UNL     1      -5.915   3.143   0.044  0.00  0.00    +0.390 N 
ATOM      7  H   UNL     1      -5.608   3.839  -0.645  0.00  0.00    -0.080 HD
BRANCH   2  11
ATOM      8  C   UNL     1      -7.303  -1.574  -0.791  0.00  0.00    +0.121 A 
ATOM      9  C   UNL     1      -7.036  -1.019   0.452  0.00  0.00    +0.046 A 
ATOM     10  C   UNL     1      -7.025   0.354   0.606  0.00  0.00    +0.005 A 
ATOM     11  C   UNL     1      -7.280   1.175  -0.477  0.00  0.00    -0.061 A 
ATOM     12  C   UNL     1      -7.552   0.624  -1.716  0.00  0.00    +0.005 A 
ATOM     13  C   UNL     1      -7.559  -0.748  -1.877  0.00  0.00    +0.046 A 
BRANCH   8  14
ATOM     14  O   UNL     1      -7.315  -2.924  -0.945  0.00  0.00    -0.492 OA
BRANCH  14  16
ATOM     15  C   UNL     1      -7.566  -4.955  -2.231  0.00  0.00    +0.048 C 
ATOM     16  C   UNL     1      -7.597  -3.425  -2.253  0.00  0.00    +0.225 C 
ENDBRANCH  14  16
ENDBRANCH   8  14
ENDBRANCH   2  11
ENDBRANCH   1   6
BRANCH   1  17
ATOM     17  C   UNL     1      -3.552   2.536   0.022  0.00  0.00    +0.201 C 
ATOM     18  O   UNL     1      -3.357   3.733   0.018  0.00  0.00    -0.278 OA
ATOM     19  N   UNL     1      -2.509   1.683   0.012  0.00  0.00    -0.281 N 
ATOM     20  H   UNL     1      -2.665   0.726   0.016  0.00  0.00    +0.155 HD
BRANCH  19  21
ATOM     21  C   UNL     1      -1.212   2.174  -0.004  0.00  0.00    +0.084 A 
ATOM     22  C   UNL     1      -0.019   1.460  -0.016  0.00  0.00    +0.065 A 
ATOM     23  C   UNL     1       1.200   2.234  -0.038  0.00  0.00    +0.022 A 
ATOM     24  C   UNL     1       1.077   3.574  -0.040  0.00  0.00    +0.048 A 
ATOM     25  S   UNL     1      -0.686   3.823  -0.011  0.00  0.00    -0.081 S 
BRANCH  22  26
ATOM     26  C   UNL     1       0.001  -0.006  -0.013  0.00  0.00    +0.244 C 
ATOM     27  O   UNL     1      -1.045  -0.628   0.005  0.00  0.00    -0.270 OA
ATOM     28  N   UNL     1       1.177  -0.664  -0.031  0.00  0.00    -0.325 N 
ATOM     29  H   UNL     1       2.010  -0.168  -0.046  0.00  0.00    +0.145 HD
ATOM     30  H   UNL     1       1.190  -1.634  -0.029  0.00  0.00    +0.145 HD
ENDBRANCH  22  26
ENDBRANCH  19  21
ENDBRANCH   1  17
TORSDOF 7
