REMARK  Name = ZINC01759437
REMARK  2 active torsions:
REMARK  status: ('A' for Active; 'I' for Inactive)
REMARK    1  A    between atoms: C_4  and  C_7
REMARK    2  A    between atoms: C_8  and  C_17
REMARK                            x       y       z     vdW  Elec       q    Type
REMARK                         _______ _______ _______ _____ _____    ______ ____
ROOT
ATOM      1  C   UNL     1       2.374   5.301  -0.098  0.00  0.00    +0.014 C 
ATOM      2  C   UNL     1       2.417   3.943   0.058  0.00  0.00    +0.060 C 
ATOM      3  N   UNL     1       3.618   3.262   0.155  0.00  0.00    -0.265 N 
ATOM      4  N   UNL     1       4.838   3.883  -0.163  0.00  0.00    -0.266 N 
ATOM      5  C   UNL     1       4.913   5.276  -0.068  0.00  0.00    +0.048 C 
ATOM      6  C   UNL     1       6.054   5.913   0.154  0.00  0.00    -0.002 C 
ATOM      7  C   UNL     1       6.065   7.414   0.293  0.00  0.00    +0.033 C 
ATOM      8  C   UNL     1       5.022   8.045  -0.626  0.00  0.00    +0.032 C 
ATOM      9  C   UNL     1       3.692   7.353  -0.469  0.00  0.00    -0.016 C 
ATOM     10  C   UNL     1       3.648   6.040  -0.219  0.00  0.00    +0.003 C 
ATOM     11  H   UNL     1       3.616   2.337   0.445  0.00  0.00    +0.170 HD
ATOM     12  H   UNL     1       5.607   3.359  -0.437  0.00  0.00    +0.170 HD
ENDROOT
BRANCH   1  16
ATOM     13  C   UNL     1      -1.342   7.354  -0.230  0.00  0.00    +0.000 A 
ATOM     14  C   UNL     1      -0.935   6.742   0.942  0.00  0.00    +0.001 A 
ATOM     15  C   UNL     1       0.271   6.074   0.992  0.00  0.00    +0.008 A 
ATOM     16  C   UNL     1       1.081   6.015  -0.144  0.00  0.00    -0.015 A 
ATOM     17  C   UNL     1       0.666   6.639  -1.322  0.00  0.00    +0.008 A 
ATOM     18  C   UNL     1      -0.545   7.299  -1.360  0.00  0.00    +0.001 A 
ENDBRANCH   1  16
BRANCH   2  19
ATOM     19  C   UNL     1       1.153   3.187   0.131  0.00  0.00    -0.002 A 
ATOM     20  C   UNL     1       0.154   3.395  -0.823  0.00  0.00    +0.010 A 
ATOM     21  C   UNL     1      -1.026   2.685  -0.749  0.00  0.00    +0.001 A 
ATOM     22  C   UNL     1      -1.223   1.771   0.272  0.00  0.00    +0.000 A 
ATOM     23  C   UNL     1      -0.236   1.555   1.217  0.00  0.00    +0.001 A 
ATOM     24  C   UNL     1       0.948   2.258   1.155  0.00  0.00    +0.010 A 
ENDBRANCH   2  19
TORSDOF 2
