REMARK  Name = ZINC20912324
REMARK  8 active torsions:
REMARK  status: ('A' for Active; 'I' for Inactive)
REMARK    1  A    between atoms: C_1  and  C_2
REMARK    2  A    between atoms: C_7  and  N_8
REMARK    3  A    between atoms: C_9  and  C_11
REMARK    4  A    between atoms: C_11  and  S_12
REMARK    5  A    between atoms: S_12  and  C_13
REMARK    6  A    between atoms: N_17  and  N_18
REMARK    7  A    between atoms: N_19  and  N_20
REMARK    8  A    between atoms: C_21  and  C_22
REMARK                            x       y       z     vdW  Elec       q    Type
REMARK                         _______ _______ _______ _____ _____    ______ ____
ROOT
ATOM      1  C   UNL     1      -2.992  -2.639  -0.055  0.00  0.00    +0.210 A 
ATOM      2  N   UNL     1      -3.735  -1.558  -0.056  0.00  0.00    -0.119 NA
ATOM      3  N   UNL     1      -2.882  -0.446  -0.058  0.00  0.00    -0.109 NA
ATOM      4  C   UNL     1      -1.646  -0.884  -0.066  0.00  0.00    +0.254 A 
ATOM      5  N   UNL     1      -1.682  -2.251  -0.061  0.00  0.00    -0.211 N 
ATOM      6  N   UNL     1      -0.503  -0.099  -0.072  0.00  0.00    -0.204 N 
ATOM      7  H   UNL     1       0.490  -0.573  -0.074  0.00  0.00    +0.177 HD
ENDROOT
BRANCH   5   8
ATOM      8  N   UNL     1      -0.599  -3.083  -0.063  0.00  0.00    -0.294 N 
ATOM      9  H   UNL     1       0.417  -2.662  -0.068  0.00  0.00    +0.163 HD
ATOM     10  H   UNL     1      -0.743  -4.173  -0.060  0.00  0.00    +0.163 HD
ENDBRANCH   5   8
BRANCH   6  11
ATOM     11  N   UNL     1      -0.612   1.298  -0.077  0.00  0.00    -0.187 NA
ATOM     12  C   UNL     1       0.460   2.034  -0.083  0.00  0.00    +0.139 C 
BRANCH  12  13
ATOM     13  C   UNL     1       0.345   3.500  -0.087  0.00  0.00    +0.002 A 
ATOM     14  C   UNL     1       1.475   4.300  -0.203  0.00  0.00    +0.010 A 
ATOM     15  C   UNL     1       1.363   5.684  -0.214  0.00  0.00    +0.001 A 
ATOM     16  C   UNL     1       0.158   6.307  -0.100  0.00  0.00    +0.008 A 
ATOM     17  C   UNL     1      -1.026   5.561   0.027  0.00  0.00    -0.017 A 
ATOM     18  C   UNL     1      -0.961   4.147   0.036  0.00  0.00    -0.009 A 
ATOM     19  C   UNL     1      -2.138   3.400   0.161  0.00  0.00    +0.009 A 
ATOM     20  C   UNL     1      -3.335   4.043   0.273  0.00  0.00    +0.001 A 
ATOM     21  C   UNL     1      -3.403   5.435   0.265  0.00  0.00    +0.001 A 
ATOM     22  C   UNL     1      -2.277   6.191   0.145  0.00  0.00    +0.008 A 
ENDBRANCH  12  13
ENDBRANCH   6  11
BRANCH   1  23
ATOM     23  S   UNL     1      -3.580  -4.300  -0.048  0.00  0.00    -0.075 S 
BRANCH  23  24
ATOM     24  C   UNL     1      -5.366  -4.001  -0.042  0.00  0.00    +0.173 C 
BRANCH  24  26
ATOM     25  N   UNL     1      -7.443  -5.343  -0.030  0.00  0.00    -0.285 N 
ATOM     26  C   UNL     1      -6.096  -5.319  -0.035  0.00  0.00    +0.227 C 
ATOM     27  O   UNL     1      -5.471  -6.358  -0.034  0.00  0.00    -0.275 OA
ATOM     28  H   UNL     1      -8.010  -4.404   0.061  0.00  0.00    +0.155 HD
BRANCH  25  35
ATOM     29  C   UNL     1     -10.075  -5.517   1.036  0.00  0.00    +0.046 C 
ATOM     30  C   UNL     1      -9.408  -6.691   0.366  0.00  0.00    -0.028 A 
ATOM     31  C   UNL     1     -10.078  -7.893   0.250  0.00  0.00    +0.025 A 
ATOM     32  C   UNL     1      -9.463  -8.973  -0.360  0.00  0.00    +0.041 A 
ATOM     33  C   UNL     1      -8.179  -8.849  -0.861  0.00  0.00    +0.022 A 
ATOM     34  C   UNL     1      -7.508  -7.647  -0.753  0.00  0.00    +0.025 A 
ATOM     35  C   UNL     1      -8.122  -6.562  -0.141  0.00  0.00    +0.036 A 
ATOM     36 CL   UNL     1     -10.305 -10.485  -0.497  0.00  0.00    -0.084 Cl
ENDBRANCH  25  35
ENDBRANCH  24  26
ENDBRANCH  23  24
ENDBRANCH   1  23
TORSDOF 7
