REMARK  Name = ZINC09611196
REMARK  7 active torsions:
REMARK  status: ('A' for Active; 'I' for Inactive)
REMARK    1  A    between atoms: C_1  and  C_2
REMARK    2  A    between atoms: C_11  and  C_13
REMARK    3  A    between atoms: N_15  and  C_16
REMARK    4  A    between atoms: C_16  and  C_17
REMARK    5  A    between atoms: C_17  and  C_18
REMARK    6  A    between atoms: C_21  and  S_24
REMARK    7  A    between atoms: S_24  and  N_27
REMARK                            x       y       z     vdW  Elec       q    Type
REMARK                         _______ _______ _______ _____ _____    ______ ____
ROOT
ATOM      1  C   UNL     1      -0.268   1.258  -2.409  0.00  0.00    +0.251 C 
ATOM      2  O   UNL     1       0.730   0.573  -2.534  0.00  0.00    -0.270 OA
ATOM      3  N   UNL     1      -0.721   1.571  -1.179  0.00  0.00    -0.311 N 
ATOM      4  H   UNL     1      -1.516   2.118  -1.079  0.00  0.00    +0.149 HD
ENDROOT
BRANCH   1  15
ATOM      5  C   UNL     1      -6.644   5.639  -6.230  0.00  0.00    +0.044 C 
ATOM      6  C   UNL     1      -5.475   4.835  -6.737  0.00  0.00    -0.050 A 
ATOM      7  C   UNL     1      -5.273   4.694  -8.101  0.00  0.00    +0.007 A 
ATOM      8  C   UNL     1      -4.207   3.960  -8.580  0.00  0.00    +0.047 A 
ATOM      9  C   UNL     1      -3.325   3.354  -7.696  0.00  0.00    +0.140 A 
ATOM     10  C   UNL     1      -3.528   3.495  -6.312  0.00  0.00    +0.032 A 
ATOM     11  C   UNL     1      -4.612   4.241  -5.843  0.00  0.00    +0.016 A 
ATOM     12  C   UNL     1      -2.594   2.853  -5.395  0.00  0.00    +0.038 A 
ATOM     13  C   UNL     1      -1.507   2.106  -5.887  0.00  0.00    +0.075 A 
ATOM     14  C   UNL     1      -0.675   1.542  -4.913  0.00  0.00    +0.036 A 
ATOM     15  C   UNL     1      -0.978   1.744  -3.598  0.00  0.00    +0.075 A 
ATOM     16  S   UNL     1      -2.446   2.753  -3.683  0.00  0.00    -0.083 S 
ATOM     17  C   UNL     1      -1.394   2.027  -7.361  0.00  0.00    +0.346 A 
ATOM     18  O   UNL     1      -0.479   1.398  -7.857  0.00  0.00    -0.244 OA
ATOM     19  O   UNL     1      -2.280   2.636  -8.158  0.00  0.00    -0.422 OA
ENDBRANCH   1  15
BRANCH   3  20
ATOM     20  C   UNL     1      -0.013   1.086   0.008  0.00  0.00    +0.109 C 
BRANCH  20  21
ATOM     21  C   UNL     1      -0.729   1.579   1.267  0.00  0.00    +0.054 C 
BRANCH  21  22
ATOM     22  C   UNL     1       0.000   1.080   2.488  0.00  0.00    -0.046 A 
ATOM     23  C   UNL     1      -0.347  -0.133   3.052  0.00  0.00    +0.005 A 
ATOM     24  C   UNL     1       0.324  -0.593   4.170  0.00  0.00    +0.029 A 
ATOM     25  C   UNL     1       1.337   0.164   4.728  0.00  0.00    +0.105 A 
ATOM     26  C   UNL     1       1.681   1.380   4.166  0.00  0.00    +0.029 A 
ATOM     27  C   UNL     1       1.012   1.838   3.046  0.00  0.00    +0.005 A 
BRANCH  25  28
ATOM     28  S   UNL     1       2.190  -0.420   6.154  0.00  0.00    +0.056 S 
ATOM     29  O   UNL     1       2.048  -1.834   6.162  0.00  0.00    -0.153 OA
ATOM     30  O   UNL     1       3.459   0.218   6.158  0.00  0.00    -0.153 OA
BRANCH  28  31
ATOM     31  N   UNL     1       1.372   0.145   7.479  0.00  0.00    -0.204 NA
ATOM     32  H   UNL     1       0.579   0.690   7.363  0.00  0.00    +0.144 HD
ATOM     33  H   UNL     1       1.687  -0.070   8.371  0.00  0.00    +0.144 HD
ENDBRANCH  28  31
ENDBRANCH  25  28
ENDBRANCH  21  22
ENDBRANCH  20  21
ENDBRANCH   3  20
TORSDOF 6
