REMARK  Name = ZINC39633170
REMARK  7 active torsions:
REMARK  status: ('A' for Active; 'I' for Inactive)
REMARK    1  A    between atoms: C_4  and  C_7
REMARK    2  A    between atoms: C_7  and  O_8
REMARK    3  A    between atoms: O_8  and  C_9
REMARK    4  A    between atoms: C_14  and  C_17
REMARK    5  A    between atoms: C_21  and  C_30
REMARK    6  A    between atoms: N_32  and  C_33
REMARK    7  A    between atoms: C_33  and  C_34
REMARK                            x       y       z     vdW  Elec       q    Type
REMARK                         _______ _______ _______ _____ _____    ______ ____
ROOT
ATOM      1  C   UNL     1       8.071  -0.639   6.013  0.00  0.00    +0.219 C 
ATOM      2  O   UNL     1       7.769   0.498   6.308  0.00  0.00    -0.275 OA
ATOM      3  N   UNL     1       9.193  -1.191   6.516  0.00  0.00    -0.300 N 
ATOM      4  C   UNL     1       9.782  -2.511   6.187  0.00  0.00    +0.121 C 
ATOM      5  C   UNL     1      11.306  -2.260   6.153  0.00  0.00    +0.100 C 
ATOM      6  C   UNL     1      11.519  -1.016   7.033  0.00  0.00    -0.004 C 
ATOM      7  C   UNL     1      10.119  -0.613   7.518  0.00  0.00    +0.115 C 
ATOM      8  C   UNL     1      12.132   0.114   6.211  0.00  0.00    -0.010 C 
ATOM      9  C   UNL     1      12.386   1.319   7.120  0.00  0.00    -0.082 C 
ATOM     10  N   UNL     1      13.293   0.931   8.207  0.00  0.00    +0.379 N 
ATOM     11  C   UNL     1      12.658  -0.091   9.048  0.00  0.00    -0.082 C 
ATOM     12  C   UNL     1      12.414  -1.356   8.220  0.00  0.00    -0.010 C 
ATOM     13  H   UNL     1      14.146   0.561   7.816  0.00  0.00    -0.086 HD
ATOM     14  H   UNL     1      13.508   1.741   8.770  0.00  0.00    -0.086 HD
ENDROOT
BRANCH   1  20
ATOM     15  C   UNL     1       4.413  -1.331   2.059  0.00  0.00    +0.403 C 
ATOM     16  O   UNL     1       4.795  -1.188   0.915  0.00  0.00    -0.226 OA
ATOM     17  N   UNL     1       5.280  -1.715   3.017  0.00  0.00    -0.267 N 
ATOM     18  C   UNL     1       4.832  -1.899   4.404  0.00  0.00    +0.112 C 
ATOM     19  C   UNL     1       5.726  -1.063   5.325  0.00  0.00    +0.032 C 
ATOM     20  C   UNL     1       7.191  -1.435   5.084  0.00  0.00    +0.078 C 
ATOM     21  C   UNL     1       7.566  -1.122   3.634  0.00  0.00    +0.032 C 
ATOM     22  C   UNL     1       6.692  -1.964   2.692  0.00  0.00    +0.112 C 
BRANCH  15  23
ATOM     23  O   UNL     1       3.123  -1.107   2.372  0.00  0.00    -0.445 OA
BRANCH  23  24
ATOM     24  C   UNL     1       2.259  -0.702   1.307  0.00  0.00    +0.269 C 
BRANCH  24  28
ATOM     25  C   UNL     1      -1.694  -0.125   2.820  0.00  0.00    +0.000 A 
ATOM     26  C   UNL     1      -0.799   0.928   2.805  0.00  0.00    +0.000 A 
ATOM     27  C   UNL     1       0.480   0.741   2.316  0.00  0.00    +0.007 A 
ATOM     28  C   UNL     1       0.864  -0.499   1.842  0.00  0.00    -0.010 A 
ATOM     29  C   UNL     1      -0.030  -1.553   1.858  0.00  0.00    +0.007 A 
ATOM     30  C   UNL     1      -1.310  -1.365   2.346  0.00  0.00    +0.000 A 
ENDBRANCH  24  28
ENDBRANCH  23  24
ENDBRANCH  15  23
ENDBRANCH   1  20
BRANCH   5  31
ATOM     31  C   UNL     1      12.046  -3.442   6.724  0.00  0.00    +0.219 C 
ATOM     32  O   UNL     1      11.498  -4.171   7.524  0.00  0.00    -0.275 OA
ATOM     33  N   UNL     1      13.316  -3.689   6.346  0.00  0.00    -0.309 N 
ATOM     34  H   UNL     1      13.753  -3.107   5.706  0.00  0.00    +0.149 HD
BRANCH  33  35
ATOM     35  C   UNL     1      14.034  -4.839   6.901  0.00  0.00    +0.159 C 
BRANCH  35  36
ATOM     36  C   UNL     1      15.424  -4.891   6.319  0.00  0.00    +0.058 A 
ATOM     37  C   UNL     1      16.476  -4.321   7.012  0.00  0.00    +0.025 A 
ATOM     38  C   UNL     1      17.750  -4.374   6.469  0.00  0.00    +0.003 A 
ATOM     39  C   UNL     1      17.919  -5.001   5.244  0.00  0.00    +0.020 A 
ATOM     40  C   UNL     1      16.820  -5.548   4.609  0.00  0.00    +0.111 A 
ATOM     41  N   UNL     1      15.623  -5.483   5.159  0.00  0.00    -0.258 NA
ENDBRANCH  35  36
ENDBRANCH  33  35
ENDBRANCH   5  31
TORSDOF 7
