REMARK  Name = ZINC55594167
REMARK  7 active torsions:
REMARK  status: ('A' for Active; 'I' for Inactive)
REMARK    1  A    between atoms: C_1  and  C_2
REMARK    2  A    between atoms: C_2  and  C_3
REMARK    3  A    between atoms: C_6  and  S_8
REMARK    4  A    between atoms: S_8  and  N_11
REMARK    5  A    between atoms: N_11  and  C_12
REMARK    6  A    between atoms: C_16  and  C_18
REMARK    7  A    between atoms: C_18  and  C_25
REMARK                            x       y       z     vdW  Elec       q    Type
REMARK                         _______ _______ _______ _____ _____    ______ ____
ROOT
ATOM      1  C   UNL     1       1.759  -4.242  -6.522  0.00  0.00    +0.075 A 
ATOM      2  C   UNL     1       2.057  -3.567  -7.699  0.00  0.00    +0.027 A 
ATOM      3  C   UNL     1       2.200  -4.271  -8.879  0.00  0.00    +0.002 A 
ATOM      4  C   UNL     1       2.046  -5.645  -8.890  0.00  0.00    +0.006 A 
ATOM      5  C   UNL     1       1.749  -6.319  -7.720  0.00  0.00    -0.014 A 
ATOM      6  C   UNL     1       1.611  -5.623  -6.535  0.00  0.00    +0.033 A 
ENDROOT
BRANCH   5   7
ATOM      7  C   UNL     1       1.581  -7.817  -7.736  0.00  0.00    +0.135 C 
ATOM      8  C   UNL     1       2.680  -8.485  -6.933  0.00  0.00    +0.248 C 
ATOM      9  O   UNL     1       2.909  -8.349  -5.750  0.00  0.00    -0.273 OA
ATOM     10  N   UNL     1       3.348  -9.263  -7.807  0.00  0.00    -0.238 N 
ATOM     11  C   UNL     1       2.831  -9.180  -9.038  0.00  0.00    +0.307 C 
ATOM     12  O   UNL     1       3.263  -9.791  -9.996  0.00  0.00    -0.252 OA
ATOM     13  N   UNL     1       1.777  -8.345  -9.097  0.00  0.00    -0.282 N 
ATOM     14  C   UNL     1       0.203  -8.209  -7.200  0.00  0.00    +0.047 C 
ATOM     15  H   UNL     1       4.111  -9.815  -7.573  0.00  0.00    +0.159 HD
ATOM     16  H   UNL     1       1.249  -8.133  -9.883  0.00  0.00    +0.152 HD
ENDBRANCH   5   7
BRANCH   1  17
ATOM     17  N   UNL     1       1.614  -3.534  -5.327  0.00  0.00    -0.097 NA
BRANCH  17  18
ATOM     18  S   UNL     1       1.791  -1.887  -5.313  0.00  0.00    +0.098 S 
ATOM     19  O   UNL     1       0.717  -1.357  -6.078  0.00  0.00    -0.148 OA
ATOM     20  O   UNL     1       3.152  -1.622  -5.626  0.00  0.00    -0.148 OA
BRANCH  18  24
ATOM     21  C   UNL     1       0.707  -0.490  -1.238  0.00  0.00    -0.009 A 
ATOM     22  C   UNL     1       2.023  -0.761  -1.421  0.00  0.00    +0.013 A 
ATOM     23  C   UNL     1       2.451  -1.202  -2.659  0.00  0.00    +0.037 A 
ATOM     24  C   UNL     1       1.542  -1.350  -3.654  0.00  0.00    +0.148 A 
ATOM     25  S   UNL     1       0.026  -0.866  -2.845  0.00  0.00    -0.073 S 
BRANCH  21  27
ATOM     26  C   UNL     1      -0.019   1.526   0.010  0.00  0.00    +0.009 C 
ATOM     27  C   UNL     1       0.002  -0.004   0.002  0.00  0.00    +0.039 C 
ENDBRANCH  21  27
ENDBRANCH  18  24
ENDBRANCH  17  18
ENDBRANCH   1  17
TORSDOF 5
