REMARK  Name = ZINC66614248
REMARK  10 active torsions:
REMARK  status: ('A' for Active; 'I' for Inactive)
REMARK    1  A    between atoms: C_1  and  C_2
REMARK    2  A    between atoms: N_7  and  C_9
REMARK    3  A    between atoms: C_9  and  C_10
REMARK    4  A    between atoms: C_10  and  C_11
REMARK    5  A    between atoms: C_11  and  N_12
REMARK    6  A    between atoms: C_13  and  C_15
REMARK    7  A    between atoms: C_15  and  C_16
REMARK    8  A    between atoms: C_16  and  C_18
REMARK    9  A    between atoms: C_16  and  N_19
REMARK   10  A    between atoms: C_20  and  C_22
REMARK                            x       y       z     vdW  Elec       q    Type
REMARK                         _______ _______ _______ _____ _____    ______ ____
ROOT
ATOM      1  N   UNL     1       2.604  -5.942   3.440  0.00  0.00    -0.315 N 
ATOM      2  C   UNL     1       3.280  -6.608   4.397  0.00  0.00    +0.215 C 
ATOM      3  O   UNL     1       3.782  -6.000   5.319  0.00  0.00    -0.276 OA
ATOM      4  H   UNL     1       2.203  -6.428   2.703  0.00  0.00    +0.149 HD
ENDROOT
BRANCH   1   5
ATOM      5  C   UNL     1       2.475  -4.485   3.513  0.00  0.00    +0.102 C 
BRANCH   5   6
ATOM      6  C   UNL     1       1.668  -3.983   2.314  0.00  0.00    +0.000 C 
BRANCH   6   7
ATOM      7  C   UNL     1       1.534  -2.461   2.390  0.00  0.00    -0.077 C 
BRANCH   7  13
ATOM      8  C   UNL     1      -0.019   1.526   0.010  0.00  0.00    +0.005 C 
ATOM      9  C   UNL     1       0.002  -0.004   0.002  0.00  0.00    -0.031 C 
ATOM     10  C   UNL     1      -1.434  -0.535   0.015  0.00  0.00    -0.001 C 
ATOM     11  C   UNL     1      -1.402  -2.064   0.086  0.00  0.00    -0.018 C 
ATOM     12  C   UNL     1      -0.613  -2.496   1.324  0.00  0.00    -0.079 C 
ATOM     13  N   UNL     1       0.758  -1.980   1.239  0.00  0.00    +0.380 N 
ATOM     14  C   UNL     1       0.740  -0.512   1.242  0.00  0.00    -0.076 C 
ATOM     15  H   UNL     1       1.188  -2.307   0.386  0.00  0.00    -0.082 HD
ENDBRANCH   7  13
ENDBRANCH   6   7
ENDBRANCH   5   6
ENDBRANCH   1   5
BRANCH   2  16
ATOM     16  C   UNL     1       3.413  -8.107   4.322  0.00  0.00    +0.117 C 
BRANCH  16  17
ATOM     17  C   UNL     1       4.220  -8.608   5.521  0.00  0.00    +0.079 C 
ATOM     18  C   UNL     1       4.249 -10.138   5.513  0.00  0.00    +0.028 C 
BRANCH  17  19
ATOM     19  N   UNL     1       5.589  -8.094   5.438  0.00  0.00    -0.312 N 
ATOM     20  C   UNL     1       6.327  -7.957   6.557  0.00  0.00    +0.216 C 
ATOM     21  O   UNL     1       5.857  -8.261   7.633  0.00  0.00    -0.276 OA
ATOM     22  H   UNL     1       5.964  -7.851   4.577  0.00  0.00    +0.149 HD
BRANCH  20  23
ATOM     23  C   UNL     1       7.735  -7.428   6.471  0.00  0.00    +0.075 C 
ATOM     24  C   UNL     1       8.574  -8.351   5.586  0.00  0.00    +0.013 C 
ATOM     25  C   UNL     1      10.004  -7.814   5.499  0.00  0.00    +0.001 C 
ATOM     26  C   UNL     1      10.614  -7.759   6.901  0.00  0.00    +0.000 C 
ATOM     27  C   UNL     1       9.775  -6.835   7.786  0.00  0.00    +0.001 C 
ATOM     28  C   UNL     1       8.345  -7.373   7.873  0.00  0.00    +0.013 C 
ENDBRANCH  20  23
ENDBRANCH  17  19
ENDBRANCH  16  17
ENDBRANCH   2  16
TORSDOF 8
