REMARK  Name = ZINC03587002
REMARK  11 active torsions:
REMARK  status: ('A' for Active; 'I' for Inactive)
REMARK    1  A    between atoms: C_1  and  C_2
REMARK    2  A    between atoms: C_2  and  N_3
REMARK    3  A    between atoms: C_6  and  C_19
REMARK    4  A    between atoms: C_7  and  N_18
REMARK    5  A    between atoms: N_8  and  C_11
REMARK    6  A    between atoms: C_11  and  C_12
REMARK    7  A    between atoms: C_19  and  C_21
REMARK    8  A    between atoms: C_21  and  N_22
REMARK    9  A    between atoms: N_22  and  C_23
REMARK   10  A    between atoms: N_22  and  C_24
REMARK   11  A    between atoms: C_24  and  C_25
REMARK                            x       y       z     vdW  Elec       q    Type
REMARK                         _______ _______ _______ _____ _____    ______ ____
ROOT
ATOM      1  N   UNL     1       2.873  -0.593  -3.282  0.00  0.00    -0.260 N 
ATOM      2  C   UNL     1       3.633   0.260  -3.999  0.00  0.00    +0.269 A 
ATOM      3  O   UNL     1       3.953  -0.004  -5.143  0.00  0.00    -0.267 OA
ATOM      4  C   UNL     1       4.065   1.515  -3.370  0.00  0.00    +0.118 A 
ATOM      5  C   UNL     1       3.661   1.760  -2.046  0.00  0.00    +0.116 A 
ATOM      6  N   UNL     1       2.891   0.829  -1.408  0.00  0.00    -0.277 N 
ATOM      7  C   UNL     1       2.522  -0.308  -2.018  0.00  0.00    +0.334 A 
ATOM      8  O   UNL     1       1.841  -1.107  -1.405  0.00  0.00    -0.246 OA
ENDROOT
BRANCH   5   9
ATOM      9  N   UNL     1       4.031   2.904  -1.411  0.00  0.00    -0.344 N 
ATOM     10  H   UNL     1       3.710   3.087  -0.374  0.00  0.00    +0.144 HD
ATOM     11  H   UNL     1       4.651   3.647  -1.933  0.00  0.00    +0.144 HD
ENDBRANCH   5   9
BRANCH   1  13
ATOM     12  C   UNL     1       3.467  -2.942  -3.617  0.00  0.00    +0.027 C 
ATOM     13  C   UNL     1       2.430  -1.851  -3.889  0.00  0.00    +0.126 C 
ENDBRANCH   1  13
BRANCH   4  14
ATOM     14  C   UNL     1       4.861   2.445  -4.072  0.00  0.00    +0.155 C 
ATOM     15  O   UNL     1       5.297   3.425  -3.501  0.00  0.00    -0.294 OA
BRANCH  14  16
ATOM     16  C   UNL     1       5.170   2.223  -5.530  0.00  0.00    +0.003 C 
BRANCH  16  17
ATOM     17  N   UNL     1       6.009   3.323  -6.026  0.00  0.00    +0.385 N 
ATOM     18  C   UNL     1       5.271   4.593  -6.015  0.00  0.00    -0.095 C 
ATOM     19  H   UNL     1       6.868   3.425  -5.347  0.00  0.00    -0.081 HD
BRANCH  17  20
ATOM     20  C   UNL     1       6.526   3.026  -7.369  0.00  0.00    -0.038 C 
BRANCH  20  21
ATOM     21  C   UNL     1       7.568   4.049  -7.742  0.00  0.00    -0.010 A 
ATOM     22  C   UNL     1       8.899   3.827  -7.433  0.00  0.00    +0.126 A 
ATOM     23  C   UNL     1       9.855   4.767  -7.777  0.00  0.00    +0.038 A 
ATOM     24  C   UNL     1       9.481   5.927  -8.429  0.00  0.00    +0.004 A 
ATOM     25  C   UNL     1       8.152   6.149  -8.738  0.00  0.00    +0.020 A 
ATOM     26  C   UNL     1       7.196   5.207  -8.400  0.00  0.00    +0.045 A 
ATOM     27 CL   UNL     1       5.528   5.484  -8.795  0.00  0.00    -0.083 Cl
ATOM     28  F   UNL     1       9.264   2.693  -6.795  0.00  0.00    -0.205 F 
ENDBRANCH  20  21
ENDBRANCH  17  20
ENDBRANCH  16  17
ENDBRANCH  14  16
ENDBRANCH   4  14
BRANCH   6  29
ATOM     29  C   UNL     1       2.465   1.075  -0.028  0.00  0.00    +0.163 C 
BRANCH  29  30
ATOM     30  C   UNL     1       1.145   1.802  -0.032  0.00  0.00    -0.028 A 
ATOM     31  C   UNL     1      -0.038   1.088  -0.025  0.00  0.00    +0.005 A 
ATOM     32  C   UNL     1      -1.248   1.755  -0.034  0.00  0.00    +0.000 A 
ATOM     33  C   UNL     1      -1.276   3.137  -0.040  0.00  0.00    +0.000 A 
ATOM     34  C   UNL     1      -0.092   3.852  -0.045  0.00  0.00    +0.000 A 
ATOM     35  C   UNL     1       1.118   3.184  -0.041  0.00  0.00    +0.005 A 
ENDBRANCH  29  30
ENDBRANCH   6  29
TORSDOF 9
