REMARK  Name = ZINC64137686
REMARK  7 active torsions:
REMARK  status: ('A' for Active; 'I' for Inactive)
REMARK    1  A    between atoms: C_1  and  C_2
REMARK    2  A    between atoms: C_2  and  C_4
REMARK    3  A    between atoms: C_2  and  S_17
REMARK    4  A    between atoms: C_4  and  C_6
REMARK    5  A    between atoms: S_17  and  C_18
REMARK    6  A    between atoms: C_22  and  C_27
REMARK    7  A    between atoms: N_23  and  C_24
REMARK                            x       y       z     vdW  Elec       q    Type
REMARK                         _______ _______ _______ _____ _____    ______ ____
ROOT
ATOM      1  C   UNL     1      -2.284  -0.111   1.583  0.00  0.00    +0.237 C 
ATOM      2  N   UNL     1      -2.040   1.341   1.618  0.00  0.00    -0.237 N 
ATOM      3  N   UNL     1      -1.366   1.602   2.816  0.00  0.00    -0.169 NA
ATOM      4  C   UNL     1      -1.173   0.506   3.501  0.00  0.00    +0.147 C 
ATOM      5  N   UNL     1      -1.699  -0.610   2.838  0.00  0.00    -0.282 N 
ATOM      6  H   UNL     1      -2.296   1.988   0.943  0.00  0.00    +0.171 HD
ENDROOT
BRANCH   4   7
ATOM      7  C   UNL     1      -0.523   0.454   4.744  0.00  0.00    +0.022 C 
ATOM      8  C   UNL     1      -0.067   1.532   5.503  0.00  0.00    +0.006 A 
ATOM      9  C   UNL     1      -0.102   2.927   5.295  0.00  0.00    +0.010 A 
ATOM     10  C   UNL     1       0.430   3.760   6.226  0.00  0.00    +0.001 A 
ATOM     11  C   UNL     1       1.018   3.272   7.394  0.00  0.00    +0.002 A 
ATOM     12  C   UNL     1       1.087   1.944   7.659  0.00  0.00    +0.026 A 
ATOM     13  C   UNL     1       0.552   1.011   6.733  0.00  0.00    +0.043 A 
ATOM     14  N   UNL     1       0.494  -0.306   6.757  0.00  0.00    -0.380 N 
ATOM     15  C   UNL     1      -0.177  -0.783   5.543  0.00  0.00    +0.152 C 
ATOM     16  H   UNL     1       0.837  -0.870   7.467  0.00  0.00    +0.160 HD
ENDBRANCH   4   7
BRANCH   5  17
ATOM     17  C   UNL     1      -1.673  -2.000   3.301  0.00  0.00    +0.078 C 
ATOM     18  C   UNL     1      -2.236  -3.068   2.361  0.00  0.00    +0.024 C 
ATOM     19  C   UNL     1      -3.014  -2.665   3.615  0.00  0.00    +0.024 C 
ENDBRANCH   5  17
BRANCH   1  20
ATOM     20  S   UNL     1      -1.454  -0.860   0.155  0.00  0.00    -0.107 S 
BRANCH  20  22
ATOM     21  C   UNL     1       0.429   1.122   0.247  0.00  0.00    +0.027 C 
ATOM     22  C   UNL     1       0.287  -0.397   0.367  0.00  0.00    +0.118 C 
BRANCH  22  23
ATOM     23  C   UNL     1       1.118  -1.064  -0.699  0.00  0.00    +0.176 C 
ATOM     24  O   UNL     1       0.608  -1.389  -1.750  0.00  0.00    -0.291 OA
BRANCH  23  25
ATOM     25  C   UNL     1       2.545  -1.320  -0.465  0.00  0.00    +0.020 A 
ATOM     26  C   UNL     1       3.134  -0.950   0.751  0.00  0.00    +0.015 A 
ATOM     27  C   UNL     1       4.473  -1.191   0.970  0.00  0.00    +0.048 A 
ATOM     28  C   UNL     1       5.241  -1.801  -0.011  0.00  0.00    +0.142 A 
ATOM     29  C   UNL     1       4.660  -2.173  -1.227  0.00  0.00    +0.076 A 
ATOM     30  C   UNL     1       3.319  -1.940  -1.454  0.00  0.00    +0.038 A 
ATOM     31  N   UNL     1       5.455  -2.787  -2.206  0.00  0.00    -0.280 N 
ATOM     32  C   UNL     1       6.657  -3.290  -1.852  0.00  0.00    +0.255 C 
ATOM     33  O   UNL     1       7.375  -3.799  -2.687  0.00  0.00    -0.272 OA
ATOM     34  C   UNL     1       7.105  -3.214  -0.414  0.00  0.00    +0.325 C 
ATOM     35  O   UNL     1       6.561  -2.042   0.198  0.00  0.00    -0.481 OA
ATOM     36  H   UNL     1       5.145  -2.850  -3.123  0.00  0.00    +0.155 HD
ENDBRANCH  23  25
ENDBRANCH  22  23
ENDBRANCH  20  22
ENDBRANCH   1  20
TORSDOF 6
