REMARK  Name = ZINC20115183
REMARK  12 active torsions:
REMARK  status: ('A' for Active; 'I' for Inactive)
REMARK    1  A    between atoms: C_1  and  C_2
REMARK    2  A    between atoms: C_2  and  C_3
REMARK    3  A    between atoms: C_3  and  C_5
REMARK    4  A    between atoms: C_3  and  C_6
REMARK    5  A    between atoms: C_11  and  O_12
REMARK    6  A    between atoms: O_12  and  C_13
REMARK    7  A    between atoms: C_13  and  C_14
REMARK    8  A    between atoms: N_16  and  N_17
REMARK    9  A    between atoms: C_18  and  C_19
REMARK   10  A    between atoms: C_18  and  C_20
REMARK   11  A    between atoms: C_22  and  O_27
REMARK   12  A    between atoms: C_25  and  O_26
REMARK                            x       y       z     vdW  Elec       q    Type
REMARK                         _______ _______ _______ _____ _____    ______ ____
ROOT
ATOM      1  C   UNL     1       5.597  -1.479  -1.657  0.00  0.00    +0.270 C 
ATOM      2  O   UNL     1       5.339  -0.294  -1.706  0.00  0.00    -0.270 OA
ATOM      3  N   UNL     1       6.880  -1.887  -1.597  0.00  0.00    -0.204 N 
ATOM      4  H   UNL     1       7.085  -2.835  -1.558  0.00  0.00    +0.177 HD
ENDROOT
BRANCH   3   5
ATOM      5  N   UNL     1       7.916  -0.945  -1.591  0.00  0.00    -0.184 NA
ATOM      6  C   UNL     1       9.145  -1.332  -1.438  0.00  0.00    +0.067 C 
ATOM      7  C   UNL     1      10.245  -0.311  -1.304  0.00  0.00    +0.068 C 
BRANCH   6   8
ATOM      8  C   UNL     1       9.464  -2.770  -1.395  0.00  0.00    +0.042 A 
ATOM      9  C   UNL     1       9.269  -3.566  -2.526  0.00  0.00    +0.058 A 
ATOM     10  C   UNL     1       9.572  -4.915  -2.479  0.00  0.00    +0.118 A 
ATOM     11  C   UNL     1      10.068  -5.479  -1.311  0.00  0.00    +0.049 A 
ATOM     12  C   UNL     1      10.264  -4.697  -0.188  0.00  0.00    +0.049 A 
ATOM     13  C   UNL     1       9.971  -3.344  -0.222  0.00  0.00    +0.126 A 
BRANCH  13  14
ATOM     14  O   UNL     1      10.169  -2.576   0.881  0.00  0.00    -0.506 OA
ATOM     15  H   UNL     1       9.381  -2.467   1.431  0.00  0.00    +0.292 HD
ENDBRANCH  13  14
BRANCH  10  16
ATOM     16  O   UNL     1       9.382  -5.692  -3.579  0.00  0.00    -0.507 OA
ATOM     17  H   UNL     1      10.150  -5.741  -4.163  0.00  0.00    +0.292 HD
ENDBRANCH  10  16
ENDBRANCH   6   8
ENDBRANCH   3   5
BRANCH   1  18
ATOM     18  C   UNL     1       4.482  -2.493  -1.663  0.00  0.00    +0.326 C 
BRANCH  18  19
ATOM     19  O   UNL     1       3.224  -1.818  -1.732  0.00  0.00    -0.482 OA
BRANCH  19  25
ATOM     20  C   UNL     1       0.854  -2.005  -1.811  0.00  0.00    -0.003 A 
ATOM     21  C   UNL     1      -0.279  -2.795  -1.832  0.00  0.00    +0.007 A 
ATOM     22  C   UNL     1      -0.164  -4.172  -1.781  0.00  0.00    +0.001 A 
ATOM     23  C   UNL     1       1.085  -4.761  -1.710  0.00  0.00    +0.004 A 
ATOM     24  C   UNL     1       2.221  -3.975  -1.690  0.00  0.00    +0.046 A 
ATOM     25  C   UNL     1       2.108  -2.594  -1.746  0.00  0.00    +0.125 A 
BRANCH  20  26
ATOM     26  C   UNL     1       0.728  -0.504  -1.866  0.00  0.00    +0.019 C 
ATOM     27  C   UNL     1       0.012  -0.099  -3.156  0.00  0.00    +0.012 C 
BRANCH  26  29
ATOM     28  C   UNL     1      -0.102   1.514  -0.648  0.00  0.00    +0.004 C 
ATOM     29  C   UNL     1      -0.079  -0.016  -0.660  0.00  0.00    +0.004 C 
ENDBRANCH  26  29
ENDBRANCH  20  26
ENDBRANCH  19  25
ENDBRANCH  18  19
ENDBRANCH   1  18
TORSDOF 9
