REMARK  Name = ZINC16901914
REMARK  6 active torsions:
REMARK  status: ('A' for Active; 'I' for Inactive)
REMARK    1  A    between atoms: C_3  and  O_30
REMARK    2  A    between atoms: C_4  and  C_27
REMARK    3  A    between atoms: C_6  and  N_7
REMARK    4  A    between atoms: C_11  and  N_15
REMARK    5  A    between atoms: N_15  and  C_16
REMARK    6  A    between atoms: C_21  and  C_22
REMARK                            x       y       z     vdW  Elec       q    Type
REMARK                         _______ _______ _______ _____ _____    ______ ____
ROOT
ATOM      1  N   UNL     1      -1.205  -0.720   0.010  0.00  0.00    -0.209 N 
ATOM      2  C   UNL     1      -1.256  -2.054  -0.089  0.00  0.00    +0.228 C 
ATOM      3  O   UNL     1      -0.297  -2.788  -0.194  0.00  0.00    -0.275 OA
ATOM      4  C   UNL     1      -2.701  -2.501  -0.048  0.00  0.00    +0.128 C 
ATOM      5  C   UNL     1      -3.485  -1.180   0.094  0.00  0.00    +0.166 C 
ATOM      6  C   UNL     1      -2.399  -0.126   0.123  0.00  0.00    +0.247 C 
ATOM      7  O   UNL     1      -2.583   1.067   0.230  0.00  0.00    -0.273 OA
ENDROOT
BRANCH   1  13
ATOM      8  C   UNL     1       0.774   0.040  -1.154  0.00  0.00    +0.027 A 
ATOM      9  C   UNL     1       1.962   0.742  -1.173  0.00  0.00    +0.048 A 
ATOM     10  C   UNL     1       2.396   1.409  -0.037  0.00  0.00    +0.131 A 
ATOM     11  C   UNL     1       1.623   1.369   1.133  0.00  0.00    +0.106 A 
ATOM     12  C   UNL     1       0.420   0.656   1.143  0.00  0.00    +0.042 A 
ATOM     13  C   UNL     1       0.002  -0.004   0.002  0.00  0.00    +0.045 A 
BRANCH  11  14
ATOM     14  C   UNL     1       2.075   2.073   2.344  0.00  0.00    +0.390 C 
ATOM     15  O   UNL     1       1.398   2.036   3.362  0.00  0.00    -0.240 OA
ATOM     16  O   UNL     1       3.128   2.696   2.332  0.00  0.00    -0.240 OA
ENDBRANCH  11  14
BRANCH  10  17
ATOM     17  O   UNL     1       3.565   2.098  -0.057  0.00  0.00    -0.506 OA
ATOM     18  H   UNL     1       3.472   3.022  -0.323  0.00  0.00    +0.292 HD
ENDBRANCH  10  17
ENDBRANCH   1  13
BRANCH   5  19
ATOM     19  N   UNL     1      -4.375  -0.983  -1.053  0.00  0.00    -0.332 N 
ATOM     20  H   UNL     1      -4.171  -1.404  -1.903  0.00  0.00    +0.147 HD
BRANCH  19  21
ATOM     21  C   UNL     1      -5.516  -0.188  -0.923  0.00  0.00    +0.040 A 
ATOM     22  C   UNL     1      -5.806   0.420   0.292  0.00  0.00    +0.025 A 
ATOM     23  C   UNL     1      -6.935   1.205   0.418  0.00  0.00    +0.022 A 
ATOM     24  C   UNL     1      -7.778   1.386  -0.665  0.00  0.00    +0.042 A 
ATOM     25  C   UNL     1      -7.492   0.782  -1.876  0.00  0.00    +0.034 A 
ATOM     26  C   UNL     1      -6.361  -0.000  -2.009  0.00  0.00    +0.077 A 
ATOM     27 CL   UNL     1      -9.197   2.374  -0.503  0.00  0.00    -0.084 Cl
BRANCH  26  28
ATOM     28  C   UNL     1      -6.047  -0.653  -3.330  0.00  0.00    +0.419 C 
ATOM     29  F   UNL     1      -7.035  -0.319  -4.263  0.00  0.00    -0.166 F 
ATOM     30  F   UNL     1      -4.803  -0.205  -3.788  0.00  0.00    -0.166 F 
ATOM     31  F   UNL     1      -6.011  -2.042  -3.167  0.00  0.00    -0.166 F 
ENDBRANCH  26  28
ENDBRANCH  19  21
ENDBRANCH   5  19
TORSDOF 6
