REMARK  Name = ZINC12342140
REMARK  6 active torsions:
REMARK  status: ('A' for Active; 'I' for Inactive)
REMARK    1  A    between atoms: C_7  and  C_22
REMARK    2  A    between atoms: C_8  and  N_21
REMARK    3  A    between atoms: C_9  and  C_10
REMARK    4  A    between atoms: C_10  and  C_12
REMARK    5  A    between atoms: C_16  and  N_18
REMARK    6  A    between atoms: N_24  and  C_25
REMARK                            x       y       z     vdW  Elec       q    Type
REMARK                         _______ _______ _______ _____ _____    ______ ____
ROOT
ATOM      1  C   UNL     1      -5.166   0.619   0.285  0.00  0.00    +0.003 A 
ATOM      2  C   UNL     1      -4.184  -0.378   0.299  0.00  0.00    +0.018 A 
ATOM      3  C   UNL     1      -2.875  -0.046   0.209  0.00  0.00    +0.092 A 
ATOM      4  N   UNL     1      -2.492   1.257   0.103  0.00  0.00    -0.311 N 
ATOM      5  C   UNL     1      -3.430   2.248   0.086  0.00  0.00    +0.061 A 
ATOM      6  C   UNL     1      -4.791   1.928   0.178  0.00  0.00    +0.027 A 
ATOM      7  C   UNL     1      -2.763   3.489  -0.031  0.00  0.00    +0.083 A 
ATOM      8  C   UNL     1      -1.382   3.214  -0.080  0.00  0.00    +0.067 A 
ATOM      9  C   UNL     1      -1.233   1.831  -0.001  0.00  0.00    +0.116 A 
ENDROOT
BRANCH   7  10
ATOM     10  C   UNL     1      -3.388   4.810  -0.086  0.00  0.00    +0.252 C 
ATOM     11  O   UNL     1      -3.593   5.430   0.942  0.00  0.00    -0.270 OA
ATOM     12  N   UNL     1      -3.737   5.342  -1.274  0.00  0.00    -0.280 N 
ATOM     13  H   UNL     1      -3.634   4.822  -2.087  0.00  0.00    +0.155 HD
BRANCH  12  14
ATOM     14  C   UNL     1      -4.249   6.643  -1.336  0.00  0.00    +0.052 A 
ATOM     15  C   UNL     1      -5.050   7.125  -0.309  0.00  0.00    +0.026 A 
ATOM     16  C   UNL     1      -5.554   8.409  -0.372  0.00  0.00    +0.022 A 
ATOM     17  C   UNL     1      -5.260   9.217  -1.457  0.00  0.00    +0.042 A 
ATOM     18  C   UNL     1      -4.462   8.740  -2.482  0.00  0.00    +0.041 A 
ATOM     19  C   UNL     1      -3.951   7.458  -2.422  0.00  0.00    +0.064 A 
ATOM     20 CL   UNL     1      -2.944   6.862  -3.704  0.00  0.00    -0.082 Cl
ATOM     21 CL   UNL     1      -5.895  10.831  -1.532  0.00  0.00    -0.083 Cl
ENDBRANCH  12  14
ENDBRANCH   7  10
BRANCH   8  22
ATOM     22  N   UNL     1      -0.362   4.146  -0.189  0.00  0.00    -0.356 N 
ATOM     23  H   UNL     1       0.556   3.850  -0.290  0.00  0.00    +0.142 HD
ATOM     24  H   UNL     1      -0.566   5.093  -0.164  0.00  0.00    +0.142 HD
ENDBRANCH   8  22
BRANCH   9  25
ATOM     25  C   UNL     1      -0.010   1.133  -0.018  0.00  0.00    +0.212 C 
ATOM     26  O   UNL     1       0.510   0.841  -1.082  0.00  0.00    -0.285 OA
BRANCH  25  27
ATOM     27  C   UNL     1       0.647   0.761   1.254  0.00  0.00    +0.026 A 
ATOM     28  C   UNL     1       0.114   1.190   2.470  0.00  0.00    +0.012 A 
ATOM     29  C   UNL     1       0.729   0.835   3.653  0.00  0.00    +0.003 A 
ATOM     30  C   UNL     1       1.878   0.064   3.635  0.00  0.00    +0.033 A 
ATOM     31  C   UNL     1       2.415  -0.359   2.433  0.00  0.00    +0.127 A 
ATOM     32  C   UNL     1       1.806  -0.016   1.243  0.00  0.00    +0.044 A 
BRANCH  31  33
ATOM     33  N   UNL     1       3.644  -1.183   2.423  0.00  0.00    +0.056 N 
ATOM     34  O   UNL     1       4.119  -1.556   1.365  0.00  0.00    -0.126 OA
ATOM     35  O   UNL     1       4.182  -1.487   3.472  0.00  0.00    -0.126 OA
ENDBRANCH  31  33
ENDBRANCH  25  27
ENDBRANCH   9  25
TORSDOF 6
