REMARK  Name = ZINC05085950
REMARK  10 active torsions:
REMARK  status: ('A' for Active; 'I' for Inactive)
REMARK    1  A    between atoms: C_4  and  C_7
REMARK    2  A    between atoms: C_7  and  C_8
REMARK    3  A    between atoms: C_7  and  C_14
REMARK    4  A    between atoms: C_7  and  N_58
REMARK    5  A    between atoms: C_20  and  C_21
REMARK    6  A    between atoms: C_20  and  N_58
REMARK    7  A    between atoms: C_21  and  N_22
REMARK    8  A    between atoms: N_22  and  C_23
REMARK    9  A    between atoms: C_26  and  N_32
REMARK   10  A    between atoms: C_28  and  N_29
REMARK                            x       y       z     vdW  Elec       q    Type
REMARK                         _______ _______ _______ _____ _____    ______ ____
ROOT
ATOM      1  C   UNL     1       0.267   2.081   1.738  0.00  0.00    +0.010 C 
ENDROOT
BRANCH   1   5
ATOM      2  C   UNL     1       2.610   0.649   5.011  0.00  0.00    +0.000 A 
ATOM      3  C   UNL     1       1.290   0.260   4.883  0.00  0.00    +0.000 A 
ATOM      4  C   UNL     1       0.531   0.723   3.825  0.00  0.00    +0.003 A 
ATOM      5  C   UNL     1       1.093   1.576   2.893  0.00  0.00    -0.050 A 
ATOM      6  C   UNL     1       2.415   1.961   3.017  0.00  0.00    +0.003 A 
ATOM      7  C   UNL     1       3.172   1.502   4.079  0.00  0.00    +0.000 A 
ENDBRANCH   1   5
BRANCH   1   8
ATOM      8  C   UNL     1       1.109   2.101   0.489  0.00  0.00    -0.050 A 
ATOM      9  C   UNL     1       2.068   1.126   0.285  0.00  0.00    +0.003 A 
ATOM     10  C   UNL     1       2.837   1.142  -0.863  0.00  0.00    +0.000 A 
ATOM     11  C   UNL     1       2.655   2.139  -1.803  0.00  0.00    +0.000 A 
ATOM     12  C   UNL     1       1.700   3.117  -1.597  0.00  0.00    +0.000 A 
ATOM     13  C   UNL     1       0.927   3.098  -0.451  0.00  0.00    +0.003 A 
ENDBRANCH   1   8
BRANCH   1  14
ATOM     14  C   UNL     1      -0.218   3.475   2.040  0.00  0.00    -0.050 A 
ATOM     15  C   UNL     1       0.629   4.386   2.642  0.00  0.00    +0.003 A 
ATOM     16  C   UNL     1       0.185   5.667   2.914  0.00  0.00    +0.000 A 
ATOM     17  C   UNL     1      -1.109   6.033   2.594  0.00  0.00    +0.000 A 
ATOM     18  C   UNL     1      -1.958   5.120   1.996  0.00  0.00    +0.000 A 
ATOM     19  C   UNL     1      -1.512   3.841   1.719  0.00  0.00    +0.003 A 
ENDBRANCH   1  14
BRANCH   1  20
ATOM     20  N   UNL     1      -0.897   1.196   1.538  0.00  0.00    +0.392 N 
ATOM     21  H   UNL     1      -1.508   1.599   0.819  0.00  0.00    -0.084 HD
ATOM     22  H   UNL     1      -1.415   1.114   2.421  0.00  0.00    -0.084 HD
BRANCH  20  23
ATOM     23  C   UNL     1      -0.454  -0.143   1.107  0.00  0.00    -0.062 C 
BRANCH  23  24
ATOM     24  C   UNL     1      -1.682  -1.020   0.857  0.00  0.00    +0.082 C 
BRANCH  24  25
ATOM     25  N   UNL     1      -1.251  -2.353   0.428  0.00  0.00    -0.344 N 
ATOM     26  H   UNL     1      -0.305  -2.554   0.345  0.00  0.00    +0.146 HD
BRANCH  25  27
ATOM     27  C   UNL     1      -2.201  -3.335   0.139  0.00  0.00    +0.058 A 
ATOM     28  C   UNL     1      -3.556  -3.032   0.197  0.00  0.00    +0.027 A 
ATOM     29  C   UNL     1      -4.492  -4.005  -0.089  0.00  0.00    +0.034 A 
ATOM     30  C   UNL     1      -4.083  -5.281  -0.434  0.00  0.00    +0.128 A 
ATOM     31  C   UNL     1      -2.736  -5.586  -0.493  0.00  0.00    +0.067 A 
ATOM     32  C   UNL     1      -1.794  -4.616  -0.213  0.00  0.00    +0.149 A 
BRANCH  32  33
ATOM     33  N   UNL     1      -0.351  -4.942  -0.282  0.00  0.00    +0.058 N 
ATOM     34  O   UNL     1       0.435  -4.130  -0.738  0.00  0.00    -0.126 OA
ATOM     35  O   UNL     1       0.049  -6.021   0.115  0.00  0.00    -0.126 OA
ENDBRANCH  32  33
BRANCH  30  36
ATOM     36  N   UNL     1      -5.090  -6.322  -0.741  0.00  0.00    +0.056 N 
ATOM     37  O   UNL     1      -6.277  -6.054  -0.690  0.00  0.00    -0.126 OA
ATOM     38  O   UNL     1      -4.732  -7.445  -1.045  0.00  0.00    -0.126 OA
ENDBRANCH  30  36
ENDBRANCH  25  27
ENDBRANCH  24  25
ENDBRANCH  23  24
ENDBRANCH  20  23
ENDBRANCH   1  20
TORSDOF 10
