REMARK  Name = ZINC15769489
REMARK  11 active torsions:
REMARK  status: ('A' for Active; 'I' for Inactive)
REMARK    1  A    between atoms: C_1  and  C_2
REMARK    2  A    between atoms: C_2  and  C_3
REMARK    3  A    between atoms: C_2  and  C_4
REMARK    4  A    between atoms: C_2  and  N_57
REMARK    5  A    between atoms: C_6  and  C_8
REMARK    6  A    between atoms: C_6  and  N_26
REMARK    7  A    between atoms: C_6  and  N_57
REMARK    8  A    between atoms: C_11  and  C_14
REMARK    9  A    between atoms: C_14  and  N_17
REMARK   10  A    between atoms: C_14  and  N_60
REMARK   11  A    between atoms: C_16  and  N_60
REMARK                            x       y       z     vdW  Elec       q    Type
REMARK                         _______ _______ _______ _____ _____    ______ ____
ROOT
ATOM      1  C   UNL     1      -2.427   4.069  -0.604  0.00  0.00    -0.040 A 
ATOM      2  C   UNL     1      -3.784   4.214  -0.824  0.00  0.00    +0.004 A 
ATOM      3  C   UNL     1      -4.234   4.973  -1.889  0.00  0.00    +0.004 A 
ATOM      4  C   UNL     1      -3.327   5.577  -2.739  0.00  0.00    -0.040 A 
ATOM      5  C   UNL     1      -1.970   5.427  -2.522  0.00  0.00    +0.004 A 
ATOM      6  C   UNL     1      -1.520   4.673  -1.455  0.00  0.00    +0.004 A 
ENDROOT
BRANCH   1   7
ATOM      7  C   UNL     1      -1.937   3.246   0.559  0.00  0.00    +0.086 C 
BRANCH   7   8
ATOM      8  N   UNL     1      -2.136   1.823   0.270  0.00  0.00    -0.254 N 
ATOM      9  C   UNL     1      -1.184   0.930  -0.160  0.00  0.00    +0.087 A 
ATOM     10  C   UNL     1       0.174   1.028  -0.446  0.00  0.00    +0.029 A 
ATOM     11  C   UNL     1       0.862  -0.078  -0.859  0.00  0.00    +0.002 A 
ATOM     12  C   UNL     1       0.218  -1.301  -0.998  0.00  0.00    +0.002 A 
ATOM     13  C   UNL     1      -1.113  -1.423  -0.725  0.00  0.00    +0.032 A 
ATOM     14  C   UNL     1      -1.842  -0.304  -0.299  0.00  0.00    +0.113 A 
ATOM     15  N   UNL     1      -3.134  -0.119   0.038  0.00  0.00    -0.130 NA
ATOM     16  N   UNL     1      -3.338   1.107   0.370  0.00  0.00    -0.066 NA
ENDBRANCH   7   8
BRANCH   7  17
ATOM     17  N   UNL     1      -2.699   3.612   1.768  0.00  0.00    +0.407 N 
ATOM     18  H   UNL     1      -3.054   4.571   1.667  0.00  0.00    -0.081 HD
ATOM     19  H   UNL     1      -3.488   2.965   1.880  0.00  0.00    -0.081 HD
BRANCH  17  21
ATOM     20  C   UNL     1      -1.236   2.135   3.075  0.00  0.00    +0.001 C 
ATOM     21  C   UNL     1      -1.834   3.538   2.961  0.00  0.00    +0.033 C 
ATOM     22  C   UNL     1      -0.707   4.565   2.843  0.00  0.00    +0.001 C 
BRANCH  21  23
ATOM     23  C   UNL     1      -2.658   3.834   4.187  0.00  0.00    +0.345 C 
ATOM     24  O   UNL     1      -2.421   3.265   5.226  0.00  0.00    -0.248 OA
ATOM     25  O   UNL     1      -3.655   4.731   4.125  0.00  0.00    -0.248 OA
ENDBRANCH  21  23
ENDBRANCH  17  21
ENDBRANCH   7  17
ENDBRANCH   1   7
BRANCH   4  26
ATOM     26  C   UNL     1      -3.817   6.399  -3.903  0.00  0.00    +0.084 C 
BRANCH  26  27
ATOM     27  N   UNL     1      -4.329   5.510  -4.948  0.00  0.00    -0.254 N 
ATOM     28  C   UNL     1      -3.709   5.191  -6.133  0.00  0.00    +0.087 A 
ATOM     29  C   UNL     1      -2.500   5.552  -6.719  0.00  0.00    +0.029 A 
ATOM     30  C   UNL     1      -2.161   5.049  -7.944  0.00  0.00    +0.002 A 
ATOM     31  C   UNL     1      -3.014   4.178  -8.610  0.00  0.00    +0.002 A 
ATOM     32  C   UNL     1      -4.202   3.802  -8.054  0.00  0.00    +0.032 A 
ATOM     33  C   UNL     1      -4.575   4.308  -6.801  0.00  0.00    +0.113 A 
ATOM     34  N   UNL     1      -5.662   4.135  -6.024  0.00  0.00    -0.130 NA
ATOM     35  N   UNL     1      -5.550   4.820  -4.940  0.00  0.00    -0.066 NA
ENDBRANCH  26  27
BRANCH  26  37
ATOM     36  C   UNL     1      -5.014   8.459  -4.338  0.00  0.00    -0.097 C 
ATOM     37  N   UNL     1      -4.898   7.292  -3.443  0.00  0.00    +0.395 N 
ATOM     38  H   UNL     1      -4.690   7.614  -2.491  0.00  0.00    -0.083 HD
ATOM     39  H   UNL     1      -5.786   6.776  -3.443  0.00  0.00    -0.083 HD
ENDBRANCH  26  37
ENDBRANCH   4  26
TORSDOF 8
