REMARK  Name = ZINC06545603
REMARK  7 active torsions:
REMARK  status: ('A' for Active; 'I' for Inactive)
REMARK    1  A    between atoms: C_1  and  C_2
REMARK    2  A    between atoms: C_3  and  C_18
REMARK    3  A    between atoms: C_4  and  C_15
REMARK    4  A    between atoms: C_5  and  C_14
REMARK    5  A    between atoms: N_6  and  C_7
REMARK    6  A    between atoms: C_7  and  C_8
REMARK    7  A    between atoms: C_8  and  C_9
REMARK                            x       y       z     vdW  Elec       q    Type
REMARK                         _______ _______ _______ _____ _____    ______ ____
ROOT
ATOM      1  C   UNL     1      -1.210  -0.899   0.008  0.00  0.00    +0.064 C 
ATOM      2  C   UNL     1       0.002  -0.004   0.002  0.00  0.00    +0.026 A 
ATOM      3  C   UNL     1      -0.016   1.355   0.009  0.00  0.00    +0.033 A 
ATOM      4  C   UNL     1       1.396   1.781  -0.002  0.00  0.00    +0.066 A 
ATOM      5  C   UNL     1       2.135   0.633  -0.015  0.00  0.00    +0.029 A 
ATOM      6  N   UNL     1       1.296  -0.422  -0.013  0.00  0.00    -0.346 N 
ATOM      7  C   UNL     1       3.640   0.558  -0.030  0.00  0.00    +0.064 C 
ENDROOT
BRANCH   3   8
ATOM      8  C   UNL     1      -1.210   2.230   0.020  0.00  0.00    +0.074 A 
ATOM      9  C   UNL     1      -1.040   3.625   0.027  0.00  0.00    +0.029 A 
ATOM     10  C   UNL     1      -2.131   4.441   0.036  0.00  0.00    +0.012 A 
ATOM     11  C   UNL     1      -3.410   3.847   0.039  0.00  0.00    +0.000 A 
ATOM     12  C   UNL     1      -4.575   4.630   0.048  0.00  0.00    +0.010 A 
ATOM     13  C   UNL     1      -5.794   4.023   0.050  0.00  0.00    +0.001 A 
ATOM     14  C   UNL     1      -5.901   2.634   0.042  0.00  0.00    +0.002 A 
ATOM     15  C   UNL     1      -4.793   1.845   0.033  0.00  0.00    +0.028 A 
ATOM     16  C   UNL     1      -3.516   2.434   0.032  0.00  0.00    +0.072 A 
ATOM     17  N   UNL     1      -2.412   1.682   0.018  0.00  0.00    -0.247 NA
ENDBRANCH   3   8
BRANCH   4  18
ATOM     18  C   UNL     1       1.904   3.162   0.001  0.00  0.00    +0.244 C 
ATOM     19  O   UNL     1       2.124   3.727   1.055  0.00  0.00    -0.270 OA
ATOM     20  N   UNL     1       2.126   3.800  -1.165  0.00  0.00    -0.325 N 
ATOM     21  H   UNL     1       1.950   3.349  -2.006  0.00  0.00    +0.145 HD
ATOM     22  H   UNL     1       2.461   4.710  -1.163  0.00  0.00    +0.145 HD
ENDBRANCH   4  18
BRANCH   6  23
ATOM     23  C   UNL     1       1.720  -1.824  -0.024  0.00  0.00    +0.127 C 
BRANCH  23  24
ATOM     24  C   UNL     1       1.853  -2.305  -1.470  0.00  0.00    +0.064 C 
BRANCH  24  25
ATOM     25  C   UNL     1       2.289  -3.748  -1.482  0.00  0.00    -0.009 A 
ATOM     26  C   UNL     1       1.527  -4.869  -1.480  0.00  0.00    +0.011 A 
ATOM     27  C   UNL     1       2.151  -6.103  -1.493  0.00  0.00    +0.008 A 
ATOM     28  C   UNL     1       3.506  -6.154  -1.507  0.00  0.00    +0.045 A 
ATOM     29  S   UNL     1       3.941  -4.423  -1.509  0.00  0.00    -0.102 S 
ENDBRANCH  24  25
ENDBRANCH  23  24
ENDBRANCH   6  23
TORSDOF 5
