REMARK  Name = ZINC12368646
REMARK  13 active torsions:
REMARK  status: ('A' for Active; 'I' for Inactive)
REMARK    1  A    between atoms: C_1  and  C_2
REMARK    2  A    between atoms: C_2  and  O_3
REMARK    3  A    between atoms: O_3  and  C_4
REMARK    4  A    between atoms: C_4  and  C_6
REMARK    5  A    between atoms: C_8  and  C_29
REMARK    6  A    between atoms: C_9  and  C_24
REMARK    7  A    between atoms: C_11  and  C_19
REMARK    8  A    between atoms: C_11  and  O_23
REMARK    9  A    between atoms: C_13  and  C_14
REMARK   10  A    between atoms: C_13  and  O_18
REMARK   11  A    between atoms: C_24  and  O_26
REMARK   12  A    between atoms: O_26  and  C_27
REMARK   13  A    between atoms: C_27  and  C_28
REMARK                            x       y       z     vdW  Elec       q    Type
REMARK                         _______ _______ _______ _____ _____    ______ ____
ROOT
ATOM      1  C   UNL     1      -2.430   4.101   0.429  0.00  0.00    +0.162 C 
ATOM      2  C   UNL     1      -1.045   3.505   0.161  0.00  0.00    +0.055 C 
ATOM      3  C   UNL     1      -1.193   2.015  -0.161  0.00  0.00    +0.162 C 
ATOM      4  C   UNL     1      -1.893   1.313   1.004  0.00  0.00    +0.230 C 
ATOM      5  N   UNL     1      -3.214   1.919   1.220  0.00  0.00    -0.245 NA
ATOM      6  C   UNL     1      -3.095   3.338   1.577  0.00  0.00    +0.230 C 
ATOM      7  H   UNL     1      -3.804   1.798   0.410  0.00  0.00    +0.128 HD
ENDROOT
BRANCH   2   8
ATOM      8  C   UNL     1      -0.180   3.672   1.383  0.00  0.00    -0.041 A 
ATOM      9  C   UNL     1      -0.621   4.444   2.442  0.00  0.00    +0.004 A 
ATOM     10  C   UNL     1       0.170   4.594   3.566  0.00  0.00    +0.002 A 
ATOM     11  C   UNL     1       1.407   3.981   3.627  0.00  0.00    +0.020 A 
ATOM     12  C   UNL     1       1.851   3.212   2.566  0.00  0.00    +0.041 A 
ATOM     13  C   UNL     1       1.057   3.058   1.444  0.00  0.00    +0.024 A 
ATOM     14 CL   UNL     1       3.406   2.442   2.642  0.00  0.00    -0.084 Cl
ENDBRANCH   2   8
BRANCH   6  15
ATOM     15  C   UNL     1      -4.487   3.917   1.835  0.00  0.00    +0.433 C 
ATOM     16  F   UNL     1      -5.128   3.166   2.826  0.00  0.00    -0.166 F 
ATOM     17  F   UNL     1      -4.369   5.245   2.259  0.00  0.00    -0.166 F 
ATOM     18  F   UNL     1      -5.238   3.870   0.655  0.00  0.00    -0.166 F 
ENDBRANCH   6  15
BRANCH   4  19
ATOM     19  C   UNL     1      -2.062  -0.172   0.677  0.00  0.00    +0.433 C 
ATOM     20  F   UNL     1      -0.804  -0.782   0.617  0.00  0.00    -0.166 F 
ATOM     21  F   UNL     1      -2.829  -0.785   1.673  0.00  0.00    -0.166 F 
ATOM     22  F   UNL     1      -2.705  -0.308  -0.557  0.00  0.00    -0.166 F 
ENDBRANCH   4  19
BRANCH   1  23
ATOM     23  C   UNL     1      -3.278   3.982  -0.811  0.00  0.00    +0.315 C 
ATOM     24  O   UNL     1      -3.583   2.892  -1.232  0.00  0.00    -0.250 OA
BRANCH  23  25
ATOM     25  O   UNL     1      -3.693   5.088  -1.448  0.00  0.00    -0.465 OA
BRANCH  25  27
ATOM     26  C   UNL     1      -4.882   6.262  -3.220  0.00  0.00    +0.048 C 
ATOM     27  C   UNL     1      -4.507   4.899  -2.636  0.00  0.00    +0.229 C 
ENDBRANCH  25  27
ENDBRANCH  23  25
ENDBRANCH   1  23
BRANCH   6  28
ATOM     28  O   UNL     1      -2.300   3.467   2.757  0.00  0.00    -0.366 OA
ATOM     29  H   UNL     1      -2.621   2.947   3.507  0.00  0.00    +0.212 HD
ENDBRANCH   6  28
BRANCH   4  30
ATOM     30  O   UNL     1      -1.106   1.454   2.188  0.00  0.00    -0.366 OA
ATOM     31  H   UNL     1      -1.450   0.969   2.950  0.00  0.00    +0.212 HD
ENDBRANCH   4  30
BRANCH   3  32
ATOM     32  C   UNL     1       0.171   1.408  -0.368  0.00  0.00    +0.315 C 
ATOM     33  O   UNL     1       0.670   0.733   0.501  0.00  0.00    -0.250 OA
BRANCH  32  34
ATOM     34  O   UNL     1       0.833   1.620  -1.517  0.00  0.00    -0.465 OA
BRANCH  34  35
ATOM     35  C   UNL     1       2.144   1.009  -1.644  0.00  0.00    +0.229 C 
ATOM     36  C   UNL     1       2.739   1.360  -3.009  0.00  0.00    +0.048 C 
ENDBRANCH  34  35
ENDBRANCH  32  34
ENDBRANCH   3  32
TORSDOF 11
