REMARK  Name = ZINC39560089
REMARK  10 active torsions:
REMARK  status: ('A' for Active; 'I' for Inactive)
REMARK    1  A    between atoms: C_1  and  C_2
REMARK    2  A    between atoms: C_2  and  C_3
REMARK    3  A    between atoms: C_2  and  C_4
REMARK    4  A    between atoms: C_2  and  O_26
REMARK    5  A    between atoms: C_4  and  C_5
REMARK    6  A    between atoms: C_5  and  C_6
REMARK    7  A    between atoms: C_7  and  O_25
REMARK    8  A    between atoms: C_11  and  O_12
REMARK    9  A    between atoms: C_15  and  C_18
REMARK   10  A    between atoms: C_21  and  O_24
REMARK                            x       y       z     vdW  Elec       q    Type
REMARK                         _______ _______ _______ _____ _____    ______ ____
ROOT
ATOM      1  C   UNL     1      -2.827  -2.581   0.141  0.00  0.00    +0.036 A 
ATOM      2  C   UNL     1      -3.506  -2.724   1.347  0.00  0.00    +0.127 A 
ATOM      3  C   UNL     1      -4.804  -3.206   1.376  0.00  0.00    +0.092 A 
ATOM      4  C   UNL     1      -5.446  -3.551   0.195  0.00  0.00    +0.145 A 
ATOM      5  C   UNL     1      -4.763  -3.397  -1.025  0.00  0.00    +0.106 A 
ATOM      6  C   UNL     1      -3.450  -2.911  -1.048  0.00  0.00    +0.138 A 
ATOM      7  C   UNL     1      -5.474  -3.750  -2.266  0.00  0.00    +0.204 A 
ATOM      8  O   UNL     1      -4.895  -3.859  -3.333  0.00  0.00    -0.286 OA
ATOM      9  C   UNL     1      -6.929  -3.965  -2.139  0.00  0.00    +0.064 A 
ATOM     10  C   UNL     1      -7.452  -4.084  -0.891  0.00  0.00    +0.208 A 
ATOM     11  O   UNL     1      -6.705  -4.029   0.214  0.00  0.00    -0.462 OA
ENDROOT
BRANCH   9  12
ATOM     12  C   UNL     1      -7.795  -4.047  -3.340  0.00  0.00    -0.011 A 
ATOM     13  C   UNL     1      -7.643  -5.101  -4.240  0.00  0.00    +0.012 A 
ATOM     14  C   UNL     1      -8.450  -5.175  -5.356  0.00  0.00    +0.046 A 
ATOM     15  C   UNL     1      -9.412  -4.202  -5.584  0.00  0.00    +0.117 A 
ATOM     16  C   UNL     1      -9.566  -3.150  -4.690  0.00  0.00    +0.046 A 
ATOM     17  C   UNL     1      -8.766  -3.074  -3.569  0.00  0.00    +0.012 A 
BRANCH  15  18
ATOM     18  O   UNL     1     -10.206  -4.277  -6.684  0.00  0.00    -0.507 OA
ATOM     19  H   UNL     1     -11.024  -4.774  -6.546  0.00  0.00    +0.292 HD
ENDBRANCH  15  18
ENDBRANCH   9  12
BRANCH   6  20
ATOM     20  O   UNL     1      -2.793  -2.771  -2.227  0.00  0.00    -0.506 OA
ATOM     21  H   UNL     1      -2.299  -3.557  -2.498  0.00  0.00    +0.292 HD
ENDBRANCH   6  20
BRANCH   2  22
ATOM     22  O   UNL     1      -2.888  -2.387   2.508  0.00  0.00    -0.506 OA
ATOM     23  H   UNL     1      -3.017  -1.465   2.769  0.00  0.00    +0.292 HD
ENDBRANCH   2  22
BRANCH   1  24
ATOM     24  C   UNL     1      -1.413  -2.059   0.130  0.00  0.00    +0.045 C 
BRANCH  24  25
ATOM     25  C   UNL     1      -1.433  -0.534   0.013  0.00  0.00    +0.039 C 
BRANCH  25  27
ATOM     26  C   UNL     1      -0.019   1.526   0.010  0.00  0.00    +0.041 C 
ATOM     27  C   UNL     1       0.002  -0.004   0.002  0.00  0.00    +0.061 C 
ATOM     28  C   UNL     1       0.742  -0.511   1.242  0.00  0.00    +0.041 C 
BRANCH  27  29
ATOM     29  O   UNL     1       0.671  -0.465  -1.174  0.00  0.00    -0.389 OA
ATOM     30  H   UNL     1       1.588  -0.167  -1.247  0.00  0.00    +0.210 HD
ENDBRANCH  27  29
ENDBRANCH  25  27
ENDBRANCH  24  25
ENDBRANCH   1  24
TORSDOF 8
