REMARK  Name = ZINC52637553
REMARK  5 active torsions:
REMARK  status: ('A' for Active; 'I' for Inactive)
REMARK    1  A    between atoms: C_1  and  N_2
REMARK    2  A    between atoms: C_4  and  C_30
REMARK    3  A    between atoms: C_7  and  N_10
REMARK    4  A    between atoms: C_16  and  N_19
REMARK    5  A    between atoms: C_35  and  O_36
REMARK                            x       y       z     vdW  Elec       q    Type
REMARK                         _______ _______ _______ _____ _____    ______ ____
ROOT
ATOM      1  N   UNL     1       2.339  -2.844   0.342  0.00  0.00    -0.265 N 
ATOM      2  C   UNL     1       3.472  -2.180   0.645  0.00  0.00    +0.307 C 
ATOM      3  O   UNL     1       3.475  -0.965   0.676  0.00  0.00    -0.252 OA
ATOM      4  N   UNL     1       4.602  -2.864   0.915  0.00  0.00    -0.285 N 
ATOM      5  C   UNL     1       4.645  -4.325   0.769  0.00  0.00    +0.111 C 
ATOM      6  C   UNL     1       5.146  -4.937   2.082  0.00  0.00    +0.044 C 
ATOM      7  C   UNL     1       6.487  -4.302   2.456  0.00  0.00    +0.095 C 
ATOM      8  C   UNL     1       6.301  -2.798   2.664  0.00  0.00    +0.044 C 
ATOM      9  C   UNL     1       5.816  -2.162   1.353  0.00  0.00    +0.111 C 
ATOM     10  H   UNL     1       2.317  -3.813   0.387  0.00  0.00    +0.157 HD
ENDROOT
BRANCH   7  11
ATOM     11  N   UNL     1       6.985  -4.908   3.693  0.00  0.00    -0.288 N 
ATOM     12  C   UNL     1       8.189  -5.591   3.841  0.00  0.00    +0.089 A 
ATOM     13  C   UNL     1       9.224  -5.906   2.973  0.00  0.00    +0.031 A 
ATOM     14  C   UNL     1      10.304  -6.620   3.472  0.00  0.00    +0.022 A 
ATOM     15  C   UNL     1      10.314  -6.991   4.803  0.00  0.00    +0.113 A 
ATOM     16  N   UNL     1       9.316  -6.678   5.607  0.00  0.00    -0.236 NA
ATOM     17  C   UNL     1       8.266  -5.999   5.176  0.00  0.00    +0.159 A 
ATOM     18  N   UNL     1       7.106  -5.550   5.796  0.00  0.00    -0.291 N 
ATOM     19  H   UNL     1       6.875  -5.682   6.729  0.00  0.00    +0.172 HD
ATOM     20  C   UNL     1       6.360  -4.896   4.886  0.00  0.00    +0.329 A 
ATOM     21  O   UNL     1       5.283  -4.375   5.107  0.00  0.00    -0.246 OA
ENDBRANCH   7  11
BRANCH   1  27
ATOM     22  C   UNL     1       0.302   0.663  -2.442  0.00  0.00    +0.132 C 
ATOM     23  N   UNL     1       0.279  -0.255  -1.300  0.00  0.00    -0.299 N 
ATOM     24  C   UNL     1      -0.782  -0.144  -0.299  0.00  0.00    +0.120 C 
ATOM     25  C   UNL     1      -1.181  -1.530   0.205  0.00  0.00    +0.064 C 
ATOM     26  C   UNL     1       0.044  -2.298   0.627  0.00  0.00    +0.011 C 
ATOM     27  C   UNL     1       1.192  -2.135  -0.038  0.00  0.00    +0.094 C 
ATOM     28  C   UNL     1       1.232  -1.201  -1.181  0.00  0.00    +0.260 C 
ATOM     29  O   UNL     1       2.121  -1.281  -2.007  0.00  0.00    -0.269 OA
BRANCH  25  30
ATOM     30  C   UNL     1      -1.883  -2.280  -0.898  0.00  0.00    +0.002 A 
ATOM     31  C   UNL     1      -1.226  -2.538  -2.086  0.00  0.00    +0.008 A 
ATOM     32  C   UNL     1      -1.870  -3.225  -3.098  0.00  0.00    +0.001 A 
ATOM     33  C   UNL     1      -3.172  -3.657  -2.924  0.00  0.00    +0.004 A 
ATOM     34  C   UNL     1      -3.833  -3.403  -1.738  0.00  0.00    +0.046 A 
ATOM     35  C   UNL     1      -3.187  -2.717  -0.719  0.00  0.00    +0.121 A 
BRANCH  35  36
ATOM     36  O   UNL     1      -3.833  -2.471   0.451  0.00  0.00    -0.506 OA
ATOM     37  H   UNL     1      -4.321  -1.636   0.462  0.00  0.00    +0.292 HD
ENDBRANCH  35  36
ENDBRANCH  25  30
ENDBRANCH   1  27
TORSDOF 4
