REMARK  Name = ZINC02788736
REMARK  6 active torsions:
REMARK  status: ('A' for Active; 'I' for Inactive)
REMARK    1  A    between atoms: C_4  and  N_7
REMARK    2  A    between atoms: C_10  and  C_12
REMARK    3  A    between atoms: C_12  and  C_13
REMARK    4  A    between atoms: C_19  and  C_27
REMARK    5  A    between atoms: C_21  and  C_25
REMARK    6  A    between atoms: C_22  and  N_24
REMARK                            x       y       z     vdW  Elec       q    Type
REMARK                         _______ _______ _______ _____ _____    ______ ____
ROOT
ATOM      1  N   UNL     1      -2.136   2.742   2.453  0.00  0.00    -0.199 N 
ATOM      2  C   UNL     1      -1.706   2.535   1.189  0.00  0.00    +0.230 A 
ATOM      3  C   UNL     1      -0.730   1.578   1.239  0.00  0.00    +0.058 A 
ATOM      4  C   UNL     1      -0.568   1.196   2.563  0.00  0.00    +0.148 A 
ATOM      5  N   UNL     1      -1.406   1.890   3.297  0.00  0.00    -0.162 NA
ATOM      6  C   UNL     1      -0.013   1.086   0.008  0.00  0.00    +0.122 C 
ATOM      7  C   UNL     1      -0.754   1.591  -1.204  0.00  0.00    +0.100 C 
ATOM      8  C   UNL     1      -1.715   2.538  -1.124  0.00  0.00    +0.201 C 
ATOM      9  O   UNL     1      -2.106   3.115   0.030  0.00  0.00    -0.423 OA
ENDROOT
BRANCH   6  10
ATOM     10  C   UNL     1       1.399   1.613  -0.003  0.00  0.00    +0.073 A 
ATOM     11  C   UNL     1       1.656   2.889  -0.511  0.00  0.00    +0.135 A 
ATOM     12  N   UNL     1       2.878   3.369  -0.531  0.00  0.00    -0.252 NA
ATOM     13  C   UNL     1       3.888   2.631  -0.059  0.00  0.00    +0.089 A 
ATOM     14  C   UNL     1       5.208   3.116  -0.066  0.00  0.00    +0.030 A 
ATOM     15  C   UNL     1       6.214   2.340   0.421  0.00  0.00    +0.002 A 
ATOM     16  C   UNL     1       5.958   1.067   0.929  0.00  0.00    +0.002 A 
ATOM     17  C   UNL     1       4.694   0.565   0.952  0.00  0.00    +0.030 A 
ATOM     18  C   UNL     1       3.627   1.336   0.458  0.00  0.00    +0.090 A 
ATOM     19  N   UNL     1       2.373   0.871   0.471  0.00  0.00    -0.248 NA
ENDBRANCH   6  10
BRANCH   1  23
ATOM     20  C   UNL     1      -5.097   5.428   3.634  0.00  0.00    +0.000 A 
ATOM     21  C   UNL     1      -4.960   4.219   4.291  0.00  0.00    +0.002 A 
ATOM     22  C   UNL     1      -3.980   3.327   3.902  0.00  0.00    +0.028 A 
ATOM     23  C   UNL     1      -3.131   3.645   2.850  0.00  0.00    +0.069 A 
ATOM     24  C   UNL     1      -3.268   4.862   2.196  0.00  0.00    +0.028 A 
ATOM     25  C   UNL     1      -4.253   5.748   2.586  0.00  0.00    +0.002 A 
ENDBRANCH   1  23
BRANCH   4  26
ATOM     26  C   UNL     1       0.405   0.164   3.072  0.00  0.00    +0.385 C 
ATOM     27  F   UNL     1       0.128  -1.071   2.477  0.00  0.00    -0.189 F 
ATOM     28  F   UNL     1       1.710   0.554   2.749  0.00  0.00    -0.189 F 
BRANCH  26  29
ATOM     29  C   UNL     1       0.271   0.041   4.591  0.00  0.00    +0.460 C 
ATOM     30  F   UNL     1      -1.034  -0.349   4.913  0.00  0.00    -0.165 F 
ATOM     31  F   UNL     1       1.174  -0.917   5.063  0.00  0.00    -0.165 F 
ATOM     32  F   UNL     1       0.548   1.276   5.185  0.00  0.00    -0.165 F 
ENDBRANCH  26  29
ENDBRANCH   4  26
BRANCH   8  33
ATOM     33  N   UNL     1      -2.329   2.936  -2.286  0.00  0.00    -0.328 N 
ATOM     34  H   UNL     1      -3.116   3.705  -2.257  0.00  0.00    +0.145 HD
ATOM     35  H   UNL     1      -2.035   2.486  -3.245  0.00  0.00    +0.145 HD
ENDBRANCH   8  33
BRANCH   7  36
ATOM     36  C   UNL     1      -0.428   1.047  -2.488  0.00  0.00    +0.101 C 
ATOM     37  N   UNL     1      -0.170   0.616  -3.507  0.00  0.00    -0.191 NA
ENDBRANCH   7  36
TORSDOF 6
