REMARK  Name = ZINC13064465
REMARK  9 active torsions:
REMARK  status: ('A' for Active; 'I' for Inactive)
REMARK    1  A    between atoms: C_1  and  C_2
REMARK    2  A    between atoms: C_2  and  C_3
REMARK    3  A    between atoms: C_3  and  C_5
REMARK    4  A    between atoms: C_3  and  N_66
REMARK    5  A    between atoms: N_9  and  C_10
REMARK    6  A    between atoms: C_10  and  C_11
REMARK    7  A    between atoms: C_16  and  C_17
REMARK    8  A    between atoms: C_16  and  N_66
REMARK    9  A    between atoms: C_33  and  N_66
REMARK                            x       y       z     vdW  Elec       q    Type
REMARK                         _______ _______ _______ _____ _____    ______ ____
ROOT
ATOM      1  N   UNL     1      -0.791   1.700   1.458  0.00  0.00    +0.391 N 
ATOM      2  H   UNL     1      -0.096   1.917   2.182  0.00  0.00    -0.080 HD
ENDROOT
BRANCH   1   3
ATOM      3  C   UNL     1      -0.131   0.947   0.371  0.00  0.00    -0.067 C 
ATOM      4  C   UNL     1       1.286   1.520   0.120  0.00  0.00    -0.015 C 
ATOM      5  C   UNL     1       2.031   0.323  -0.520  0.00  0.00    -0.002 C 
ATOM      6  C   UNL     1       1.497  -0.907   0.242  0.00  0.00    -0.002 C 
ATOM      7  C   UNL     1       0.122  -0.511   0.809  0.00  0.00    -0.015 C 
ENDBRANCH   1   3
BRANCH   1   8
ATOM      8  C   UNL     1      -1.868   0.884   2.056  0.00  0.00    +0.003 C 
BRANCH   8   9
ATOM      9  C   UNL     1      -3.022   0.747   1.096  0.00  0.00    +0.139 A 
ATOM     10  N   UNL     1      -3.561   1.703   0.379  0.00  0.00    -0.115 NA
ATOM     11  N   UNL     1      -4.519   1.189  -0.313  0.00  0.00    -0.023 NA
ATOM     12  N   UNL     1      -4.604  -0.069  -0.056  0.00  0.00    -0.044 NA
ATOM     13  N   UNL     1      -3.695  -0.381   0.804  0.00  0.00    -0.223 N 
BRANCH  13  14
ATOM     14  C   UNL     1      -3.445  -1.713   1.362  0.00  0.00    +0.221 C 
BRANCH  14  15
ATOM     15  C   UNL     1      -4.270  -1.899   2.609  0.00  0.00    +0.126 A 
ATOM     16  C   UNL     1      -5.519  -2.396   2.658  0.00  0.00    +0.046 A 
ATOM     17  C   UNL     1      -5.906  -2.395   4.018  0.00  0.00    +0.041 A 
ATOM     18  C   UNL     1      -4.874  -1.890   4.717  0.00  0.00    +0.195 A 
ATOM     19  O   UNL     1      -3.886  -1.591   3.858  0.00  0.00    -0.466 OA
ENDBRANCH  14  15
ENDBRANCH  13  14
ENDBRANCH   8   9
BRANCH   8  21
ATOM     20  C   UNL     1      -1.227   1.549   4.378  0.00  0.00    +0.002 C 
ATOM     21  C   UNL     1      -2.350   1.567   3.338  0.00  0.00    -0.011 C 
ENDBRANCH   8  21
ENDBRANCH   1   8
BRANCH   1  22
ATOM     22  C   UNL     1      -1.347   2.964   0.932  0.00  0.00    -0.036 C 
BRANCH  22  23
ATOM     23  C   UNL     1      -0.224   3.957   0.775  0.00  0.00    +0.001 A 
ATOM     24  C   UNL     1       0.265   4.235  -0.460  0.00  0.00    +0.017 A 
ATOM     25  C   UNL     1       1.351   5.207  -0.579  0.00  0.00    +0.002 A 
ATOM     26  C   UNL     1       1.892   5.537  -1.828  0.00  0.00    +0.059 A 
ATOM     27  C   UNL     1       2.918   6.455  -1.909  0.00  0.00    +0.163 A 
ATOM     28  C   UNL     1       3.419   7.055  -0.750  0.00  0.00    +0.164 A 
ATOM     29  C   UNL     1       2.891   6.734   0.489  0.00  0.00    +0.075 A 
ATOM     30  C   UNL     1       1.857   5.812   0.588  0.00  0.00    +0.053 A 
ATOM     31  N   UNL     1       1.319   5.480   1.815  0.00  0.00    -0.322 N 
ATOM     32  H   UNL     1       1.669   5.896   2.618  0.00  0.00    +0.169 HD
ATOM     33  C   UNL     1       0.318   4.589   1.913  0.00  0.00    +0.251 A 
ATOM     34  O   UNL     1      -0.134   4.321   3.013  0.00  0.00    -0.268 OA
ATOM     35  O   UNL     1       4.428   7.965  -0.822  0.00  0.00    -0.485 OA
ATOM     36  C   UNL     1       5.189   7.988  -2.034  0.00  0.00    +0.270 C 
ATOM     37  C   UNL     1       4.211   7.963  -3.217  0.00  0.00    +0.270 C 
ATOM     38  O   UNL     1       3.435   6.763  -3.131  0.00  0.00    -0.485 OA
ENDBRANCH  22  23
ENDBRANCH   1  22
TORSDOF 8
