REMARK  Name = ZINC61689857
REMARK  3 active torsions:
REMARK  status: ('A' for Active; 'I' for Inactive)
REMARK    1  A    between atoms: C_6  and  C_7
REMARK    2  A    between atoms: C_10  and  C_13
REMARK    3  A    between atoms: C_16  and  N_19
REMARK                            x       y       z     vdW  Elec       q    Type
REMARK                         _______ _______ _______ _____ _____    ______ ____
ROOT
ATOM      1  C   UNL     1      -1.267  -0.763   0.011  0.00  0.00    +0.066 A 
ATOM      2  C   UNL     1      -2.526  -0.246   0.020  0.00  0.00    +0.139 A 
ATOM      3  N   UNL     1      -3.390  -1.267   0.025  0.00  0.00    -0.240 NA
ATOM      4  C   UNL     1      -2.733  -2.396   0.019  0.00  0.00    +0.111 A 
ATOM      5  N   UNL     1      -1.408  -2.133   0.005  0.00  0.00    -0.342 N 
ATOM      6  H   UNL     1      -0.691  -2.786  -0.006  0.00  0.00    +0.167 HD
ENDROOT
BRANCH   1  12
ATOM      7  C   UNL     1      -0.017   1.391   0.010  0.00  0.00    +0.013 A 
ATOM      8  C   UNL     1       1.170   2.095   0.002  0.00  0.00    +0.040 A 
ATOM      9  C   UNL     1       2.379   1.419  -0.013  0.00  0.00    +0.137 A 
ATOM     10  C   UNL     1       2.404   0.033  -0.021  0.00  0.00    +0.054 A 
ATOM     11  C   UNL     1       1.223  -0.681  -0.014  0.00  0.00    +0.028 A 
ATOM     12  C   UNL     1       0.002  -0.004   0.002  0.00  0.00    +0.001 A 
ATOM     13 BR   UNL     1       4.059  -0.881  -0.043  0.00  0.00    -0.047 Br
ATOM     14  F   UNL     1       3.538   2.114  -0.020  0.00  0.00    -0.204 F 
ENDBRANCH   1  12
BRANCH   4  15
ATOM     15  C   UNL     1      -3.353  -3.769   0.022  0.00  0.00    +0.055 C 
ATOM     16  C   UNL     1      -2.480  -4.721   0.843  0.00  0.00    +0.009 C 
ATOM     17  C   UNL     1      -3.109  -6.116   0.846  0.00  0.00    -0.016 C 
ATOM     18  C   UNL     1      -3.213  -6.631  -0.591  0.00  0.00    -0.075 C 
ATOM     19  C   UNL     1      -4.086  -5.680  -1.412  0.00  0.00    -0.016 C 
ATOM     20  C   UNL     1      -3.457  -4.285  -1.415  0.00  0.00    +0.009 C 
BRANCH  18  21
ATOM     21  N   UNL     1      -3.817  -7.970  -0.588  0.00  0.00    +0.380 N 
ATOM     22  H   UNL     1      -4.739  -7.923  -0.180  0.00  0.00    -0.090 HD
ATOM     23  H   UNL     1      -3.886  -8.310  -1.536  0.00  0.00    -0.090 HD
ATOM     24  H   UNL     1      -3.242  -8.598  -0.047  0.00  0.00    -0.090 HD
ENDBRANCH  18  21
ENDBRANCH   4  15
TORSDOF 3
