REMARK  Name = ZINC09427920
REMARK  13 active torsions:
REMARK  status: ('A' for Active; 'I' for Inactive)
REMARK    1  A    between atoms: C_1  and  C_2
REMARK    2  A    between atoms: C_2  and  C_3
REMARK    3  A    between atoms: C_3  and  C_4
REMARK    4  A    between atoms: C_4  and  C_5
REMARK    5  A    between atoms: C_5  and  C_6
REMARK    6  A    between atoms: C_6  and  O_7
REMARK    7  A    between atoms: O_7  and  C_8
REMARK    8  A    between atoms: C_11  and  N_14
REMARK    9  A    between atoms: C_19  and  C_33
REMARK   10  A    between atoms: N_21  and  C_27
REMARK   11  A    between atoms: C_36  and  O_41
REMARK   12  A    between atoms: C_37  and  O_39
REMARK   13  A    between atoms: O_39  and  C_40
REMARK                            x       y       z     vdW  Elec       q    Type
REMARK                         _______ _______ _______ _____ _____    ______ ____
ROOT
ATOM      1  N   UNL     1       2.258 -10.403   4.272  0.00  0.00    -0.208 N 
ATOM      2  C   UNL     1       2.869 -11.038   5.280  0.00  0.00    +0.235 C 
ATOM      3  O   UNL     1       3.208 -10.528   6.326  0.00  0.00    -0.274 OA
ATOM      4  C   UNL     1       3.070 -12.489   4.909  0.00  0.00    +0.145 C 
ATOM      5  C   UNL     1       4.580 -12.766   4.726  0.00  0.00    +0.157 C 
ATOM      6  N   UNL     1       4.624 -13.490   3.432  0.00  0.00    -0.244 N 
ATOM      7  O   UNL     1       3.647 -12.837   2.622  0.00  0.00    -0.257 OA
ATOM      8  C   UNL     1       2.491 -12.578   3.471  0.00  0.00    +0.249 C 
ATOM      9  C   UNL     1       1.986 -11.175   3.213  0.00  0.00    +0.259 C 
ATOM     10  O   UNL     1       1.426 -10.806   2.204  0.00  0.00    -0.272 OA
ENDROOT
BRANCH   1  14
ATOM     11  C   UNL     1       1.265  -6.354   4.430  0.00  0.00    +0.121 A 
ATOM     12  C   UNL     1       0.629  -7.257   5.269  0.00  0.00    +0.047 A 
ATOM     13  C   UNL     1       0.957  -8.598   5.217  0.00  0.00    +0.027 A 
ATOM     14  C   UNL     1       1.923  -9.041   4.325  0.00  0.00    +0.044 A 
ATOM     15  C   UNL     1       2.560  -8.137   3.485  0.00  0.00    +0.027 A 
ATOM     16  C   UNL     1       2.227  -6.798   3.534  0.00  0.00    +0.047 A 
BRANCH  11  17
ATOM     17  O   UNL     1       0.941  -5.035   4.481  0.00  0.00    -0.492 OA
BRANCH  17  18
ATOM     18  C   UNL     1      -0.058  -4.648   5.426  0.00  0.00    +0.229 C 
BRANCH  18  19
ATOM     19  C   UNL     1      -0.286  -3.138   5.338  0.00  0.00    +0.041 C 
BRANCH  19  20
ATOM     20  C   UNL     1      -1.356  -2.724   6.351  0.00  0.00    +0.003 C 
BRANCH  20  21
ATOM     21  C   UNL     1      -1.584  -1.213   6.263  0.00  0.00    -0.000 C 
BRANCH  21  23
ATOM     22  C   UNL     1      -2.882   0.711   7.187  0.00  0.00    +0.004 C 
ATOM     23  C   UNL     1      -2.654  -0.799   7.275  0.00  0.00    -0.003 C 
ENDBRANCH  21  23
ENDBRANCH  20  21
ENDBRANCH  19  20
ENDBRANCH  18  19
ENDBRANCH  17  18
ENDBRANCH  11  17
ENDBRANCH   1  14
BRANCH   6  24
ATOM     24  C   UNL     1       5.440 -14.569   3.085  0.00  0.00    +0.065 A 
ATOM     25  C   UNL     1       4.873 -15.749   2.620  0.00  0.00    +0.028 A 
ATOM     26  C   UNL     1       5.683 -16.814   2.277  0.00  0.00    +0.002 A 
ATOM     27  C   UNL     1       7.057 -16.707   2.395  0.00  0.00    +0.000 A 
ATOM     28  C   UNL     1       7.624 -15.534   2.857  0.00  0.00    +0.002 A 
ATOM     29  C   UNL     1       6.821 -14.463   3.197  0.00  0.00    +0.028 A 
ENDBRANCH   6  24
BRANCH   5  30
ATOM     30  C   UNL     1       5.104 -13.630   5.845  0.00  0.00    -0.018 A 
ATOM     31  C   UNL     1       4.764 -14.969   5.899  0.00  0.00    +0.009 A 
ATOM     32  C   UNL     1       5.242 -15.765   6.923  0.00  0.00    +0.049 A 
ATOM     33  C   UNL     1       6.064 -15.222   7.897  0.00  0.00    +0.158 A 
ATOM     34  C   UNL     1       6.406 -13.874   7.842  0.00  0.00    +0.162 A 
ATOM     35  C   UNL     1       5.927 -13.083   6.811  0.00  0.00    +0.055 A 
BRANCH  34  36
ATOM     36  O   UNL     1       7.212 -13.336   8.796  0.00  0.00    -0.491 OA
ATOM     37  C   UNL     1       7.522 -11.946   8.676  0.00  0.00    +0.277 C 
ENDBRANCH  34  36
BRANCH  33  38
ATOM     38  O   UNL     1       6.535 -16.004   8.905  0.00  0.00    -0.503 OA
ATOM     39  H   UNL     1       7.380 -16.430   8.710  0.00  0.00    +0.292 HD
ENDBRANCH  33  38
ENDBRANCH   5  30
TORSDOF 11
