REMARK  Name = ZINC06004093
REMARK  10 active torsions:
REMARK  status: ('A' for Active; 'I' for Inactive)
REMARK    1  A    between atoms: C_1  and  C_2
REMARK    2  A    between atoms: C_4  and  C_26
REMARK    3  A    between atoms: C_13  and  N_15
REMARK    4  A    between atoms: N_15  and  N_16
REMARK    5  A    between atoms: N_16  and  C_17
REMARK    6  A    between atoms: C_28  and  O_35
REMARK    7  A    between atoms: C_29  and  O_34
REMARK    8  A    between atoms: C_30  and  O_32
REMARK    9  A    between atoms: O_32  and  C_33
REMARK   10  A    between atoms: O_35  and  C_36
REMARK                            x       y       z     vdW  Elec       q    Type
REMARK                         _______ _______ _______ _____ _____    ______ ____
ROOT
ATOM      1  C   UNL     1       2.642   2.389   2.365  0.00  0.00    +0.013 C 
ATOM      2  C   UNL     1       3.507   2.463   1.106  0.00  0.00    +0.055 C 
ATOM      3  C   UNL     1       3.813   1.048   0.606  0.00  0.00    +0.061 C 
ATOM      4  C   UNL     1       2.566   0.436   0.019  0.00  0.00    +0.006 A 
ATOM      5  C   UNL     1       2.517  -0.939  -0.150  0.00  0.00    +0.057 A 
ATOM      6  C   UNL     1       1.395  -1.537  -0.695  0.00  0.00    +0.167 A 
ATOM      7  C   UNL     1       0.304  -0.754  -1.066  0.00  0.00    +0.170 A 
ATOM      8  C   UNL     1       0.354   0.618  -0.896  0.00  0.00    +0.095 A 
ATOM      9  C   UNL     1       1.486   1.217  -0.351  0.00  0.00    +0.130 A 
ATOM     10  O   UNL     1       1.491   2.567  -0.196  0.00  0.00    -0.472 OA
ATOM     11  C   UNL     1       2.751   3.211   0.002  0.00  0.00    +0.262 C 
ATOM     12  O   UNL     1      -0.669  -1.570  -1.567  0.00  0.00    -0.452 OA
ATOM     13  C   UNL     1      -0.003  -2.810  -1.884  0.00  0.00    +0.466 C 
ATOM     14  O   UNL     1       1.104  -2.844  -0.964  0.00  0.00    -0.453 OA
ENDROOT
BRANCH   3  15
ATOM     15  C   UNL     1       4.293   0.203   1.757  0.00  0.00    -0.032 A 
ATOM     16  C   UNL     1       3.476   0.005   2.855  0.00  0.00    +0.054 A 
ATOM     17  C   UNL     1       3.912  -0.777   3.914  0.00  0.00    +0.165 A 
ATOM     18  C   UNL     1       5.176  -1.353   3.876  0.00  0.00    +0.201 A 
ATOM     19  C   UNL     1       5.996  -1.148   2.772  0.00  0.00    +0.165 A 
ATOM     20  C   UNL     1       5.551  -0.369   1.715  0.00  0.00    +0.054 A 
BRANCH  19  21
ATOM     21  O   UNL     1       7.234  -1.710   2.730  0.00  0.00    -0.491 OA
ATOM     22  C   UNL     1       8.021  -1.457   1.565  0.00  0.00    +0.277 C 
ENDBRANCH  19  21
BRANCH  18  23
ATOM     23  O   UNL     1       5.610  -2.116   4.916  0.00  0.00    -0.501 OA
ATOM     24  H   UNL     1       6.074  -1.619   5.602  0.00  0.00    +0.292 HD
ENDBRANCH  18  23
BRANCH  17  25
ATOM     25  O   UNL     1       3.106  -0.975   4.991  0.00  0.00    -0.491 OA
ATOM     26  C   UNL     1       1.820  -0.352   4.963  0.00  0.00    +0.277 C 
ENDBRANCH  17  25
ENDBRANCH   3  15
BRANCH  11  27
ATOM     27  N   UNL     1       3.527   3.172  -1.245  0.00  0.00    -0.205 NA
ATOM     28  H   UNL     1       3.890   2.246  -1.416  0.00  0.00    +0.148 HD
BRANCH  27  29
ATOM     29  N   UNL     1       2.780   3.608  -2.301  0.00  0.00    -0.277 N 
ATOM     30  H   UNL     1       1.899   3.986  -2.150  0.00  0.00    +0.166 HD
BRANCH  29  31
ATOM     31  C   UNL     1       3.284   3.511  -3.601  0.00  0.00    +0.041 A 
ATOM     32  C   UNL     1       4.547   2.976  -3.819  0.00  0.00    +0.024 A 
ATOM     33  C   UNL     1       5.040   2.877  -5.105  0.00  0.00    +0.002 A 
ATOM     34  C   UNL     1       4.282   3.319  -6.174  0.00  0.00    +0.000 A 
ATOM     35  C   UNL     1       3.026   3.857  -5.960  0.00  0.00    +0.002 A 
ATOM     36  C   UNL     1       2.525   3.954  -4.676  0.00  0.00    +0.024 A 
ENDBRANCH  29  31
ENDBRANCH  27  29
ENDBRANCH  11  27
TORSDOF 7
