REMARK  Name = ZINC59016978
REMARK  7 active torsions:
REMARK  status: ('A' for Active; 'I' for Inactive)
REMARK    1  A    between atoms: C_3  and  N_9
REMARK    2  A    between atoms: C_10  and  C_12
REMARK    3  A    between atoms: C_12  and  S_13
REMARK    4  A    between atoms: S_13  and  C_14
REMARK    5  A    between atoms: N_19  and  N_20
REMARK    6  A    between atoms: C_21  and  C_22
REMARK    7  A    between atoms: C_27  and  O_28
REMARK                            x       y       z     vdW  Elec       q    Type
REMARK                         _______ _______ _______ _____ _____    ______ ____
ROOT
ATOM      1  C   UNL     1       6.099   6.757  -0.483  0.00  0.00    +0.211 A 
ATOM      2  N   UNL     1       6.338   8.069  -0.583  0.00  0.00    -0.186 NA
ATOM      3  C   UNL     1       7.635   8.278  -0.667  0.00  0.00    +0.232 A 
ATOM      4  N   UNL     1       8.254   7.079  -0.621  0.00  0.00    -0.245 N 
ATOM      5  N   UNL     1       7.242   6.114  -0.496  0.00  0.00    -0.144 NA
ATOM      6  N   UNL     1       8.254   9.509  -0.784  0.00  0.00    -0.205 N 
ATOM      7  H   UNL     1       9.220   9.562  -0.840  0.00  0.00    +0.177 HD
ATOM      8  H   UNL     1       9.210   6.917  -0.663  0.00  0.00    +0.192 HD
ENDROOT
BRANCH   6   9
ATOM      9  N   UNL     1       7.484  10.679  -0.820  0.00  0.00    -0.187 NA
ATOM     10  C   UNL     1       8.065  11.835  -0.929  0.00  0.00    +0.142 C 
BRANCH  10  11
ATOM     11  C   UNL     1       7.256  13.066  -0.967  0.00  0.00    +0.037 A 
ATOM     12  C   UNL     1       7.877  14.311  -1.090  0.00  0.00    +0.028 A 
ATOM     13  C   UNL     1       7.113  15.460  -1.126  0.00  0.00    +0.019 A 
ATOM     14  C   UNL     1       5.733  15.383  -1.040  0.00  0.00    +0.019 A 
ATOM     15  C   UNL     1       5.107  14.156  -0.918  0.00  0.00    +0.047 A 
ATOM     16  C   UNL     1       5.859  12.993  -0.886  0.00  0.00    +0.126 A 
ATOM     17 BR   UNL     1       7.954  17.145  -1.292  0.00  0.00    -0.050 Br
BRANCH  16  18
ATOM     18  O   UNL     1       5.244  11.787  -0.771  0.00  0.00    -0.506 OA
ATOM     19  H   UNL     1       5.114  11.498   0.142  0.00  0.00    +0.292 HD
ENDBRANCH  16  18
ENDBRANCH  10  11
ENDBRANCH   6   9
BRANCH   1  20
ATOM     20  S   UNL     1       4.508   6.013  -0.346  0.00  0.00    -0.075 S 
BRANCH  20  21
ATOM     21  C   UNL     1       4.861   4.237  -0.238  0.00  0.00    +0.173 C 
BRANCH  21  23
ATOM     22  N   UNL     1       3.584   2.129  -0.021  0.00  0.00    -0.283 N 
ATOM     23  C   UNL     1       3.567   3.474  -0.116  0.00  0.00    +0.228 C 
ATOM     24  O   UNL     1       2.511   4.069  -0.103  0.00  0.00    -0.275 OA
ATOM     25  H   UNL     1       4.430   1.659   0.049  0.00  0.00    +0.155 HD
BRANCH  22  28
ATOM     26  C   UNL     1       0.065   1.244  -0.620  0.00  0.00    +0.022 A 
ATOM     27  C   UNL     1       1.250   1.953  -0.618  0.00  0.00    +0.027 A 
ATOM     28  C   UNL     1       2.381   1.412  -0.024  0.00  0.00    +0.069 A 
ATOM     29  C   UNL     1       2.318   0.154   0.567  0.00  0.00    +0.146 A 
ATOM     30  C   UNL     1       1.129  -0.551   0.562  0.00  0.00    +0.060 A 
ATOM     31  C   UNL     1       0.004  -0.007  -0.032  0.00  0.00    +0.044 A 
ATOM     32 CL   UNL     1      -1.488  -0.895  -0.036  0.00  0.00    -0.083 Cl
ATOM     33  F   UNL     1       3.418  -0.377   1.146  0.00  0.00    -0.203 F 
ENDBRANCH  22  28
ENDBRANCH  21  23
ENDBRANCH  20  21
ENDBRANCH   1  20
TORSDOF 7
