REMARK  Name = ZINC19561234
REMARK  10 active torsions:
REMARK  status: ('A' for Active; 'I' for Inactive)
REMARK    1  A    between atoms: C_1  and  C_2
REMARK    2  A    between atoms: C_3  and  C_27
REMARK    3  A    between atoms: N_9  and  C_13
REMARK    4  A    between atoms: C_10  and  C_12
REMARK    5  A    between atoms: N_16  and  C_19
REMARK    6  A    between atoms: C_19  and  C_20
REMARK    7  A    between atoms: N_22  and  C_23
REMARK    8  A    between atoms: C_23  and  C_24
REMARK    9  A    between atoms: C_23  and  C_25
REMARK   10  A    between atoms: C_23  and  C_26
REMARK                            x       y       z     vdW  Elec       q    Type
REMARK                         _______ _______ _______ _____ _____    ______ ____
ROOT
ATOM      1  C   UNL     1      -0.325   1.182  -0.405  0.00  0.00    +0.088 C 
ATOM      2  C   UNL     1      -1.226   2.114   0.410  0.00  0.00    +0.006 C 
ATOM      3  C   UNL     1      -2.685   1.676   0.246  0.00  0.00    -0.076 C 
ATOM      4  N   UNL     1      -3.055   1.724  -1.174  0.00  0.00    +0.386 N 
ATOM      5  C   UNL     1      -2.234   0.802  -1.969  0.00  0.00    -0.076 C 
ATOM      6  C   UNL     1      -0.763   1.213  -1.871  0.00  0.00    +0.006 C 
ATOM      7  H   UNL     1      -2.861   2.744  -1.537  0.00  0.00    -0.081 HD
ENDROOT
BRANCH   1  16
ATOM      8  C   UNL     1       2.524   5.628  -1.659  0.00  0.00    +0.045 C 
ATOM      9  C   UNL     1       3.364   4.545  -1.032  0.00  0.00    -0.026 A 
ATOM     10  C   UNL     1       4.678   4.734  -0.834  0.00  0.00    -0.008 A 
ATOM     11  S   UNL     1       5.207   3.205  -0.086  0.00  0.00    -0.073 S 
ATOM     12  C   UNL     1       3.648   2.358  -0.060  0.00  0.00    +0.116 A 
ATOM     13  C   UNL     1       2.761   3.287  -0.634  0.00  0.00    +0.075 A 
ATOM     14  C   UNL     1       1.399   2.855  -0.746  0.00  0.00    +0.263 A 
ATOM     15  O   UNL     1       0.556   3.587  -1.235  0.00  0.00    -0.267 OA
ATOM     16  N   UNL     1       1.066   1.630  -0.299  0.00  0.00    -0.293 N 
ATOM     17  C   UNL     1       1.993   0.799   0.243  0.00  0.00    +0.111 A 
ATOM     18  N   UNL     1       3.243   1.161   0.354  0.00  0.00    -0.227 NA
ATOM     19  C   UNL     1       1.572  -0.566   0.724  0.00  0.00    +0.086 C 
ATOM     20  C   UNL     1       5.508   5.948  -1.165  0.00  0.00    +0.052 C 
ENDBRANCH   1  16
BRANCH   4  21
ATOM     21  C   UNL     1      -4.486   1.443  -1.355  0.00  0.00    +0.019 C 
BRANCH  21  22
ATOM     22  C   UNL     1      -4.887   1.770  -2.770  0.00  0.00    +0.197 C 
ATOM     23  O   UNL     1      -4.097   2.311  -3.515  0.00  0.00    -0.278 OA
ATOM     24  N   UNL     1      -6.123   1.460  -3.209  0.00  0.00    -0.312 N 
ATOM     25  H   UNL     1      -6.839   0.969  -2.534  0.00  0.00    +0.149 HD
BRANCH  24  26
ATOM     26  C   UNL     1      -6.513   1.777  -4.585  0.00  0.00    +0.026 C 
ATOM     27  C   UNL     1      -5.582   1.052  -5.559  0.00  0.00    +0.031 C 
ATOM     28  C   UNL     1      -7.955   1.324  -4.824  0.00  0.00    +0.031 C 
ATOM     29  C   UNL     1      -6.409   3.287  -4.809  0.00  0.00    +0.031 C 
ENDBRANCH  24  26
ENDBRANCH  21  22
ENDBRANCH   4  21
TORSDOF 4
