REMARK  Name = ZINC00625933
REMARK  4 active torsions:
REMARK  status: ('A' for Active; 'I' for Inactive)
REMARK    1  A    between atoms: C_4  and  N_7
REMARK    2  A    between atoms: N_7  and  C_8
REMARK    3  A    between atoms: N_26  and  C_27
REMARK    4  A    between atoms: C_32  and  N_33
REMARK                            x       y       z     vdW  Elec       q    Type
REMARK                         _______ _______ _______ _____ _____    ______ ____
ROOT
ATOM      1  N   UNL     1      -2.288   6.102  -5.263  0.00  0.00    -0.238 N 
ATOM      2  C   UNL     1      -2.094   4.902  -4.603  0.00  0.00    +0.233 A 
ATOM      3  N   UNL     1      -3.054   4.407  -3.828  0.00  0.00    -0.180 NA
ATOM      4  C   UNL     1      -2.867   3.254  -3.193  0.00  0.00    +0.225 A 
ATOM      5  N   UNL     1      -1.720   2.596  -3.333  0.00  0.00    -0.181 NA
ATOM      6  C   UNL     1      -0.760   3.092  -4.108  0.00  0.00    +0.224 A 
ATOM      7  N   UNL     1      -0.945   4.247  -4.739  0.00  0.00    -0.180 NA
ATOM      8  N   UNL     1       0.431   2.409  -4.253  0.00  0.00    -0.295 N 
ATOM      9  C   UNL     1       0.425   1.167  -3.468  0.00  0.00    +0.136 C 
ATOM     10  C   UNL     1       1.737   0.414  -3.704  0.00  0.00    +0.179 C 
ATOM     11  O   UNL     1       2.837   1.263  -3.365  0.00  0.00    -0.377 OA
ATOM     12  C   UNL     1       2.873   2.483  -4.111  0.00  0.00    +0.179 C 
ATOM     13  C   UNL     1       1.573   3.257  -3.879  0.00  0.00    +0.136 C 
ATOM     14  N   UNL     1      -3.864   2.740  -2.388  0.00  0.00    -0.282 N 
ATOM     15  H   UNL     1      -4.650   3.272  -2.188  0.00  0.00    +0.155 HD
ENDROOT
BRANCH   1  19
ATOM     16  C   UNL     1       0.512   7.424  -8.050  0.00  0.00    +0.000 A 
ATOM     17  C   UNL     1      -0.630   6.770  -8.476  0.00  0.00    +0.002 A 
ATOM     18  C   UNL     1      -1.560   6.331  -7.555  0.00  0.00    +0.024 A 
ATOM     19  C   UNL     1      -1.348   6.546  -6.199  0.00  0.00    +0.042 A 
ATOM     20  C   UNL     1      -0.203   7.208  -5.775  0.00  0.00    +0.024 A 
ATOM     21  C   UNL     1       0.726   7.641  -6.702  0.00  0.00    +0.002 A 
ENDBRANCH   1  19
BRANCH   1  22
ATOM     22  C   UNL     1      -3.426   6.872  -4.995  0.00  0.00    +0.042 A 
ATOM     23  C   UNL     1      -3.296   8.126  -4.412  0.00  0.00    +0.024 A 
ATOM     24  C   UNL     1      -4.420   8.885  -4.153  0.00  0.00    +0.002 A 
ATOM     25  C   UNL     1      -5.675   8.394  -4.465  0.00  0.00    +0.000 A 
ATOM     26  C   UNL     1      -5.808   7.144  -5.041  0.00  0.00    +0.002 A 
ATOM     27  C   UNL     1      -4.687   6.382  -5.307  0.00  0.00    +0.024 A 
ENDBRANCH   1  22
BRANCH  14  28
ATOM     28  C   UNL     1      -3.741   1.447  -1.860  0.00  0.00    +0.054 A 
ATOM     29  C   UNL     1      -2.571   1.065  -1.221  0.00  0.00    +0.025 A 
ATOM     30  C   UNL     1      -2.454  -0.208  -0.697  0.00  0.00    +0.002 A 
ATOM     31  C   UNL     1      -3.497  -1.108  -0.816  0.00  0.00    +0.002 A 
ATOM     32  C   UNL     1      -4.665  -0.738  -1.456  0.00  0.00    +0.024 A 
ATOM     33  C   UNL     1      -4.793   0.540  -1.980  0.00  0.00    +0.046 A 
BRANCH  33  34
ATOM     34  N   UNL     1      -5.975   0.917  -2.629  0.00  0.00    -0.357 N 
ATOM     35  H   UNL     1      -6.063   1.811  -2.995  0.00  0.00    +0.142 HD
ATOM     36  H   UNL     1      -6.706   0.285  -2.712  0.00  0.00    +0.142 HD
ENDBRANCH  33  34
ENDBRANCH  14  28
TORSDOF 4
