REMARK  Name = ZINC04675861
REMARK  8 active torsions:
REMARK  status: ('A' for Active; 'I' for Inactive)
REMARK    1  A    between atoms: C_1  and  C_2
REMARK    2  A    between atoms: C_2  and  N_3
REMARK    3  A    between atoms: N_3  and  N_4
REMARK    4  A    between atoms: C_5  and  C_7
REMARK    5  A    between atoms: C_12  and  C_13
REMARK    6  A    between atoms: N_15  and  C_16
REMARK    7  A    between atoms: C_19  and  N_22
REMARK    8  A    between atoms: N_22  and  C_23
REMARK                            x       y       z     vdW  Elec       q    Type
REMARK                         _______ _______ _______ _____ _____    ______ ____
ROOT
ATOM      1  C   UNL     1      -2.506   1.356   0.256  0.00  0.00    +0.243 C 
ATOM      2  O   UNL     1      -1.985   1.239   1.351  0.00  0.00    -0.270 OA
ATOM      3  N   UNL     1      -3.847   1.281   0.136  0.00  0.00    -0.282 N 
ATOM      4  H   UNL     1      -4.267   1.440  -0.724  0.00  0.00    +0.155 HD
ENDROOT
BRANCH   3   5
ATOM      5  C   UNL     1      -4.634   0.974   1.254  0.00  0.00    +0.034 A 
ATOM      6  C   UNL     1      -4.271   1.445   2.509  0.00  0.00    +0.025 A 
ATOM      7  C   UNL     1      -5.046   1.143   3.610  0.00  0.00    +0.025 A 
ATOM      8  C   UNL     1      -6.190   0.368   3.463  0.00  0.00    +0.031 A 
ATOM      9  C   UNL     1      -6.553  -0.102   2.208  0.00  0.00    +0.025 A 
ATOM     10  C   UNL     1      -5.780   0.204   1.105  0.00  0.00    +0.025 A 
BRANCH   8  11
ATOM     11  N   UNL     1      -6.975   0.061   4.580  0.00  0.00    -0.314 N 
ATOM     12  H   UNL     1      -7.024   0.682   5.323  0.00  0.00    +0.152 HD
BRANCH  11  13
ATOM     13  C   UNL     1      -7.689  -1.139   4.623  0.00  0.00    +0.031 A 
ATOM     14  C   UNL     1      -7.198  -2.265   3.974  0.00  0.00    +0.023 A 
ATOM     15  C   UNL     1      -7.906  -3.450   4.018  0.00  0.00    +0.002 A 
ATOM     16  C   UNL     1      -9.103  -3.516   4.708  0.00  0.00    +0.000 A 
ATOM     17  C   UNL     1      -9.595  -2.397   5.355  0.00  0.00    +0.002 A 
ATOM     18  C   UNL     1      -8.889  -1.211   5.320  0.00  0.00    +0.023 A 
ENDBRANCH  11  13
ENDBRANCH   8  11
ENDBRANCH   3   5
BRANCH   1  21
ATOM     19  C   UNL     1       0.276   1.641   0.592  0.00  0.00    +0.062 C 
ATOM     20  C   UNL     1      -0.362   1.622  -0.773  0.00  0.00    +0.024 C 
ATOM     21  C   UNL     1      -1.705   1.570  -0.889  0.00  0.00    +0.087 C 
BRANCH  20  22
ATOM     22  N   UNL     1       0.420   1.656  -1.894  0.00  0.00    -0.268 N 
ATOM     23  H   UNL     1       1.386   1.693  -1.810  0.00  0.00    +0.170 HD
BRANCH  22  24
ATOM     24  N   UNL     1      -0.173   1.638  -3.163  0.00  0.00    -0.230 N 
ATOM     25  C   UNL     1       0.598   1.672  -4.268  0.00  0.00    +0.295 C 
ATOM     26  O   UNL     1       1.810   1.718  -4.163  0.00  0.00    -0.265 OA
ATOM     27  H   UNL     1      -1.139   1.601  -3.247  0.00  0.00    +0.173 HD
BRANCH  25  28
ATOM     28  C   UNL     1      -0.023   1.653  -5.596  0.00  0.00    +0.190 A 
ATOM     29  C   UNL     1       0.638   1.677  -6.791  0.00  0.00    +0.054 A 
ATOM     30  C   UNL     1      -0.342   1.645  -7.795  0.00  0.00    +0.042 A 
ATOM     31  C   UNL     1      -1.543   1.603  -7.177  0.00  0.00    +0.196 A 
ATOM     32  O   UNL     1      -1.346   1.602  -5.852  0.00  0.00    -0.458 OA
ENDBRANCH  25  28
ENDBRANCH  22  24
ENDBRANCH  20  22
ENDBRANCH   1  21
TORSDOF 7
