REMARK  Name = ZINC20854855
REMARK  6 active torsions:
REMARK  status: ('A' for Active; 'I' for Inactive)
REMARK    1  A    between atoms: C_1  and  C_2
REMARK    2  A    between atoms: C_11  and  C_32
REMARK    3  A    between atoms: N_13  and  C_17
REMARK    4  A    between atoms: C_21  and  C_23
REMARK    5  A    between atoms: N_25  and  C_26
REMARK    6  A    between atoms: C_26  and  C_27
REMARK                            x       y       z     vdW  Elec       q    Type
REMARK                         _______ _______ _______ _____ _____    ______ ____
ROOT
ATOM      1  C   UNL     1      -1.004   9.375   5.165  0.00  0.00    +0.044 C 
ATOM      2  C   UNL     1      -0.343   8.441   4.185  0.00  0.00    -0.050 A 
ATOM      3  C   UNL     1       0.344   7.331   4.641  0.00  0.00    +0.007 A 
ATOM      4  C   UNL     1       0.954   6.478   3.745  0.00  0.00    +0.046 A 
ATOM      5  C   UNL     1       0.878   6.729   2.378  0.00  0.00    +0.128 A 
ATOM      6  C   UNL     1       0.182   7.836   1.926  0.00  0.00    +0.015 A 
ATOM      7  C   UNL     1      -0.423   8.692   2.828  0.00  0.00    +0.012 A 
ATOM      8  C   UNL     1       0.060   8.125   0.447  0.00  0.00    +0.114 C 
ATOM      9  C   UNL     1       1.235   7.447  -0.276  0.00  0.00    +0.096 C 
ATOM     10  C   UNL     1       1.213   5.966   0.132  0.00  0.00    +0.185 C 
ATOM     11  O   UNL     1       1.497   5.872   1.526  0.00  0.00    -0.468 OA
ATOM     12  N   UNL     1      -0.098   5.401  -0.171  0.00  0.00    -0.216 N 
ATOM     13  C   UNL     1      -1.196   6.166  -0.277  0.00  0.00    +0.310 C 
ATOM     14  O   UNL     1      -2.243   5.645  -0.610  0.00  0.00    -0.252 OA
ATOM     15  N   UNL     1      -1.180   7.486  -0.025  0.00  0.00    -0.292 N 
ATOM     16  C   UNL     1       2.286   5.213  -0.656  0.00  0.00    +0.079 C 
ATOM     17  H   UNL     1      -2.089   8.089  -0.169  0.00  0.00    +0.151 HD
ENDROOT
BRANCH  12  18
ATOM     18  C   UNL     1      -0.214   4.019  -0.363  0.00  0.00    +0.042 A 
ATOM     19  C   UNL     1      -0.350   3.174   0.732  0.00  0.00    +0.024 A 
ATOM     20  C   UNL     1      -0.464   1.809   0.548  0.00  0.00    +0.003 A 
ATOM     21  C   UNL     1      -0.444   1.276  -0.725  0.00  0.00    +0.013 A 
ATOM     22  C   UNL     1      -0.302   2.115  -1.831  0.00  0.00    +0.038 A 
ATOM     23  C   UNL     1      -0.192   3.494  -1.645  0.00  0.00    +0.036 A 
BRANCH  22  24
ATOM     24  C   UNL     1      -0.274   1.546  -3.195  0.00  0.00    +0.244 C 
ATOM     25  O   UNL     1      -0.151   2.279  -4.157  0.00  0.00    -0.270 OA
ATOM     26  N   UNL     1      -0.386   0.215  -3.373  0.00  0.00    -0.304 N 
ATOM     27  H   UNL     1      -0.497  -0.449  -2.502  0.00  0.00    +0.149 HD
BRANCH  26  28
ATOM     28  C   UNL     1      -0.358  -0.349  -4.724  0.00  0.00    +0.179 C 
BRANCH  28  29
ATOM     29  C   UNL     1      -0.499  -1.848  -4.646  0.00  0.00    +0.122 A 
ATOM     30  C   UNL     1      -1.658  -2.530  -4.664  0.00  0.00    +0.046 A 
ATOM     31  C   UNL     1      -1.327  -3.902  -4.573  0.00  0.00    +0.041 A 
ATOM     32  C   UNL     1       0.014  -3.975  -4.497  0.00  0.00    +0.195 A 
ATOM     33  O   UNL     1       0.510  -2.728  -4.542  0.00  0.00    -0.466 OA
ENDBRANCH  28  29
ENDBRANCH  26  28
ENDBRANCH  22  24
ENDBRANCH  12  18
TORSDOF 4
