REMARK  Name = ZINC59564960
REMARK  5 active torsions:
REMARK  status: ('A' for Active; 'I' for Inactive)
REMARK    1  A    between atoms: C_4  and  N_7
REMARK    2  A    between atoms: C_8  and  S_17
REMARK    3  A    between atoms: S_17  and  C_18
REMARK    4  A    between atoms: C_18  and  C_19
REMARK    5  A    between atoms: C_25  and  N_27
REMARK                            x       y       z     vdW  Elec       q    Type
REMARK                         _______ _______ _______ _____ _____    ______ ____
ROOT
ATOM      1  N   UNL     1       3.621  -0.650  -0.036  0.00  0.00    -0.213 N 
ATOM      2  C   UNL     1       4.851  -0.054  -0.137  0.00  0.00    +0.151 C 
ATOM      3  N   UNL     1       5.818  -0.925  -0.127  0.00  0.00    -0.347 N 
ATOM      4  C   UNL     1       5.213  -2.256  -0.008  0.00  0.00    +0.107 C 
ATOM      5  N   UNL     1       3.762  -2.009   0.053  0.00  0.00    -0.209 NA
ATOM      6  C   UNL     1       5.682  -2.940   1.272  0.00  0.00    +0.045 C 
ATOM      7  C   UNL     1       7.196  -3.161   1.208  0.00  0.00    +0.004 C 
ATOM      8  C   UNL     1       7.532  -4.032  -0.005  0.00  0.00    +0.000 C 
ATOM      9  C   UNL     1       7.072  -3.328  -1.283  0.00  0.00    +0.004 C 
ATOM     10  C   UNL     1       5.558  -3.107  -1.226  0.00  0.00    +0.045 C 
ATOM     11  H   UNL     1       3.370  -2.357   0.915  0.00  0.00    +0.147 HD
ATOM     12  H   UNL     1       6.766  -0.730  -0.188  0.00  0.00    +0.163 HD
ENDROOT
BRANCH   1  16
ATOM     13  C   UNL     1      -0.016   1.379   0.011  0.00  0.00    +0.000 A 
ATOM     14  C   UNL     1       0.244   0.408   0.960  0.00  0.00    +0.002 A 
ATOM     15  C   UNL     1       1.449  -0.267   0.947  0.00  0.00    +0.025 A 
ATOM     16  C   UNL     1       2.400   0.031  -0.021  0.00  0.00    +0.052 A 
ATOM     17  C   UNL     1       2.135   1.007  -0.972  0.00  0.00    +0.025 A 
ATOM     18  C   UNL     1       0.928   1.678  -0.954  0.00  0.00    +0.002 A 
ENDBRANCH   1  16
BRANCH   2  19
ATOM     19  S   UNL     1       5.094   1.687  -0.266  0.00  0.00    -0.082 S 
BRANCH  19  20
ATOM     20  C   UNL     1       6.896   1.871  -0.368  0.00  0.00    +0.173 C 
BRANCH  20  21
ATOM     21  C   UNL     1       7.245   3.333  -0.483  0.00  0.00    +0.229 C 
ATOM     22  O   UNL     1       6.365   4.168  -0.495  0.00  0.00    -0.275 OA
ATOM     23  N   UNL     1       8.535   3.712  -0.572  0.00  0.00    -0.264 N 
ATOM     24  C   UNL     1       8.858   5.060  -0.678  0.00  0.00    +0.166 A 
ATOM     25  N   UNL     1       8.046   6.095  -0.701  0.00  0.00    -0.231 NA
ATOM     26  C   UNL     1       8.512   7.326  -0.807  0.00  0.00    +0.153 A 
ATOM     27  C   UNL     1       9.858   7.470  -0.891  0.00  0.00    +0.185 A 
ATOM     28  S   UNL     1      10.381   5.765  -0.801  0.00  0.00    -0.028 S 
ATOM     29  H   UNL     1       9.239   3.045  -0.563  0.00  0.00    +0.157 HD
BRANCH  27  30
ATOM     30  N   UNL     1      10.670   8.701  -1.017  0.00  0.00    +0.065 N 
ATOM     31  O   UNL     1      10.128   9.781  -1.058  0.00  0.00    -0.126 OA
ATOM     32  O   UNL     1      11.875   8.627  -1.079  0.00  0.00    -0.126 OA
ENDBRANCH  27  30
ENDBRANCH  20  21
ENDBRANCH  19  20
ENDBRANCH   2  19
TORSDOF 5
