REMARK  Name = ZINC08850418
REMARK  12 active torsions:
REMARK  status: ('A' for Active; 'I' for Inactive)
REMARK    1  A    between atoms: C_1  and  C_2
REMARK    2  A    between atoms: C_5  and  N_12
REMARK    3  A    between atoms: C_8  and  C_10
REMARK    4  A    between atoms: C_8  and  C_11
REMARK    5  A    between atoms: C_13  and  C_15
REMARK    6  A    between atoms: C_15  and  C_16
REMARK    7  A    between atoms: C_19  and  S_21
REMARK    8  A    between atoms: S_21  and  C_22
REMARK    9  A    between atoms: C_22  and  C_23
REMARK   10  A    between atoms: N_25  and  C_26
REMARK   11  A    between atoms: C_29  and  N_32
REMARK   12  A    between atoms: C_33  and  C_35
REMARK                            x       y       z     vdW  Elec       q    Type
REMARK                         _______ _______ _______ _____ _____    ______ ____
ROOT
ATOM      1  C   UNL     1      -8.946   9.638   1.194  0.00  0.00    +0.058 A 
ATOM      2  C   UNL     1      -9.802   8.589   1.206  0.00  0.00    +0.071 A 
ATOM      3  S   UNL     1      -8.656   7.223   1.087  0.00  0.00    -0.069 S 
ATOM      4  C   UNL     1      -7.194   8.158   1.043  0.00  0.00    +0.135 A 
ATOM      5  N   UNL     1      -7.652   9.394   1.112  0.00  0.00    -0.237 NA
ENDROOT
BRANCH   1   6
ATOM      6  C   UNL     1      -9.460  11.053   1.272  0.00  0.00    +0.151 C 
BRANCH   6   8
ATOM      7  N   UNL     1      -9.108  13.048   2.691  0.00  0.00    -0.312 N 
ATOM      8  C   UNL     1      -8.800  11.763   2.426  0.00  0.00    +0.219 C 
ATOM      9  O   UNL     1      -7.993  11.178   3.117  0.00  0.00    -0.275 OA
ATOM     10  H   UNL     1      -9.754  13.516   2.139  0.00  0.00    +0.149 HD
BRANCH   7  14
ATOM     11  C   UNL     1      -5.106  15.598   4.077  0.00  0.00    +0.007 C 
ATOM     12  C   UNL     1      -6.452  15.029   4.531  0.00  0.00    -0.012 C 
ATOM     13  C   UNL     1      -7.121  14.308   3.359  0.00  0.00    +0.025 C 
ATOM     14  C   UNL     1      -8.467  13.739   3.813  0.00  0.00    +0.074 C 
ATOM     15  C   UNL     1      -9.368  14.880   4.291  0.00  0.00    +0.028 C 
ATOM     16  C   UNL     1      -8.698  15.601   5.463  0.00  0.00    -0.033 C 
ATOM     17  C   UNL     1      -7.352  16.170   5.009  0.00  0.00    +0.009 C 
ATOM     18  C   UNL     1      -9.599  16.741   5.941  0.00  0.00    +0.011 C 
ATOM     19  C   UNL     1      -8.474  14.613   6.609  0.00  0.00    +0.011 C 
ENDBRANCH   7  14
ENDBRANCH   6   8
ENDBRANCH   1   6
BRANCH   4  20
ATOM     20  S   UNL     1      -5.526   7.600   0.929  0.00  0.00    -0.089 S 
BRANCH  20  21
ATOM     21  C   UNL     1      -5.796   5.811   0.882  0.00  0.00    +0.172 C 
BRANCH  21  22
ATOM     22  C   UNL     1      -4.468   5.105   0.782  0.00  0.00    +0.227 C 
ATOM     23  O   UNL     1      -3.440   5.749   0.746  0.00  0.00    -0.275 OA
ATOM     24  N   UNL     1      -4.422   3.759   0.733  0.00  0.00    -0.285 N 
ATOM     25  H   UNL     1      -5.237   3.242   0.829  0.00  0.00    +0.155 HD
BRANCH  24  26
ATOM     26  C   UNL     1      -3.197   3.106   0.542  0.00  0.00    +0.034 A 
ATOM     27  C   UNL     1      -3.143   1.935  -0.201  0.00  0.00    +0.025 A 
ATOM     28  C   UNL     1      -1.936   1.291  -0.388  0.00  0.00    +0.025 A 
ATOM     29  C   UNL     1      -0.776   1.816   0.166  0.00  0.00    +0.033 A 
ATOM     30  C   UNL     1      -0.831   2.985   0.913  0.00  0.00    +0.025 A 
ATOM     31  C   UNL     1      -2.037   3.631   1.096  0.00  0.00    +0.025 A 
BRANCH  29  32
ATOM     32  N   UNL     1       0.448   1.164  -0.025  0.00  0.00    -0.286 N 
ATOM     33  C   UNL     1       0.703   0.534  -1.189  0.00  0.00    +0.214 C 
ATOM     34  O   UNL     1      -0.158   0.465  -2.041  0.00  0.00    -0.276 OA
ATOM     35  C   UNL     1       2.055  -0.084  -1.432  0.00  0.00    +0.109 C 
ATOM     36  H   UNL     1       1.112   1.162   0.683  0.00  0.00    +0.155 HD
ENDBRANCH  29  32
ENDBRANCH  24  26
ENDBRANCH  21  22
ENDBRANCH  20  21
ENDBRANCH   4  20
TORSDOF 8
