REMARK  Name = ZINC08860917
REMARK  4 active torsions:
REMARK  status: ('A' for Active; 'I' for Inactive)
REMARK    1  A    between atoms: C_4  and  C_7
REMARK    2  A    between atoms: C_13  and  C_15
REMARK    3  A    between atoms: N_17  and  N_18
REMARK    4  A    between atoms: C_19  and  C_20
REMARK                            x       y       z     vdW  Elec       q    Type
REMARK                         _______ _______ _______ _____ _____    ______ ____
ROOT
ATOM      1  C   UNL     1      -0.819   1.665  -1.559  0.00  0.00    +0.245 C 
ATOM      2  O   UNL     1      -1.005   2.835  -1.295  0.00  0.00    -0.273 OA
ATOM      3  N   UNL     1       0.349   1.079  -1.231  0.00  0.00    -0.206 N 
ATOM      4  H   UNL     1       0.531   0.169  -1.514  0.00  0.00    +0.177 HD
ENDROOT
BRANCH   1  10
ATOM      5  C   UNL     1      -3.051   1.793  -2.696  0.00  0.00    +0.057 C 
ATOM      6  C   UNL     1      -4.283   0.890  -2.463  0.00  0.00    +0.113 C 
ATOM      7  N   UNL     1      -3.878  -0.063  -1.423  0.00  0.00    -0.314 N 
ATOM      8  C   UNL     1      -2.539  -0.102  -1.288  0.00  0.00    +0.226 C 
ATOM      9  O   UNL     1      -1.937  -0.809  -0.508  0.00  0.00    -0.275 OA
ATOM     10  C   UNL     1      -1.894   0.869  -2.252  0.00  0.00    +0.171 C 
ATOM     11  H   UNL     1      -4.496  -0.598  -0.900  0.00  0.00    +0.149 HD
BRANCH   5  15
ATOM     12  C   UNL     1      -2.678   2.839  -6.820  0.00  0.00    +0.000 A 
ATOM     13  C   UNL     1      -2.675   3.827  -5.854  0.00  0.00    +0.000 A 
ATOM     14  C   UNL     1      -2.796   3.489  -4.519  0.00  0.00    +0.004 A 
ATOM     15  C   UNL     1      -2.920   2.162  -4.151  0.00  0.00    -0.042 A 
ATOM     16  C   UNL     1      -2.917   1.173  -5.117  0.00  0.00    +0.004 A 
ATOM     17  C   UNL     1      -2.800   1.512  -6.452  0.00  0.00    +0.000 A 
ENDBRANCH   5  15
ENDBRANCH   1  10
BRANCH   3  18
ATOM     18  N   UNL     1       1.304   1.785  -0.488  0.00  0.00    -0.188 NA
ATOM     19  C   UNL     1       2.377   1.185  -0.071  0.00  0.00    +0.139 C 
BRANCH  19  20
ATOM     20  C   UNL     1       2.484  -0.282  -0.168  0.00  0.00    +0.012 A 
ATOM     21  C   UNL     1       1.331  -1.072  -0.165  0.00  0.00    +0.060 A 
ATOM     22  C   UNL     1       1.437  -2.446  -0.256  0.00  0.00    +0.167 A 
ATOM     23  C   UNL     1       2.693  -3.045  -0.351  0.00  0.00    +0.167 A 
ATOM     24  C   UNL     1       3.838  -2.262  -0.353  0.00  0.00    +0.065 A 
ATOM     25  C   UNL     1       3.740  -0.888  -0.268  0.00  0.00    +0.030 A 
ATOM     26 BR   UNL     1       5.304   0.175  -0.280  0.00  0.00    -0.050 Br
ATOM     27  O   UNL     1       2.526  -4.397  -0.428  0.00  0.00    -0.453 OA
ATOM     28  C   UNL     1       1.147  -4.595  -0.792  0.00  0.00    +0.466 C 
ATOM     29  O   UNL     1       0.485  -3.426  -0.275  0.00  0.00    -0.453 OA
ENDBRANCH  19  20
ENDBRANCH   3  18
TORSDOF 4
