REMARK  Name = ZINC15001248
REMARK  11 active torsions:
REMARK  status: ('A' for Active; 'I' for Inactive)
REMARK    1  A    between atoms: C_1  and  O_2
REMARK    2  A    between atoms: O_2  and  C_3
REMARK    3  A    between atoms: C_6  and  C_9
REMARK    4  A    between atoms: C_9  and  C_10
REMARK    5  A    between atoms: C_10  and  N_65
REMARK    6  A    between atoms: C_11  and  N_65
REMARK    7  A    between atoms: N_22  and  C_25
REMARK    8  A    between atoms: C_25  and  C_26
REMARK    9  A    between atoms: C_26  and  C_27
REMARK   10  A    between atoms: C_32  and  O_33
REMARK   11  A    between atoms: O_33  and  C_34
REMARK                            x       y       z     vdW  Elec       q    Type
REMARK                         _______ _______ _______ _____ _____    ______ ____
ROOT
ATOM      1  C   UNL     1       1.135   6.083   2.838  0.00  0.00    -0.067 C 
ATOM      2  C   UNL     1       1.723   7.497   2.851  0.00  0.00    -0.011 C 
ATOM      3  C   UNL     1       1.962   7.946   4.293  0.00  0.00    +0.035 C 
ATOM      4  C   UNL     1       0.671   7.767   5.087  0.00  0.00    -0.023 A 
ATOM      5  C   UNL     1      -0.308   6.951   4.632  0.00  0.00    -0.006 A 
ATOM      6  S   UNL     1      -1.596   7.047   5.850  0.00  0.00    -0.073 S 
ATOM      7  C   UNL     1      -0.820   8.176   6.963  0.00  0.00    +0.116 A 
ATOM      8  C   UNL     1       0.422   8.443   6.348  0.00  0.00    +0.076 A 
ATOM      9  C   UNL     1       1.305   9.349   7.027  0.00  0.00    +0.262 A 
ATOM     10  O   UNL     1       2.400   9.645   6.580  0.00  0.00    -0.267 OA
ATOM     11  N   UNL     1       0.844   9.853   8.196  0.00  0.00    -0.298 N 
ATOM     12  C   UNL     1      -0.369   9.536   8.710  0.00  0.00    +0.203 A 
ATOM     13  N   UNL     1      -1.205   8.711   8.118  0.00  0.00    -0.230 NA
ATOM     14  C   UNL     1      -0.303   6.144   3.371  0.00  0.00    +0.027 C 
ENDROOT
BRANCH   1  15
ATOM     15  N   UNL     1       1.130   5.570   1.455  0.00  0.00    +0.381 N 
ATOM     16  H   UNL     1       0.282   5.895   0.976  0.00  0.00    -0.086 HD
ATOM     17  H   UNL     1       1.958   5.921   0.961  0.00  0.00    -0.086 HD
BRANCH  15  18
ATOM     18  C   UNL     1       1.153   4.095   1.456  0.00  0.00    -0.078 C 
BRANCH  18  19
ATOM     19  C   UNL     1       1.147   3.593   0.011  0.00  0.00    +0.016 C 
BRANCH  19  23
ATOM     20  C   UNL     1       1.213  -0.680  -0.013  0.00  0.00    +0.120 A 
ATOM     21  C   UNL     1       0.002  -0.004   0.002  0.00  0.00    +0.046 A 
ATOM     22  C   UNL     1      -0.017   1.377   0.010  0.00  0.00    +0.007 A 
ATOM     23  C   UNL     1       1.171   2.086   0.002  0.00  0.00    -0.049 A 
ATOM     24  C   UNL     1       2.379   1.415  -0.013  0.00  0.00    +0.007 A 
ATOM     25  C   UNL     1       2.403   0.033  -0.021  0.00  0.00    +0.046 A 
BRANCH  20  27
ATOM     26  C   UNL     1       2.518  -2.668  -0.036  0.00  0.00    +0.277 C 
ATOM     27  O   UNL     1       1.234  -2.039  -0.020  0.00  0.00    -0.495 OA
ENDBRANCH  20  27
ENDBRANCH  19  23
ENDBRANCH  18  19
ENDBRANCH  15  18
ENDBRANCH   1  15
BRANCH  11  28
ATOM     28  C   UNL     1       1.696  10.783   8.940  0.00  0.00    +0.131 C 
BRANCH  28  29
ATOM     29  C   UNL     1       2.582   9.999   9.909  0.00  0.00    +0.060 C 
BRANCH  29  30
ATOM     30  C   UNL     1       3.459  10.956  10.675  0.00  0.00    -0.004 A 
ATOM     31  C   UNL     1       4.744  11.217  10.239  0.00  0.00    +0.007 A 
ATOM     32  C   UNL     1       5.547  12.098  10.938  0.00  0.00    +0.000 A 
ATOM     33  C   UNL     1       5.071  12.713  12.081  0.00  0.00    +0.004 A 
ATOM     34  C   UNL     1       3.789  12.452  12.525  0.00  0.00    +0.046 A 
ATOM     35  C   UNL     1       2.979  11.571  11.822  0.00  0.00    +0.123 A 
BRANCH  35  36
ATOM     36  O   UNL     1       1.718  11.312  12.256  0.00  0.00    -0.495 OA
ATOM     37  C   UNL     1       1.290  11.982  13.444  0.00  0.00    +0.277 C 
ENDBRANCH  35  36
ENDBRANCH  29  30
ENDBRANCH  28  29
ENDBRANCH  11  28
TORSDOF 9
