REMARK  Name = ZINC24650501
REMARK  8 active torsions:
REMARK  status: ('A' for Active; 'I' for Inactive)
REMARK    1  A    between atoms: C_1  and  C_2
REMARK    2  A    between atoms: C_7  and  C_25
REMARK    3  A    between atoms: C_11  and  C_12
REMARK    4  A    between atoms: N_14  and  C_15
REMARK    5  A    between atoms: C_15  and  C_16
REMARK    6  A    between atoms: N_18  and  C_19
REMARK    7  A    between atoms: C_19  and  C_20
REMARK    8  A    between atoms: C_25  and  C_26
REMARK                            x       y       z     vdW  Elec       q    Type
REMARK                         _______ _______ _______ _____ _____    ______ ____
ROOT
ATOM      1  C   UNL     1      -0.168   8.450  -5.855  0.00  0.00    +0.046 C 
ATOM      2  C   UNL     1      -0.144   7.025  -5.367  0.00  0.00    -0.017 A 
ATOM      3  C   UNL     1      -0.128   6.755  -3.996  0.00  0.00    +0.075 A 
ATOM      4  C   UNL     1      -0.130   7.700  -2.856  0.00  0.00    +0.282 A 
ATOM      5  O   UNL     1      -0.148   8.904  -3.042  0.00  0.00    -0.265 OA
ATOM      6  N   UNL     1      -0.117   7.194  -1.607  0.00  0.00    -0.195 NA
ATOM      7  C   UNL     1      -0.091   5.856  -1.389  0.00  0.00    +0.116 A 
ATOM      8  N   UNL     1      -0.088   4.996  -2.371  0.00  0.00    -0.337 N 
ATOM      9  C   UNL     1      -0.106   5.388  -3.638  0.00  0.00    +0.092 A 
ATOM     10  S   UNL     1      -0.110   4.556  -5.206  0.00  0.00    -0.066 S 
ATOM     11  C   UNL     1      -0.139   5.995  -6.261  0.00  0.00    +0.079 A 
ATOM     12  H   UNL     1      -0.072   3.917  -2.157  0.00  0.00    +0.168 HD
ENDROOT
BRANCH  11  13
ATOM     13  C   UNL     1      -0.154   6.056  -7.726  0.00  0.00    +0.251 C 
ATOM     14  O   UNL     1      -0.175   7.134  -8.290  0.00  0.00    -0.270 OA
ATOM     15  N   UNL     1      -0.146   4.918  -8.448  0.00  0.00    -0.302 N 
ATOM     16  H   UNL     1      -0.128   3.943  -7.938  0.00  0.00    +0.150 HD
BRANCH  15  17
ATOM     17  C   UNL     1      -0.161   4.979  -9.912  0.00  0.00    +0.200 C 
BRANCH  17  18
ATOM     18  C   UNL     1      -0.148   3.580 -10.473  0.00  0.00    +0.231 C 
ATOM     19  O   UNL     1      -0.128   2.626  -9.723  0.00  0.00    -0.274 OA
ATOM     20  N   UNL     1      -0.159   3.389 -11.807  0.00  0.00    -0.307 N 
ATOM     21  H   UNL     1      -0.177   4.254 -12.486  0.00  0.00    +0.149 HD
BRANCH  20  22
ATOM     22  C   UNL     1      -0.145   2.029 -12.352  0.00  0.00    +0.178 C 
BRANCH  22  23
ATOM     23  C   UNL     1      -0.161   2.092 -13.858  0.00  0.00    +0.122 A 
ATOM     24  C   UNL     1       0.921   2.139 -14.654  0.00  0.00    +0.046 A 
ATOM     25  C   UNL     1       0.448   2.188 -15.986  0.00  0.00    +0.041 A 
ATOM     26  C   UNL     1      -0.895   2.168 -15.923  0.00  0.00    +0.195 A 
ATOM     27  O   UNL     1      -1.259   2.103 -14.632  0.00  0.00    -0.466 OA
ENDBRANCH  22  23
ENDBRANCH  20  22
ENDBRANCH  17  18
ENDBRANCH  15  17
ENDBRANCH  11  13
BRANCH   7  28
ATOM     28  C   UNL     1      -0.070   5.347   0.030  0.00  0.00    +0.109 C 
BRANCH  28  29
ATOM     29  C   UNL     1      -0.050   3.840   0.022  0.00  0.00    -0.040 A 
ATOM     30  C   UNL     1       1.156   3.165   0.008  0.00  0.00    +0.004 A 
ATOM     31  C   UNL     1       1.175   1.783   0.000  0.00  0.00    +0.000 A 
ATOM     32  C   UNL     1      -0.013   1.076   0.008  0.00  0.00    +0.000 A 
ATOM     33  C   UNL     1      -1.219   1.751   0.017  0.00  0.00    +0.000 A 
ATOM     34  C   UNL     1      -1.238   3.133   0.030  0.00  0.00    +0.004 A 
ENDBRANCH  28  29
ENDBRANCH   7  28
TORSDOF 7
