REMARK  Name = ZINC56206809
REMARK  12 active torsions:
REMARK  status: ('A' for Active; 'I' for Inactive)
REMARK    1  A    between atoms: C_1  and  C_2
REMARK    2  A    between atoms: C_4  and  O_24
REMARK    3  A    between atoms: C_7  and  N_8
REMARK    4  A    between atoms: N_8  and  C_9
REMARK    5  A    between atoms: C_9  and  C_11
REMARK    6  A    between atoms: C_9  and  C_12
REMARK    7  A    between atoms: N_14  and  C_15
REMARK    8  A    between atoms: C_20  and  C_21
REMARK    9  A    between atoms: C_21  and  C_22
REMARK   10  A    between atoms: C_21  and  C_23
REMARK   11  A    between atoms: O_24  and  C_25
REMARK   12  A    between atoms: C_25  and  C_26
REMARK                            x       y       z     vdW  Elec       q    Type
REMARK                         _______ _______ _______ _____ _____    ______ ____
ROOT
ATOM      1  N   UNL     1       0.041  -0.022   2.413  0.00  0.00    -0.333 N 
ATOM      2  H   UNL     1       0.021   0.948   2.418  0.00  0.00    +0.147 HD
ENDROOT
BRANCH   1   9
ATOM      3  C   UNL     1      -0.002   1.491   0.005  0.00  0.00    +0.046 C 
ATOM      4  C   UNL     1       0.030  -0.015  -0.002  0.00  0.00    -0.026 A 
ATOM      5  C   UNL     1       0.044  -0.701  -1.201  0.00  0.00    +0.050 A 
ATOM      6  C   UNL     1       0.073  -2.087  -1.208  0.00  0.00    +0.122 A 
ATOM      7  C   UNL     1       0.087  -2.787  -0.010  0.00  0.00    +0.047 A 
ATOM      8  C   UNL     1       0.073  -2.104   1.190  0.00  0.00    +0.027 A 
ATOM      9  C   UNL     1       0.050  -0.715   1.197  0.00  0.00    +0.031 A 
BRANCH   6  10
ATOM     10  O   UNL     1       0.086  -2.761  -2.389  0.00  0.00    -0.483 OA
BRANCH  10  11
ATOM     11  C   UNL     1       0.116  -4.188  -2.322  0.00  0.00    +0.324 C 
BRANCH  11  12
ATOM     12  C   UNL     1       0.127  -4.756  -3.717  0.00  0.00    +0.248 C 
ATOM     13  O   UNL     1       0.111  -4.013  -4.675  0.00  0.00    -0.272 OA
ATOM     14  N   UNL     1       0.155  -6.091  -3.901  0.00  0.00    -0.327 N 
ATOM     15  H   UNL     1       0.167  -6.686  -3.135  0.00  0.00    +0.145 HD
ATOM     16  H   UNL     1       0.162  -6.457  -4.799  0.00  0.00    +0.145 HD
ENDBRANCH  11  12
ENDBRANCH  10  11
ENDBRANCH   6  10
ENDBRANCH   1   9
BRANCH   1  17
ATOM     17  C   UNL     1       0.063  -0.761   3.678  0.00  0.00    +0.154 C 
ATOM     18  C   UNL     1      -1.365  -1.156   4.061  0.00  0.00    +0.038 C 
BRANCH  17  19
ATOM     19  C   UNL     1       0.650   0.110   4.758  0.00  0.00    +0.237 C 
ATOM     20  O   UNL     1       1.015   1.237   4.497  0.00  0.00    -0.273 OA
ATOM     21  N   UNL     1       0.770  -0.363   6.014  0.00  0.00    -0.284 N 
ATOM     22  H   UNL     1       0.406  -1.233   6.242  0.00  0.00    +0.155 HD
BRANCH  21  23
ATOM     23  C   UNL     1       1.420   0.400   6.991  0.00  0.00    +0.037 A 
ATOM     24  C   UNL     1       2.363   1.349   6.619  0.00  0.00    +0.023 A 
ATOM     25  C   UNL     1       3.002   2.101   7.585  0.00  0.00    +0.002 A 
ATOM     26  C   UNL     1       2.704   1.909   8.921  0.00  0.00    +0.000 A 
ATOM     27  C   UNL     1       1.766   0.965   9.295  0.00  0.00    +0.006 A 
ATOM     28  C   UNL     1       1.118   0.215   8.333  0.00  0.00    -0.024 A 
BRANCH  28  29
ATOM     29  C   UNL     1       0.090  -0.809   8.741  0.00  0.00    +0.015 C 
ATOM     30  C   UNL     1       0.709  -1.779   9.750  0.00  0.00    +0.012 C 
ATOM     31  C   UNL     1      -1.107  -0.103   9.381  0.00  0.00    +0.012 C 
ENDBRANCH  28  29
ENDBRANCH  21  23
ENDBRANCH  17  19
ENDBRANCH   1  17
TORSDOF 8
