REMARK  Name = ZINC40685704
REMARK  5 active torsions:
REMARK  status: ('A' for Active; 'I' for Inactive)
REMARK    1  A    between atoms: C_1  and  C_2
REMARK    2  A    between atoms: C_6  and  N_8
REMARK    3  A    between atoms: C_10  and  N_27
REMARK    4  A    between atoms: C_11  and  O_15
REMARK    5  A    between atoms: O_15  and  C_16
REMARK                            x       y       z     vdW  Elec       q    Type
REMARK                         _______ _______ _______ _____ _____    ______ ____
ROOT
ATOM      1  N   UNL     1       0.011  -2.639   2.407  0.00  0.00    -0.283 N 
ATOM      2  C   UNL     1      -0.079  -4.026   2.461  0.00  0.00    +0.152 A 
ATOM      3  C   UNL     1      -0.149  -4.685   3.691  0.00  0.00    +0.128 A 
ATOM      4  C   UNL     1      -0.239  -6.076   3.688  0.00  0.00    +0.246 A 
ATOM      5  N   UNL     1      -0.255  -6.719   2.524  0.00  0.00    -0.199 NA
ATOM      6  C   UNL     1      -0.187  -6.060   1.385  0.00  0.00    +0.227 A 
ATOM      7  N   UNL     1      -0.106  -4.745   1.342  0.00  0.00    -0.218 NA
ATOM      8  H   UNL     1       0.098  -2.126   3.226  0.00  0.00    +0.155 HD
ENDROOT
BRANCH   1  14
ATOM      9  C   UNL     1      -0.072  -2.968  -2.369  0.00  0.00    +0.065 C 
ATOM     10  C   UNL     1      -0.062  -2.117  -1.126  0.00  0.00    +0.040 A 
ATOM     11  C   UNL     1      -0.087  -0.741  -1.242  0.00  0.00    +0.023 A 
ATOM     12  C   UNL     1      -0.078   0.038  -0.093  0.00  0.00    +0.005 A 
ATOM     13  C   UNL     1      -0.045  -0.597   1.136  0.00  0.00    +0.044 A 
ATOM     14  C   UNL     1      -0.022  -1.987   1.178  0.00  0.00    +0.124 A 
ATOM     15  N   UNL     1      -0.036  -2.696   0.059  0.00  0.00    -0.237 NA
ENDBRANCH   1  14
BRANCH   3  16
ATOM     16  N   UNL     1      -0.130  -3.966   4.896  0.00  0.00    -0.351 N 
ATOM     17  H   UNL     1      -0.066  -2.998   4.883  0.00  0.00    +0.143 HD
ATOM     18  H   UNL     1      -0.179  -4.437   5.742  0.00  0.00    +0.143 HD
ENDBRANCH   3  16
BRANCH   4  19
ATOM     19  O   UNL     1      -0.310  -6.764   4.855  0.00  0.00    -0.434 OA
BRANCH  19  20
ATOM     20  C   UNL     1      -0.284  -8.121   4.798  0.00  0.00    +0.156 A 
ATOM     21  C   UNL     1      -1.455  -8.840   4.870  0.00  0.00    +0.049 A 
ATOM     22  C   UNL     1      -1.444 -10.230   4.812  0.00  0.00    +0.019 A 
ATOM     23  C   UNL     1      -0.274 -10.917   4.684  0.00  0.00    +0.027 A 
ATOM     24  C   UNL     1       0.942 -10.218   4.608  0.00  0.00    +0.018 A 
ATOM     25  C   UNL     1       0.943  -8.803   4.660  0.00  0.00    +0.114 A 
ATOM     26  N   UNL     1       2.098  -8.135   4.583  0.00  0.00    -0.251 NA
ATOM     27  C   UNL     1       3.241  -8.762   4.455  0.00  0.00    +0.111 A 
ATOM     28  C   UNL     1       3.311 -10.152   4.392  0.00  0.00    +0.020 A 
ATOM     29  C   UNL     1       2.168 -10.896   4.476  0.00  0.00    +0.013 A 
ATOM     30 BR   UNL     1      -0.288 -12.806   4.609  0.00  0.00    -0.050 Br
ENDBRANCH  19  20
ENDBRANCH   4  19
TORSDOF 4
