REMARK  Name = ZINC40144265
REMARK  12 active torsions:
REMARK  status: ('A' for Active; 'I' for Inactive)
REMARK    1  A    between atoms: C_1  and  C_2
REMARK    2  A    between atoms: C_2  and  C_3
REMARK    3  A    between atoms: C_2  and  O_4
REMARK    4  A    between atoms: O_4  and  C_5
REMARK    5  A    between atoms: C_8  and  C_13
REMARK    6  A    between atoms: C_10  and  O_11
REMARK    7  A    between atoms: O_11  and  C_12
REMARK    8  A    between atoms: C_13  and  C_15
REMARK    9  A    between atoms: C_13  and  N_28
REMARK   10  A    between atoms: C_15  and  C_17
REMARK   11  A    between atoms: C_15  and  C_19
REMARK   12  A    between atoms: C_29  and  N_30
REMARK                            x       y       z     vdW  Elec       q    Type
REMARK                         _______ _______ _______ _____ _____    ______ ____
ROOT
ATOM      1  C   UNL     1      -3.799  -0.921  -5.041  0.00  0.00    +0.160 C 
ENDROOT
BRANCH   1   2
ATOM      2  N   UNL     1      -3.253   0.103  -5.935  0.00  0.00    -0.261 N 
ATOM      3  C   UNL     1      -3.978   1.040  -6.625  0.00  0.00    +0.117 A 
ATOM      4  C   UNL     1      -3.103   1.806  -7.342  0.00  0.00    +0.114 A 
ATOM      5  C   UNL     1      -1.807   1.333  -7.092  0.00  0.00    +0.266 A 
ATOM      6  O   UNL     1      -0.777   1.781  -7.567  0.00  0.00    -0.266 OA
ATOM      7  N   UNL     1      -1.898   0.300  -6.231  0.00  0.00    -0.261 N 
ATOM      8  H   UNL     1      -1.156  -0.217  -5.880  0.00  0.00    +0.190 HD
BRANCH   3   9
ATOM      9  N   UNL     1      -5.341   1.185  -6.598  0.00  0.00    -0.343 N 
ATOM     10  H   UNL     1      -5.881   0.590  -6.055  0.00  0.00    +0.144 HD
ATOM     11  H   UNL     1      -5.765   1.882  -7.123  0.00  0.00    +0.144 HD
ENDBRANCH   3   9
ENDBRANCH   1   2
BRANCH   1  15
ATOM     12  C   UNL     1      -2.568  -0.108  -1.027  0.00  0.00    +0.162 A 
ATOM     13  C   UNL     1      -1.623  -0.232  -2.033  0.00  0.00    +0.050 A 
ATOM     14  C   UNL     1      -2.024  -0.495  -3.329  0.00  0.00    +0.009 A 
ATOM     15  C   UNL     1      -3.367  -0.635  -3.626  0.00  0.00    -0.018 A 
ATOM     16  C   UNL     1      -4.315  -0.511  -2.627  0.00  0.00    +0.055 A 
ATOM     17  C   UNL     1      -3.920  -0.254  -1.324  0.00  0.00    +0.162 A 
BRANCH  17  18
ATOM     18  O   UNL     1      -4.850  -0.138  -0.340  0.00  0.00    -0.491 OA
ATOM     19  C   UNL     1      -6.219  -0.300  -0.718  0.00  0.00    +0.277 C 
ENDBRANCH  17  18
BRANCH  12  20
ATOM     20  O   UNL     1      -2.175   0.151   0.249  0.00  0.00    -0.486 OA
BRANCH  20  22
ATOM     21  C   UNL     1      -0.351   1.733   0.147  0.00  0.00    +0.051 C 
ATOM     22  C   UNL     1      -0.772   0.300   0.478  0.00  0.00    +0.167 C 
ATOM     23  C   UNL     1      -0.461   0.004   1.946  0.00  0.00    +0.051 C 
ENDBRANCH  20  22
ENDBRANCH  12  20
ENDBRANCH   1  15
BRANCH   1  24
ATOM     24  C   UNL     1      -3.280  -2.297  -5.464  0.00  0.00    +0.176 C 
BRANCH  24  25
ATOM     25  C   UNL     1      -3.712  -2.584  -6.879  0.00  0.00    +0.099 A 
ATOM     26  N   UNL     1      -4.925  -2.650  -7.345  0.00  0.00    -0.243 NA
ATOM     27  C   UNL     1      -5.184  -2.915  -8.642  0.00  0.00    +0.079 A 
ATOM     28  C   UNL     1      -6.418  -3.025  -9.315  0.00  0.00    +0.029 A 
ATOM     29  C   UNL     1      -6.459  -3.304 -10.646  0.00  0.00    +0.002 A 
ATOM     30  C   UNL     1      -5.299  -3.490 -11.386  0.00  0.00    +0.001 A 
ATOM     31  C   UNL     1      -4.069  -3.390 -10.761  0.00  0.00    +0.017 A 
ATOM     32  C   UNL     1      -4.018  -3.109  -9.418  0.00  0.00    +0.039 A 
ATOM     33  S   UNL     1      -2.734  -2.883  -8.215  0.00  0.00    -0.071 S 
ENDBRANCH  24  25
BRANCH  24  34
ATOM     34  C   UNL     1      -3.829  -3.326  -4.566  0.00  0.00    +0.075 C 
ATOM     35  N   UNL     1      -4.252  -4.120  -3.872  0.00  0.00    -0.196 NA
ENDBRANCH  24  34
ENDBRANCH   1  24
TORSDOF 9
