REMARK  Name = ZINC63127498
REMARK  8 active torsions:
REMARK  status: ('A' for Active; 'I' for Inactive)
REMARK    1  A    between atoms: C_1  and  C_2
REMARK    2  A    between atoms: C_4  and  C_10
REMARK    3  A    between atoms: C_5  and  N_8
REMARK    4  A    between atoms: N_8  and  C_9
REMARK    5  A    between atoms: N_12  and  C_13
REMARK    6  A    between atoms: C_13  and  C_14
REMARK    7  A    between atoms: C_14  and  C_16
REMARK    8  A    between atoms: C_14  and  C_21
REMARK                            x       y       z     vdW  Elec       q    Type
REMARK                         _______ _______ _______ _____ _____    ______ ____
ROOT
ATOM      1  C   UNL     1      -1.505   0.431  -4.763  0.00  0.00    +0.071 C 
ENDROOT
BRANCH   1   2
ATOM      2  C   UNL     1      -2.255   0.292  -6.063  0.00  0.00    -0.032 C 
ATOM      3  C   UNL     1      -1.871  -0.413  -7.152  0.00  0.00    -0.000 A 
ATOM      4  C   UNL     1      -0.686  -1.230  -7.441  0.00  0.00    +0.010 A 
ATOM      5  C   UNL     1      -0.579  -1.826  -8.650  0.00  0.00    +0.001 A 
ATOM      6  C   UNL     1      -1.569  -1.684  -9.632  0.00  0.00    +0.002 A 
ATOM      7  C   UNL     1      -2.686  -0.950  -9.441  0.00  0.00    +0.026 A 
ATOM      8  C   UNL     1      -2.902  -0.279  -8.206  0.00  0.00    +0.043 A 
ATOM      9  N   UNL     1      -3.885   0.479  -7.785  0.00  0.00    -0.380 N 
ATOM     10  C   UNL     1      -3.591   0.908  -6.413  0.00  0.00    +0.145 C 
ATOM     11  H   UNL     1      -4.676   0.715  -8.294  0.00  0.00    +0.160 HD
ENDBRANCH   1   2
BRANCH   1  12
ATOM     12  C   UNL     1      -1.201   1.885  -4.511  0.00  0.00    -0.002 A 
ATOM     13  C   UNL     1       0.002   2.494  -4.370  0.00  0.00    +0.012 A 
ATOM     14  C   UNL     1       0.041   3.857  -4.143  0.00  0.00    +0.008 A 
ATOM     15  C   UNL     1      -1.125   4.544  -4.068  0.00  0.00    +0.045 A 
ATOM     16  S   UNL     1      -2.332   3.255  -4.330  0.00  0.00    -0.101 S 
ENDBRANCH   1  12
BRANCH   1  17
ATOM     17  C   UNL     1      -2.362  -0.117  -3.620  0.00  0.00    +0.117 C 
BRANCH  17  20
ATOM     18  C   UNL     1      -2.144  -0.531  -1.229  0.00  0.00    +0.244 C 
ATOM     19  O   UNL     1      -3.290  -0.948  -1.227  0.00  0.00    -0.270 OA
ATOM     20  N   UNL     1      -1.589  -0.092  -2.376  0.00  0.00    -0.311 N 
ATOM     21  H   UNL     1      -0.677   0.240  -2.377  0.00  0.00    +0.149 HD
BRANCH  18  24
ATOM     22  C   UNL     1      -0.019   1.526   0.010  0.00  0.00    +0.030 C 
ATOM     23  C   UNL     1       0.002  -0.004   0.002  0.00  0.00    +0.099 C 
ATOM     24  C   UNL     1      -1.405  -0.507  -0.038  0.00  0.00    +0.060 C 
ATOM     25  C   UNL     1      -1.940  -0.948   1.155  0.00  0.00    +0.086 C 
ATOM     26  S   UNL     1      -0.620  -0.742   2.336  0.00  0.00    -0.028 S 
ATOM     27  N   UNL     1       0.736  -0.482   1.200  0.00  0.00    -0.251 NA
ATOM     28  H   UNL     1       1.365   0.228   1.546  0.00  0.00    +0.136 HD
BRANCH  25  29
ATOM     29  N   UNL     1      -3.203  -1.434   1.383  0.00  0.00    -0.340 N 
ATOM     30  C   UNL     1      -3.594  -1.857   2.730  0.00  0.00    +0.126 C 
ATOM     31  H   UNL     1      -3.837  -1.497   0.651  0.00  0.00    +0.146 HD
ENDBRANCH  25  29
ENDBRANCH  18  24
ENDBRANCH  17  20
ENDBRANCH   1  17
TORSDOF 6
