REMARK  Name = ZINC24269772
REMARK  10 active torsions:
REMARK  status: ('A' for Active; 'I' for Inactive)
REMARK    1  A    between atoms: C_1  and  C_2
REMARK    2  A    between atoms: C_2  and  C_4
REMARK    3  A    between atoms: C_2  and  S_18
REMARK    4  A    between atoms: C_4  and  C_6
REMARK    5  A    between atoms: C_6  and  C_16
REMARK    6  A    between atoms: S_18  and  C_19
REMARK    7  A    between atoms: N_29  and  C_30
REMARK    8  A    between atoms: C_30  and  C_31
REMARK    9  A    between atoms: C_31  and  C_32
REMARK   10  A    between atoms: C_31  and  C_33
REMARK                            x       y       z     vdW  Elec       q    Type
REMARK                         _______ _______ _______ _____ _____    ______ ____
ROOT
ATOM      1  C   UNL     1      -0.019   1.526   0.010  0.00  0.00    +0.028 C 
ATOM      2  C   UNL     1       0.002  -0.004   0.002  0.00  0.00    +0.123 C 
ENDROOT
BRANCH   2   3
ATOM      3  C   UNL     1      -1.412  -0.526   0.013  0.00  0.00    +0.189 C 
ATOM      4  O   UNL     1      -1.960  -0.817  -1.032  0.00  0.00    -0.290 OA
BRANCH   3   5
ATOM      5  C   UNL     1      -2.096  -0.676   1.231  0.00  0.00    +0.131 C 
ATOM      6  C   UNL     1      -3.415  -1.163   1.241  0.00  0.00    +0.114 C 
ATOM      7  N   UNL     1      -4.128  -1.525   0.143  0.00  0.00    -0.300 N 
ATOM      8  C   UNL     1      -5.384  -1.952   0.560  0.00  0.00    +0.054 A 
ATOM      9  C   UNL     1      -6.498  -2.424  -0.120  0.00  0.00    +0.025 A 
ATOM     10  C   UNL     1      -7.632  -2.780   0.583  0.00  0.00    +0.002 A 
ATOM     11  C   UNL     1      -7.663  -2.667   1.963  0.00  0.00    +0.002 A 
ATOM     12  C   UNL     1      -6.561  -2.198   2.648  0.00  0.00    +0.025 A 
ATOM     13  C   UNL     1      -5.415  -1.838   1.952  0.00  0.00    +0.054 A 
ATOM     14  N   UNL     1      -4.176  -1.350   2.350  0.00  0.00    -0.300 N 
ATOM     15  H   UNL     1      -3.815  -1.492  -0.774  0.00  0.00    +0.153 HD
ATOM     16  H   UNL     1      -3.902  -1.172   3.264  0.00  0.00    +0.153 HD
BRANCH   5  17
ATOM     17  C   UNL     1      -1.450  -0.333   2.462  0.00  0.00    +0.106 C 
ATOM     18  N   UNL     1      -0.937  -0.061   3.439  0.00  0.00    -0.191 NA
ENDBRANCH   5  17
ENDBRANCH   3   5
ENDBRANCH   2   3
BRANCH   2  19
ATOM     19  S   UNL     1       0.851  -0.589  -1.490  0.00  0.00    -0.076 S 
BRANCH  19  20
ATOM     20  C   UNL     1       2.509  -0.029  -1.285  0.00  0.00    +0.173 A 
ATOM     21  N   UNL     1       2.812   0.640  -0.200  0.00  0.00    -0.223 NA
ATOM     22  C   UNL     1       4.066   1.099   0.021  0.00  0.00    +0.079 A 
ATOM     23  C   UNL     1       4.391   1.812   1.179  0.00  0.00    +0.030 A 
ATOM     24  C   UNL     1       5.668   2.259   1.367  0.00  0.00    +0.022 A 
ATOM     25  C   UNL     1       6.657   2.016   0.420  0.00  0.00    +0.042 A 
ATOM     26  C   UNL     1       6.367   1.317  -0.732  0.00  0.00    +0.035 A 
ATOM     27  C   UNL     1       5.070   0.851  -0.943  0.00  0.00    +0.066 A 
ATOM     28  C   UNL     1       4.702   0.099  -2.150  0.00  0.00    +0.262 A 
ATOM     29  O   UNL     1       5.522  -0.145  -3.015  0.00  0.00    -0.267 OA
ATOM     30  N   UNL     1       3.419  -0.316  -2.262  0.00  0.00    -0.287 N 
ATOM     31 CL   UNL     1       8.269   2.599   0.691  0.00  0.00    -0.084 Cl
BRANCH  30  32
ATOM     32  C   UNL     1       3.001  -1.074  -3.444  0.00  0.00    +0.130 C 
BRANCH  32  33
ATOM     33  C   UNL     1       2.522  -0.106  -4.528  0.00  0.00    +0.003 C 
ATOM     34  C   UNL     1       3.696   0.758  -4.995  0.00  0.00    +0.009 C 
ATOM     35  C   UNL     1       1.970  -0.900  -5.713  0.00  0.00    +0.009 C 
ENDBRANCH  32  33
ENDBRANCH  30  32
ENDBRANCH  19  20
ENDBRANCH   2  19
TORSDOF 7
