REMARK  Name = ZINC00729386
REMARK  5 active torsions:
REMARK  status: ('A' for Active; 'I' for Inactive)
REMARK    1  A    between atoms: C_1  and  C_2
REMARK    2  A    between atoms: C_7  and  C_17
REMARK    3  A    between atoms: C_29  and  C_31
REMARK    4  A    between atoms: C_31  and  O_33
REMARK    5  A    between atoms: O_33  and  C_34
REMARK                            x       y       z     vdW  Elec       q    Type
REMARK                         _______ _______ _______ _____ _____    ______ ____
ROOT
ATOM      1  C   UNL     1       2.844   3.839   4.247  0.00  0.00    +0.009 C 
ATOM      2  C   UNL     1       4.166   3.075   4.164  0.00  0.00    +0.013 C 
ATOM      3  C   UNL     1       5.262   3.989   3.618  0.00  0.00    +0.055 C 
ATOM      4  C   UNL     1       4.887   4.480   2.231  0.00  0.00    +0.017 C 
ATOM      5  C   UNL     1       4.160   3.705   1.406  0.00  0.00    +0.037 C 
ATOM      6  C   UNL     1       3.731   4.064   0.004  0.00  0.00    +0.138 C 
ATOM      7  N   UNL     1       4.376   5.239  -0.542  0.00  0.00    -0.331 N 
ATOM      8  C   UNL     1       4.168   6.497   0.020  0.00  0.00    +0.049 A 
ATOM      9  C   UNL     1       3.531   7.508  -0.682  0.00  0.00    +0.025 A 
ATOM     10  C   UNL     1       3.305   8.726  -0.065  0.00  0.00    +0.002 A 
ATOM     11  C   UNL     1       3.705   8.934   1.243  0.00  0.00    +0.002 A 
ATOM     12  C   UNL     1       4.357   7.931   1.941  0.00  0.00    +0.025 A 
ATOM     13  C   UNL     1       4.605   6.721   1.317  0.00  0.00    +0.052 A 
ATOM     14  N   UNL     1       5.353   5.715   1.918  0.00  0.00    -0.316 N 
ATOM     15  C   UNL     1       3.724   2.428   1.830  0.00  0.00    +0.177 C 
ATOM     16  O   UNL     1       3.085   1.740   1.058  0.00  0.00    -0.291 OA
ATOM     17  C   UNL     1       4.023   1.892   3.198  0.00  0.00    +0.171 C 
ATOM     18  H   UNL     1       4.963   5.149  -1.309  0.00  0.00    +0.147 HD
ATOM     19  H   UNL     1       6.279   5.911   2.129  0.00  0.00    +0.152 HD
ENDROOT
BRANCH   6  20
ATOM     20  C   UNL     1       2.242   4.294   0.005  0.00  0.00    +0.002 A 
ATOM     21  C   UNL     1       1.501   4.722   1.039  0.00  0.00    +0.089 A 
ATOM     22  N   UNL     1       0.187   4.811   0.666  0.00  0.00    -0.360 N 
ATOM     23  H   UNL     1      -0.538   5.099   1.243  0.00  0.00    +0.165 HD
ATOM     24  C   UNL     1       0.047   4.433  -0.651  0.00  0.00    +0.047 A 
ATOM     25  C   UNL     1       1.328   4.092  -1.123  0.00  0.00    +0.005 A 
ATOM     26  C   UNL     1       1.494   3.666  -2.442  0.00  0.00    +0.010 A 
ATOM     27  C   UNL     1       0.409   3.582  -3.269  0.00  0.00    +0.001 A 
ATOM     28  C   UNL     1      -0.855   3.922  -2.809  0.00  0.00    +0.002 A 
ATOM     29  C   UNL     1      -1.042   4.340  -1.510  0.00  0.00    +0.026 A 
ENDBRANCH   6  20
BRANCH  17  30
ATOM     30  C   UNL     1       5.307   1.103   3.163  0.00  0.00    +0.318 C 
ATOM     31  O   UNL     1       6.241   1.438   3.853  0.00  0.00    -0.250 OA
BRANCH  30  32
ATOM     32  O   UNL     1       5.413   0.028   2.366  0.00  0.00    -0.467 OA
ATOM     33  C   UNL     1       6.678  -0.683   2.384  0.00  0.00    +0.280 C 
ENDBRANCH  30  32
ENDBRANCH  17  30
TORSDOF 3
