REMARK  Name = ZINC63985140
REMARK  4 active torsions:
REMARK  status: ('A' for Active; 'I' for Inactive)
REMARK    1  A    between atoms: C_10  and  N_11
REMARK    2  A    between atoms: C_12  and  O_36
REMARK    3  A    between atoms: C_15  and  O_35
REMARK    4  A    between atoms: C_16  and  C_20
REMARK                            x       y       z     vdW  Elec       q    Type
REMARK                         _______ _______ _______ _____ _____    ______ ____
ROOT
ATOM      1  N   UNL     1       4.979   0.163   0.147  0.00  0.00    -0.225 N 
ATOM      2  C   UNL     1       5.663   0.617   1.349  0.00  0.00    +0.338 C 
ATOM      3  N   UNL     1       6.563   1.727   1.080  0.00  0.00    -0.204 NA
ATOM      4  C   UNL     1       7.026   2.011  -0.075  0.00  0.00    +0.200 C 
ATOM      5  C   UNL     1       6.686   1.224  -1.306  0.00  0.00    +0.179 C 
ATOM      6  C   UNL     1       5.438   0.417  -1.085  0.00  0.00    +0.237 C 
ATOM      7  O   UNL     1       4.830  -0.009  -2.044  0.00  0.00    -0.274 OA
ENDROOT
BRANCH   5   8
ATOM      8  C   UNL     1       7.841   0.275  -1.635  0.00  0.00    +0.101 C 
ATOM      9  C   UNL     1       7.554  -0.449  -2.952  0.00  0.00    +0.124 C 
ATOM     10  C   UNL     1       8.657  -1.488  -3.116  0.00  0.00    -0.036 C 
ATOM     11  C   UNL     1       9.201  -1.275  -4.306  0.00  0.00    -0.001 A 
ATOM     12  C   UNL     1      10.240  -1.999  -5.055  0.00  0.00    +0.010 A 
ATOM     13  C   UNL     1      10.574  -1.484  -6.268  0.00  0.00    +0.001 A 
ATOM     14  C   UNL     1       9.985  -0.335  -6.805  0.00  0.00    +0.002 A 
ATOM     15  C   UNL     1       9.018   0.390  -6.189  0.00  0.00    +0.026 A 
ATOM     16  C   UNL     1       8.578  -0.056  -4.908  0.00  0.00    +0.043 A 
ATOM     17  N   UNL     1       7.649   0.436  -4.112  0.00  0.00    -0.376 N 
ATOM     18  C   UNL     1       9.014  -2.446  -2.005  0.00  0.00    +0.048 C 
ATOM     19  C   UNL     1       9.148  -1.593  -0.730  0.00  0.00    +0.085 C 
ATOM     20  N   UNL     1       7.971  -0.734  -0.571  0.00  0.00    -0.310 NA
ATOM     21  H   UNL     1       7.959  -0.301   0.341  0.00  0.00    +0.122 HD
ATOM     22  H   UNL     1       7.123   1.238  -4.258  0.00  0.00    +0.160 HD
ENDBRANCH   5   8
BRANCH   1  32
ATOM     23  C   UNL     1       0.075   1.328   0.414  0.00  0.00    +0.001 A 
ATOM     24  C   UNL     1       1.240   2.082   0.278  0.00  0.00    +0.001 A 
ATOM     25  C   UNL     1       2.461   1.481   0.233  0.00  0.00    +0.010 A 
ATOM     26  C   UNL     1       2.552   0.084   0.326  0.00  0.00    +0.004 A 
ATOM     27  C   UNL     1       1.369  -0.683   0.466  0.00  0.00    -0.016 A 
ATOM     28  C   UNL     1       0.126  -0.029   0.508  0.00  0.00    +0.008 A 
ATOM     29  C   UNL     1       1.459  -2.082   0.560  0.00  0.00    +0.008 A 
ATOM     30  C   UNL     1       2.677  -2.690   0.516  0.00  0.00    +0.002 A 
ATOM     31  C   UNL     1       3.846  -1.947   0.380  0.00  0.00    +0.024 A 
ATOM     32  C   UNL     1       3.800  -0.573   0.284  0.00  0.00    +0.048 A 
ENDBRANCH   1  32
BRANCH   4  33
ATOM     33  O   UNL     1       7.858   3.067  -0.194  0.00  0.00    -0.495 OA
ATOM     34  H   UNL     1       8.031   3.527   0.639  0.00  0.00    +0.293 HD
ENDBRANCH   4  33
BRANCH   2  35
ATOM     35  O   UNL     1       4.689   1.034   2.308  0.00  0.00    -0.356 OA
ATOM     36  H   UNL     1       5.067   1.352   3.139  0.00  0.00    +0.214 HD
ENDBRANCH   2  35
TORSDOF 4
