REMARK  Name = ZINC35747433
REMARK  14 active torsions:
REMARK  status: ('A' for Active; 'I' for Inactive)
REMARK    1  A    between atoms: C_1  and  C_2
REMARK    2  A    between atoms: C_2  and  C_3
REMARK    3  A    between atoms: C_2  and  N_4
REMARK    4  A    between atoms: N_4  and  C_5
REMARK    5  A    between atoms: N_4  and  C_25
REMARK    6  A    between atoms: C_5  and  C_6
REMARK    7  A    between atoms: C_12  and  C_17
REMARK    8  A    between atoms: C_20  and  O_23
REMARK    9  A    between atoms: O_23  and  C_24
REMARK   10  A    between atoms: C_25  and  C_26
REMARK   11  A    between atoms: C_26  and  C_28
REMARK   12  A    between atoms: C_26  and  O_37
REMARK   13  A    between atoms: C_28  and  O_29
REMARK   14  A    between atoms: O_29  and  C_30
REMARK                            x       y       z     vdW  Elec       q    Type
REMARK                         _______ _______ _______ _____ _____    ______ ____
ROOT
ATOM      1  C   UNL     1       1.838   0.023  -1.477  0.00  0.00    -0.003 C 
ENDROOT
BRANCH   1   2
ATOM      2  C   UNL     1       1.788   1.473  -1.884  0.00  0.00    +0.094 A 
ATOM      3  N   UNL     1       2.948   2.154  -2.073  0.00  0.00    -0.312 N 
ATOM      4  H   UNL     1       3.793   1.697  -1.943  0.00  0.00    +0.170 HD
ATOM      5  C   UNL     1       2.947   3.449  -2.437  0.00  0.00    +0.260 A 
ATOM      6  O   UNL     1       3.997   4.046  -2.604  0.00  0.00    -0.267 OA
ATOM      7  C   UNL     1       1.695   4.116  -2.627  0.00  0.00    +0.080 A 
ATOM      8  C   UNL     1       1.434   5.497  -3.016  0.00  0.00    +0.004 A 
ATOM      9  C   UNL     1       0.149   5.909  -3.134  0.00  0.00    +0.056 A 
ATOM     10  S   UNL     1      -0.791   4.451  -2.725  0.00  0.00    -0.076 S 
ATOM     11  C   UNL     1       0.549   3.333  -2.408  0.00  0.00    +0.116 A 
ATOM     12  N   UNL     1       0.630   2.053  -2.054  0.00  0.00    -0.229 NA
BRANCH   8  13
ATOM     13  C   UNL     1       2.554   6.432  -3.277  0.00  0.00    -0.016 A 
ATOM     14  C   UNL     1       3.591   6.555  -2.353  0.00  0.00    +0.012 A 
ATOM     15  C   UNL     1       4.632   7.426  -2.599  0.00  0.00    +0.046 A 
ATOM     16  C   UNL     1       4.648   8.180  -3.765  0.00  0.00    +0.120 A 
ATOM     17  C   UNL     1       3.617   8.060  -4.686  0.00  0.00    +0.046 A 
ATOM     18  C   UNL     1       2.576   7.186  -4.449  0.00  0.00    +0.012 A 
BRANCH  16  19
ATOM     19  O   UNL     1       5.675   9.037  -4.004  0.00  0.00    -0.495 OA
ATOM     20  C   UNL     1       5.628   9.781  -5.223  0.00  0.00    +0.277 C 
ENDBRANCH  16  19
ENDBRANCH   8  13
ENDBRANCH   1   2
BRANCH   1  21
ATOM     21  N   UNL     1       0.479  -0.449  -1.178  0.00  0.00    +0.388 N 
ATOM     22  H   UNL     1      -0.172  -0.033  -1.827  0.00  0.00    -0.081 HD
BRANCH  21  24
ATOM     23  C   UNL     1       1.094  -0.707   1.178  0.00  0.00    -0.014 C 
ATOM     24  C   UNL     1       0.118  -0.063   0.193  0.00  0.00    -0.074 C 
ATOM     25  C   UNL     1       0.186   1.460   0.329  0.00  0.00    -0.014 C 
ENDBRANCH  21  24
BRANCH  21  26
ATOM     26  C   UNL     1       0.430  -1.911  -1.304  0.00  0.00    -0.043 C 
BRANCH  26  27
ATOM     27  C   UNL     1      -1.011  -2.391  -1.116  0.00  0.00    +0.135 C 
BRANCH  27  28
ATOM     28  O   UNL     1      -1.844  -1.800  -2.115  0.00  0.00    -0.390 OA
ATOM     29  H   UNL     1      -1.587  -2.018  -3.021  0.00  0.00    +0.210 HD
ENDBRANCH  27  28
BRANCH  27  30
ATOM     30  C   UNL     1      -1.062  -3.915  -1.245  0.00  0.00    +0.258 C 
BRANCH  30  31
ATOM     31  O   UNL     1      -2.384  -4.373  -0.955  0.00  0.00    -0.489 OA
BRANCH  31  32
ATOM     32  C   UNL     1      -2.602  -5.713  -1.025  0.00  0.00    +0.121 A 
ATOM     33  C   UNL     1      -1.563  -6.569  -1.361  0.00  0.00    +0.047 A 
ATOM     34  C   UNL     1      -1.786  -7.930  -1.432  0.00  0.00    +0.023 A 
ATOM     35  C   UNL     1      -3.045  -8.440  -1.169  0.00  0.00    +0.041 A 
ATOM     36  C   UNL     1      -4.083  -7.588  -0.834  0.00  0.00    +0.023 A 
ATOM     37  C   UNL     1      -3.862  -6.227  -0.755  0.00  0.00    +0.047 A 
ATOM     38 CL   UNL     1      -3.323 -10.152  -1.259  0.00  0.00    -0.084 Cl
ENDBRANCH  31  32
ENDBRANCH  30  31
ENDBRANCH  27  30
ENDBRANCH  26  27
ENDBRANCH  21  26
ENDBRANCH   1  21
TORSDOF 11
