REMARK  Name = ZINC49243792
REMARK  10 active torsions:
REMARK  status: ('A' for Active; 'I' for Inactive)
REMARK    1  A    between atoms: C_1  and  N_2
REMARK    2  A    between atoms: N_2  and  C_3
REMARK    3  A    between atoms: N_2  and  S_4
REMARK    4  A    between atoms: S_4  and  C_7
REMARK    5  A    between atoms: C_12  and  C_13
REMARK    6  A    between atoms: C_13  and  N_14
REMARK    7  A    between atoms: N_17  and  C_18
REMARK    8  A    between atoms: C_18  and  C_19
REMARK    9  A    between atoms: C_19  and  C_21
REMARK   10  A    between atoms: C_19  and  O_29
REMARK                            x       y       z     vdW  Elec       q    Type
REMARK                         _______ _______ _______ _____ _____    ______ ____
ROOT
ATOM      1  N   UNL     1       1.628   1.822  -0.505  0.00  0.00    -0.295 N 
ATOM      2  C   UNL     1       1.032   2.933  -0.029  0.00  0.00    +0.300 C 
ATOM      3  O   UNL     1       0.548   3.740  -0.799  0.00  0.00    -0.253 OA
ATOM      4  N   UNL     1       0.972   3.149   1.300  0.00  0.00    -0.297 N 
ATOM      5  H   UNL     1       2.014   1.178   0.109  0.00  0.00    +0.151 HD
ATOM      6  H   UNL     1       1.358   2.505   1.914  0.00  0.00    +0.150 HD
ENDROOT
BRANCH   1   7
ATOM      7  C   UNL     1       1.693   1.587  -1.950  0.00  0.00    +0.143 C 
BRANCH   7  13
ATOM      8  C   UNL     1       1.599  -0.909  -2.103  0.00  0.00    +0.110 A 
ATOM      9  C   UNL     1       2.191  -2.134  -2.350  0.00  0.00    +0.029 A 
ATOM     10  C   UNL     1       3.526  -2.197  -2.701  0.00  0.00    +0.002 A 
ATOM     11  C   UNL     1       4.270  -1.036  -2.806  0.00  0.00    +0.000 A 
ATOM     12  C   UNL     1       3.677   0.188  -2.560  0.00  0.00    +0.007 A 
ATOM     13  C   UNL     1       2.341   0.252  -2.213  0.00  0.00    -0.004 A 
BRANCH   8  14
ATOM     14  S   UNL     1      -0.103  -0.829  -1.655  0.00  0.00    +0.061 S 
ATOM     15  O   UNL     1      -0.817  -0.482  -2.833  0.00  0.00    -0.153 OA
ATOM     16  O   UNL     1      -0.174  -0.054  -0.465  0.00  0.00    -0.153 OA
BRANCH  14  18
ATOM     17  C   UNL     1      -0.349  -2.865   0.109  0.00  0.00    +0.131 C 
ATOM     18  N   UNL     1      -0.576  -2.363  -1.249  0.00  0.00    -0.183 NA
ATOM     19  C   UNL     1      -1.222  -3.218  -2.247  0.00  0.00    +0.131 C 
ENDBRANCH  14  18
ENDBRANCH   8  14
ENDBRANCH   7  13
ENDBRANCH   1   7
BRANCH   4  20
ATOM     20  C   UNL     1       0.324   4.357   1.817  0.00  0.00    +0.141 C 
BRANCH  20  21
ATOM     21  C   UNL     1       0.393   4.358   3.346  0.00  0.00    +0.162 C 
BRANCH  21  22
ATOM     22  C   UNL     1      -0.274   5.600   3.878  0.00  0.00    -0.015 A 
ATOM     23  C   UNL     1      -1.642   5.619   4.076  0.00  0.00    +0.009 A 
ATOM     24  C   UNL     1      -2.256   6.757   4.564  0.00  0.00    +0.041 A 
ATOM     25  C   UNL     1      -1.500   7.880   4.855  0.00  0.00    +0.158 A 
ATOM     26  C   UNL     1      -0.128   7.861   4.656  0.00  0.00    +0.159 A 
ATOM     27  C   UNL     1       0.484   6.718   4.172  0.00  0.00    +0.047 A 
ATOM     28  F   UNL     1       0.611   8.956   4.939  0.00  0.00    -0.202 F 
ATOM     29  F   UNL     1      -2.099   8.993   5.332  0.00  0.00    -0.202 F 
ENDBRANCH  21  22
BRANCH  21  30
ATOM     30  O   UNL     1      -0.279   3.203   3.853  0.00  0.00    -0.386 OA
ATOM     31  H   UNL     1      -1.213   3.152   3.610  0.00  0.00    +0.210 HD
ENDBRANCH  21  30
ENDBRANCH  20  21
ENDBRANCH   4  20
TORSDOF 8
