REMARK  Name = ZINC66955668
REMARK  6 active torsions:
REMARK  status: ('A' for Active; 'I' for Inactive)
REMARK    1  A    between atoms: C_1  and  C_2
REMARK    2  A    between atoms: C_2  and  C_4
REMARK    3  A    between atoms: C_2  and  S_7
REMARK    4  A    between atoms: C_4  and  C_5
REMARK    5  A    between atoms: S_7  and  C_8
REMARK    6  A    between atoms: C_13  and  N_14
REMARK                            x       y       z     vdW  Elec       q    Type
REMARK                         _______ _______ _______ _____ _____    ______ ____
ROOT
ATOM      1  N   UNL     1       0.869  -1.141  -4.501  0.00  0.00    -0.268 N 
ATOM      2  C   UNL     1       0.991  -1.542  -5.782  0.00  0.00    +0.307 C 
ATOM      3  O   UNL     1       0.255  -1.084  -6.635  0.00  0.00    -0.252 OA
ATOM      4  N   UNL     1       1.929  -2.449  -6.118  0.00  0.00    -0.282 N 
ATOM      5  C   UNL     1       2.707  -3.046  -5.070  0.00  0.00    +0.113 C 
ATOM      6  C   UNL     1       4.116  -3.346  -5.485  0.00  0.00    +0.007 C 
ATOM      7  C   UNL     1       4.771  -2.194  -6.228  0.00  0.00    +0.008 C 
ATOM      8  C   UNL     1       4.532  -2.201  -7.725  0.00  0.00    -0.009 C 
ATOM      9  C   UNL     1       4.840  -3.577  -8.323  0.00  0.00    +0.007 C 
ATOM     10  C   UNL     1       3.920  -4.587  -7.634  0.00  0.00    -0.009 C 
ATOM     11  C   UNL     1       4.319  -4.673  -6.161  0.00  0.00    +0.008 C 
ATOM     12  C   UNL     1       2.466  -4.200  -7.770  0.00  0.00    +0.026 C 
ATOM     13  C   UNL     1       2.099  -2.780  -7.521  0.00  0.00    +0.078 C 
ATOM     14  C   UNL     1       3.113  -1.819  -8.119  0.00  0.00    +0.026 C 
ATOM     15  H   UNL     1       1.505  -1.445  -3.835  0.00  0.00    +0.156 HD
ENDROOT
BRANCH   1  21
ATOM     16  C   UNL     1      -0.730  -0.367  -2.853  0.00  0.00    +0.029 A 
ATOM     17  C   UNL     1      -1.762   0.488  -2.492  0.00  0.00    +0.016 A 
ATOM     18  C   UNL     1      -2.241   1.414  -3.398  0.00  0.00    +0.001 A 
ATOM     19  C   UNL     1      -1.696   1.492  -4.667  0.00  0.00    +0.002 A 
ATOM     20  C   UNL     1      -0.669   0.644  -5.036  0.00  0.00    +0.024 A 
ATOM     21  C   UNL     1      -0.177  -0.284  -4.131  0.00  0.00    +0.048 A 
BRANCH  16  22
ATOM     22  S   UNL     1      -0.117  -1.548  -1.699  0.00  0.00    -0.119 S 
BRANCH  22  24
ATOM     23  C   UNL     1      -0.435   0.196   0.383  0.00  0.00    +0.020 C 
ATOM     24  C   UNL     1      -0.968  -1.134  -0.152  0.00  0.00    +0.062 C 
BRANCH  24  25
ATOM     25  C   UNL     1      -0.717  -2.236   0.879  0.00  0.00    +0.132 C 
BRANCH  25  26
ATOM     26  C   UNL     1      -1.335  -3.490   0.418  0.00  0.00    +0.064 C 
ATOM     27  N   UNL     1      -1.812  -4.457   0.062  0.00  0.00    -0.197 NA
ENDBRANCH  25  26
ENDBRANCH  24  25
ENDBRANCH  22  24
ENDBRANCH  16  22
ENDBRANCH   1  21
TORSDOF 5
