REMARK  Name = ZINC58197978
REMARK  6 active torsions:
REMARK  status: ('A' for Active; 'I' for Inactive)
REMARK    1  A    between atoms: C_4  and  C_7
REMARK    2  A    between atoms: C_8  and  C_18
REMARK    3  A    between atoms: N_10  and  C_12
REMARK    4  A    between atoms: C_18  and  N_19
REMARK    5  A    between atoms: N_21  and  C_22
REMARK    6  A    between atoms: C_22  and  C_23
REMARK                            x       y       z     vdW  Elec       q    Type
REMARK                         _______ _______ _______ _____ _____    ______ ____
ROOT
ATOM      1  C   UNL     1       3.699  -0.689  -0.037  0.00  0.00    +0.098 A 
ATOM      2  C   UNL     1       3.972  -1.914   0.603  0.00  0.00    +0.017 A 
ATOM      3  C   UNL     1       5.259  -2.236   0.350  0.00  0.00    +0.120 A 
ATOM      4  N   UNL     1       5.790  -1.254  -0.424  0.00  0.00    -0.239 N 
ATOM      5  N   UNL     1       4.793  -0.299  -0.658  0.00  0.00    -0.166 NA
ENDROOT
BRANCH   1   9
ATOM      6  C   UNL     1      -0.017   1.379   0.010  0.00  0.00    +0.000 A 
ATOM      7  C   UNL     1       1.169   2.092   0.002  0.00  0.00    +0.001 A 
ATOM      8  C   UNL     1       2.377   1.426  -0.013  0.00  0.00    +0.010 A 
ATOM      9  C   UNL     1       2.402   0.033  -0.021  0.00  0.00    +0.002 A 
ATOM     10  C   UNL     1       1.205  -0.680  -0.013  0.00  0.00    +0.010 A 
ATOM     11  C   UNL     1       0.002  -0.004   0.002  0.00  0.00    +0.001 A 
ENDBRANCH   1   9
BRANCH   4  12
ATOM     12  C   UNL     1       7.104  -1.207  -0.908  0.00  0.00    +0.065 A 
ATOM     13  C   UNL     1       7.993  -2.231  -0.609  0.00  0.00    +0.028 A 
ATOM     14  C   UNL     1       9.288  -2.182  -1.087  0.00  0.00    +0.002 A 
ATOM     15  C   UNL     1       9.700  -1.114  -1.863  0.00  0.00    +0.000 A 
ATOM     16  C   UNL     1       8.817  -0.092  -2.163  0.00  0.00    +0.002 A 
ATOM     17  C   UNL     1       7.519  -0.139  -1.693  0.00  0.00    +0.028 A 
ENDBRANCH   4  12
BRANCH   2  18
ATOM     18  C   UNL     1       3.001  -2.721   1.425  0.00  0.00    +0.154 C 
BRANCH  18  19
ATOM     19  N   UNL     1       2.128  -3.489   0.534  0.00  0.00    -0.354 N 
ATOM     20  C   UNL     1       1.155  -4.305   1.061  0.00  0.00    +0.169 C 
ATOM     21  N   UNL     1       0.378  -4.989   0.268  0.00  0.00    -0.355 N 
ATOM     22  N   UNL     1       1.001  -4.401   2.424  0.00  0.00    -0.371 N 
ATOM     23  H   UNL     1       2.236  -3.422  -0.427  0.00  0.00    +0.163 HD
ATOM     24  H   UNL     1       1.579  -3.892   3.014  0.00  0.00    +0.159 HD
ATOM     25  H   UNL     1       0.315  -4.977   2.796  0.00  0.00    +0.159 HD
ATOM     26  H   UNL     1       0.486  -4.921  -0.693  0.00  0.00    +0.162 HD
BRANCH  21  27
ATOM     27  C   UNL     1      -0.659  -5.859   0.830  0.00  0.00    +0.147 C 
BRANCH  27  28
ATOM     28  C   UNL     1      -1.423  -6.540  -0.307  0.00  0.00    +0.137 C 
ATOM     29  C   UNL     1      -2.594  -7.364   0.270  0.00  0.00    +0.035 C 
ATOM     30  C   UNL     1      -2.574  -8.635  -0.623  0.00  0.00    +0.031 C 
ATOM     31  C   UNL     1      -1.054  -8.788  -0.882  0.00  0.00    +0.160 C 
ATOM     32  O   UNL     1      -0.556  -7.444  -1.002  0.00  0.00    -0.375 OA
ENDBRANCH  27  28
ENDBRANCH  21  27
ENDBRANCH  18  19
ENDBRANCH   2  18
TORSDOF 6
