REMARK  Name = ZINC35379060
REMARK  7 active torsions:
REMARK  status: ('A' for Active; 'I' for Inactive)
REMARK    1  A    between atoms: C_1  and  C_2
REMARK    2  A    between atoms: C_7  and  N_8
REMARK    3  A    between atoms: C_9  and  C_11
REMARK    4  A    between atoms: N_16  and  S_18
REMARK    5  A    between atoms: S_18  and  C_21
REMARK    6  A    between atoms: C_26  and  C_27
REMARK    7  A    between atoms: C_31  and  C_34
REMARK                            x       y       z     vdW  Elec       q    Type
REMARK                         _______ _______ _______ _____ _____    ______ ____
ROOT
ATOM      1  C   UNL     1      -0.124   0.244   4.882  0.00  0.00    +0.091 C 
ATOM      2  C   UNL     1       1.105   1.125   5.122  0.00  0.00    +0.015 C 
ATOM      3  C   UNL     1       0.968   1.837   6.470  0.00  0.00    +0.018 C 
ATOM      4  C   UNL     1       0.894   0.794   7.589  0.00  0.00    +0.109 C 
ATOM      5  N   UNL     1      -0.196  -0.144   7.290  0.00  0.00    -0.176 NA
ATOM      6  C   UNL     1      -0.211  -0.817   5.984  0.00  0.00    +0.122 C 
ENDROOT
BRANCH   1   8
ATOM      7  N   UNL     1       0.089   0.309   2.418  0.00  0.00    -0.285 N 
ATOM      8  C   UNL     1      -0.004  -0.432   3.541  0.00  0.00    +0.222 C 
ATOM      9  O   UNL     1       0.010  -1.643   3.471  0.00  0.00    -0.275 OA
ATOM     10  H   UNL     1       0.140   1.275   2.478  0.00  0.00    +0.155 HD
BRANCH   7  17
ATOM     11  C   UNL     1      -1.146   1.641   0.229  0.00  0.00    +0.046 C 
ATOM     12  C   UNL     1      -0.481   0.298   0.071  0.00  0.00    -0.028 A 
ATOM     13  C   UNL     1      -0.454  -0.320  -1.164  0.00  0.00    +0.025 A 
ATOM     14  C   UNL     1       0.157  -1.553  -1.309  0.00  0.00    +0.041 A 
ATOM     15  C   UNL     1       0.742  -2.171  -0.218  0.00  0.00    +0.022 A 
ATOM     16  C   UNL     1       0.718  -1.558   1.019  0.00  0.00    +0.025 A 
ATOM     17  C   UNL     1       0.110  -0.317   1.167  0.00  0.00    +0.036 A 
ATOM     18 CL   UNL     1       0.188  -2.326  -2.863  0.00  0.00    -0.084 Cl
ENDBRANCH   7  17
ENDBRANCH   1   8
BRANCH   5  19
ATOM     19  S   UNL     1      -1.385  -0.439   8.404  0.00  0.00    +0.061 S 
ATOM     20  O   UNL     1      -1.820  -1.775   8.190  0.00  0.00    -0.153 OA
ATOM     21  O   UNL     1      -0.887   0.008   9.658  0.00  0.00    -0.153 OA
BRANCH  19  22
ATOM     22  C   UNL     1      -2.746   0.605   8.002  0.00  0.00    +0.112 A 
ATOM     23  C   UNL     1      -3.924   0.051   7.532  0.00  0.00    +0.076 A 
ATOM     24  C   UNL     1      -4.993   0.871   7.216  0.00  0.00    +0.145 A 
ATOM     25  C   UNL     1      -4.879   2.252   7.373  0.00  0.00    +0.076 A 
ATOM     26  C   UNL     1      -3.698   2.800   7.844  0.00  0.00    +0.032 A 
ATOM     27  C   UNL     1      -2.635   1.974   8.162  0.00  0.00    -0.022 A 
ATOM     28  C   UNL     1      -1.351   2.567   8.681  0.00  0.00    +0.046 C 
ATOM     29  N   UNL     1      -5.970   3.071   7.048  0.00  0.00    -0.280 N 
ATOM     30  C   UNL     1      -7.189   2.508   6.897  0.00  0.00    +0.258 C 
ATOM     31  O   UNL     1      -8.141   3.192   6.585  0.00  0.00    -0.271 OA
ATOM     32  C   UNL     1      -7.361   1.027   7.117  0.00  0.00    +0.256 C 
ATOM     33  O   UNL     1      -6.158   0.344   6.754  0.00  0.00    -0.478 OA
ATOM     34  C   UNL     1      -7.670   0.763   8.592  0.00  0.00    +0.062 C 
ATOM     35  H   UNL     1      -5.851   4.026   6.933  0.00  0.00    +0.155 HD
ENDBRANCH  19  22
ENDBRANCH   5  19
TORSDOF 4
