REMARK  Name = ZINC15970249
REMARK  10 active torsions:
REMARK  status: ('A' for Active; 'I' for Inactive)
REMARK    1  A    between atoms: C_1  and  C_2
REMARK    2  A    between atoms: C_2  and  C_3
REMARK    3  A    between atoms: C_3  and  N_4
REMARK    4  A    between atoms: C_5  and  C_7
REMARK    5  A    between atoms: C_7  and  C_9
REMARK    6  A    between atoms: C_7  and  N_13
REMARK    7  A    between atoms: C_9  and  C_10
REMARK    8  A    between atoms: C_10  and  C_11
REMARK    9  A    between atoms: C_10  and  C_12
REMARK   10  A    between atoms: C_14  and  C_16
REMARK                            x       y       z     vdW  Elec       q    Type
REMARK                         _______ _______ _______ _____ _____    ______ ____
ROOT
ATOM      1  C   UNL     1      -0.077  -1.973  -0.082  0.00  0.00    +0.167 C 
ATOM      2  C   UNL     1      -1.085  -1.987  -1.239  0.00  0.00    +0.069 C 
ATOM      3  C   UNL     1      -1.547  -3.395  -1.514  0.00  0.00    -0.015 A 
ATOM      4  C   UNL     1      -2.695  -3.804  -2.304  0.00  0.00    +0.003 A 
ATOM      5  C   UNL     1      -3.667  -3.079  -2.999  0.00  0.00    +0.010 A 
ATOM      6  C   UNL     1      -4.630  -3.805  -3.655  0.00  0.00    +0.001 A 
ATOM      7  C   UNL     1      -4.649  -5.190  -3.634  0.00  0.00    +0.002 A 
ATOM      8  C   UNL     1      -3.699  -5.932  -2.953  0.00  0.00    +0.026 A 
ATOM      9  C   UNL     1      -2.708  -5.221  -2.279  0.00  0.00    +0.047 A 
ATOM     10  N   UNL     1      -1.643  -5.624  -1.526  0.00  0.00    -0.356 N 
ATOM     11  H   UNL     1      -1.406  -6.547  -1.344  0.00  0.00    +0.166 HD
ATOM     12  C   UNL     1      -0.961  -4.530  -1.068  0.00  0.00    +0.046 A 
ATOM     13  C   UNL     1       0.266  -4.529  -0.190  0.00  0.00    +0.155 C 
ATOM     14  N   UNL     1       0.793  -3.145  -0.229  0.00  0.00    -0.273 N 
ATOM     15  C   UNL     1       2.112  -3.198  -0.456  0.00  0.00    +0.248 C 
ATOM     16  O   UNL     1       2.878  -2.260  -0.349  0.00  0.00    -0.270 OA
ATOM     17  C   UNL     1       2.491  -4.558  -0.852  0.00  0.00    +0.042 A 
ATOM     18  C   UNL     1       1.359  -5.389  -0.726  0.00  0.00    -0.009 A 
ATOM     19  C   UNL     1       1.403  -6.722  -1.071  0.00  0.00    +0.006 A 
ATOM     20  C   UNL     1       2.618  -7.216  -1.535  0.00  0.00    +0.000 A 
ATOM     21  C   UNL     1       3.735  -6.413  -1.648  0.00  0.00    +0.001 A 
ATOM     22  C   UNL     1       3.706  -5.068  -1.313  0.00  0.00    +0.013 A 
ENDROOT
BRANCH   1  24
ATOM     23  N   UNL     1       0.587   0.242   0.796  0.00  0.00    -0.302 N 
ATOM     24  C   UNL     1       0.750  -0.714  -0.139  0.00  0.00    +0.235 C 
ATOM     25  O   UNL     1       1.561  -0.562  -1.028  0.00  0.00    -0.274 OA
ATOM     26  H   UNL     1      -0.113   0.155   1.462  0.00  0.00    +0.150 HD
BRANCH  23  27
ATOM     27  C   UNL     1       1.464   1.415   0.805  0.00  0.00    +0.159 C 
BRANCH  27  29
ATOM     28  N   UNL     1       2.610   2.748   2.545  0.00  0.00    -0.314 N 
ATOM     29  C   UNL     1       1.580   1.946   2.210  0.00  0.00    +0.233 C 
ATOM     30  O   UNL     1       0.746   1.651   3.040  0.00  0.00    -0.274 OA
ATOM     31  H   UNL     1       3.236   3.043   1.865  0.00  0.00    +0.149 HD
BRANCH  28  32
ATOM     32  C   UNL     1       2.784   3.175   3.936  0.00  0.00    +0.104 C 
BRANCH  32  34
ATOM     33  C   UNL     1       4.200   4.518   5.496  0.00  0.00    +0.005 C 
ATOM     34  C   UNL     1       4.019   4.072   4.043  0.00  0.00    +0.015 C 
ENDBRANCH  32  34
ENDBRANCH  28  32
ENDBRANCH  27  29
BRANCH  27  35
ATOM     35  C   UNL     1       0.876   2.498  -0.103  0.00  0.00    +0.034 C 
BRANCH  35  36
ATOM     36  C   UNL     1       1.853   3.672  -0.196  0.00  0.00    -0.015 C 
ATOM     37  C   UNL     1       3.122   3.223  -0.924  0.00  0.00    +0.007 C 
ATOM     38  C   UNL     1       1.200   4.819  -0.968  0.00  0.00    +0.007 C 
ENDBRANCH  35  36
ENDBRANCH  27  35
ENDBRANCH  23  27
ENDBRANCH   1  24
TORSDOF 7
