REMARK  Name = ZINC12309608
REMARK  11 active torsions:
REMARK  status: ('A' for Active; 'I' for Inactive)
REMARK    1  A    between atoms: C_1  and  C_2
REMARK    2  A    between atoms: C_2  and  C_3
REMARK    3  A    between atoms: C_3  and  C_4
REMARK    4  A    between atoms: C_10  and  N_11
REMARK    5  A    between atoms: N_11  and  O_12
REMARK    6  A    between atoms: O_12  and  C_13
REMARK    7  A    between atoms: C_13  and  C_14
REMARK    8  A    between atoms: C_19  and  C_22
REMARK    9  A    between atoms: C_22  and  C_23
REMARK   10  A    between atoms: N_31  and  C_36
REMARK   11  A    between atoms: N_34  and  C_35
REMARK                            x       y       z     vdW  Elec       q    Type
REMARK                         _______ _______ _______ _____ _____    ______ ____
ROOT
ATOM      1  N   UNL     1      -3.689   1.593   0.028  0.00  0.00    -0.264 N 
ATOM      2  H   UNL     1      -3.778   2.670   0.233  0.00  0.00    +0.194 HD
ENDROOT
BRANCH   1   9
ATOM      3  C   UNL     1      -5.986   1.221   0.758  0.00  0.00    -0.005 A 
ATOM      4  C   UNL     1      -6.949   0.301   0.929  0.00  0.00    +0.090 A 
ATOM      5  N   UNL     1      -6.820  -0.977   0.454  0.00  0.00    -0.347 N 
ATOM      6  H   UNL     1      -7.505  -1.765   0.801  0.00  0.00    +0.167 HD
ATOM      7  C   UNL     1      -5.862  -1.319  -0.448  0.00  0.00    +0.129 A 
ATOM      8  C   UNL     1      -4.805  -0.447  -0.703  0.00  0.00    +0.106 A 
ATOM      9  C   UNL     1      -4.762   0.833   0.029  0.00  0.00    +0.082 A 
ATOM     10  C   UNL     1      -3.807  -0.815  -1.632  0.00  0.00    +0.268 A 
ATOM     11  O   UNL     1      -2.871  -0.072  -1.865  0.00  0.00    -0.267 OA
ATOM     12  N   UNL     1      -3.914  -2.006  -2.263  0.00  0.00    -0.263 N 
ATOM     13  C   UNL     1      -4.947  -2.828  -2.010  0.00  0.00    +0.333 A 
ATOM     14  O   UNL     1      -5.013  -3.890  -2.597  0.00  0.00    -0.246 OA
ATOM     15  N   UNL     1      -5.910  -2.510  -1.125  0.00  0.00    -0.282 N 
ATOM     16  C   UNL     1      -7.016  -3.441  -0.885  0.00  0.00    +0.155 C 
ATOM     17  C   UNL     1      -2.892  -2.405  -3.234  0.00  0.00    +0.157 C 
BRANCH   3  18
ATOM     18  C   UNL     1      -6.151   2.618   1.298  0.00  0.00    +0.038 C 
BRANCH  18  20
ATOM     19  C   UNL     1      -7.804   4.406   1.859  0.00  0.00    +0.004 C 
ATOM     20  C   UNL     1      -7.636   2.988   1.310  0.00  0.00    +0.001 C 
ENDBRANCH  18  20
ENDBRANCH   3  18
ENDBRANCH   1   9
BRANCH   1  21
ATOM     21  O   UNL     1      -2.420   1.024  -0.237  0.00  0.00    -0.265 OA
BRANCH  21  22
ATOM     22  C   UNL     1      -1.344   1.965  -0.206  0.00  0.00    +0.288 C 
BRANCH  22  23
ATOM     23  C   UNL     1      -0.048   1.255  -0.499  0.00  0.00    +0.244 C 
ATOM     24  O   UNL     1      -0.045   0.062  -0.715  0.00  0.00    -0.273 OA
ATOM     25  N   UNL     1       1.108   1.948  -0.529  0.00  0.00    -0.299 N 
ATOM     26  C   UNL     1       1.120   3.395  -0.277  0.00  0.00    +0.108 C 
ATOM     27  C   UNL     1       2.130   3.688   0.843  0.00  0.00    +0.023 C 
ATOM     28  C   UNL     1       3.492   3.106   0.458  0.00  0.00    -0.004 C 
ATOM     29  C   UNL     1       3.374   1.588   0.300  0.00  0.00    +0.023 C 
ATOM     30  C   UNL     1       2.379   1.271  -0.820  0.00  0.00    +0.108 C 
BRANCH  28  31
ATOM     31  C   UNL     1       4.511   3.427   1.553  0.00  0.00    +0.038 C 
BRANCH  31  32
ATOM     32  C   UNL     1       4.719   4.918   1.625  0.00  0.00    -0.047 A 
ATOM     33  C   UNL     1       5.704   5.516   0.862  0.00  0.00    +0.003 A 
ATOM     34  C   UNL     1       5.891   6.884   0.925  0.00  0.00    +0.000 A 
ATOM     35  C   UNL     1       5.100   7.653   1.757  0.00  0.00    +0.000 A 
ATOM     36  C   UNL     1       4.118   7.054   2.524  0.00  0.00    +0.000 A 
ATOM     37  C   UNL     1       3.928   5.686   2.458  0.00  0.00    +0.003 A 
ENDBRANCH  31  32
ENDBRANCH  28  31
ENDBRANCH  22  23
ENDBRANCH  21  22
ENDBRANCH   1  21
TORSDOF 8
