REMARK  Name = ZINC64289406
REMARK  5 active torsions:
REMARK  status: ('A' for Active; 'I' for Inactive)
REMARK    1  A    between atoms: C_8  and  C_25
REMARK    2  A    between atoms: C_12  and  C_14
REMARK    3  A    between atoms: C_14  and  O_15
REMARK    4  A    between atoms: O_15  and  C_16
REMARK    5  A    between atoms: C_19  and  C_22
REMARK                            x       y       z     vdW  Elec       q    Type
REMARK                         _______ _______ _______ _____ _____    ______ ____
ROOT
ATOM      1  C   UNL     1       0.673   1.458   2.579  0.00  0.00    +0.000 A 
ATOM      2  C   UNL     1       0.035   1.464   1.353  0.00  0.00    +0.000 A 
ATOM      3  C   UNL     1       0.221   0.413   0.480  0.00  0.00    +0.005 A 
ATOM      4  C   UNL     1       1.040  -0.654   0.825  0.00  0.00    -0.027 A 
ATOM      5  C   UNL     1       1.669  -0.666   2.049  0.00  0.00    -0.040 A 
ATOM      6  C   UNL     1       1.486   0.398   2.924  0.00  0.00    +0.004 A 
ATOM      7  C   UNL     1       2.547  -1.802   2.505  0.00  0.00    +0.067 C 
ATOM      8  C   UNL     1       3.035  -2.624   1.313  0.00  0.00    +0.166 C 
ATOM      9  N   UNL     1       1.875  -2.908   0.453  0.00  0.00    -0.282 N 
ATOM     10  C   UNL     1       1.211  -1.764  -0.182  0.00  0.00    +0.144 C 
ATOM     11  C   UNL     1       1.439  -4.168   0.256  0.00  0.00    +0.254 C 
ATOM     12  O   UNL     1       1.949  -5.087   0.862  0.00  0.00    -0.272 OA
ENDROOT
BRANCH   8  13
ATOM     13  C   UNL     1       3.639  -3.917   1.799  0.00  0.00    +0.231 C 
ATOM     14  O   UNL     1       4.676  -4.320   1.318  0.00  0.00    -0.274 OA
ATOM     15  N   UNL     1       3.025  -4.625   2.768  0.00  0.00    -0.328 N 
ATOM     16  H   UNL     1       2.195  -4.302   3.153  0.00  0.00    +0.145 HD
ATOM     17  H   UNL     1       3.414  -5.457   3.081  0.00  0.00    +0.145 HD
ENDBRANCH   8  13
BRANCH  11  18
ATOM     18  C   UNL     1       0.319  -4.435  -0.717  0.00  0.00    +0.324 C 
BRANCH  18  19
ATOM     19  O   UNL     1       0.041  -5.836  -0.749  0.00  0.00    -0.483 OA
BRANCH  19  20
ATOM     20  C   UNL     1      -0.949  -6.249  -1.581  0.00  0.00    +0.121 A 
ATOM     21  C   UNL     1      -1.635  -5.320  -2.356  0.00  0.00    +0.046 A 
ATOM     22  C   UNL     1      -2.640  -5.735  -3.201  0.00  0.00    +0.016 A 
ATOM     23  C   UNL     1      -2.969  -7.090  -3.280  0.00  0.00    +0.037 A 
ATOM     24  C   UNL     1      -2.277  -8.020  -2.500  0.00  0.00    +0.016 A 
ATOM     25  C   UNL     1      -1.270  -7.599  -1.660  0.00  0.00    +0.046 A 
BRANCH  23  26
ATOM     26  C   UNL     1      -4.046  -7.539  -4.184  0.00  0.00    +0.242 C 
ATOM     27  O   UNL     1      -4.647  -6.728  -4.862  0.00  0.00    -0.270 OA
ATOM     28  N   UNL     1      -4.362  -8.847  -4.259  0.00  0.00    -0.325 N 
ATOM     29  H   UNL     1      -3.883  -9.493  -3.718  0.00  0.00    +0.145 HD
ATOM     30  H   UNL     1      -5.070  -9.141  -4.853  0.00  0.00    +0.145 HD
ENDBRANCH  23  26
ENDBRANCH  19  20
ENDBRANCH  18  19
ENDBRANCH  11  18
TORSDOF 5
