REMARK  Name = ZINC34759131
REMARK  11 active torsions:
REMARK  status: ('A' for Active; 'I' for Inactive)
REMARK    1  A    between atoms: C_1  and  C_2
REMARK    2  A    between atoms: C_3  and  C_32
REMARK    3  A    between atoms: C_7  and  N_22
REMARK    4  A    between atoms: C_9  and  S_11
REMARK    5  A    between atoms: S_11  and  C_12
REMARK    6  A    between atoms: C_12  and  C_13
REMARK    7  A    between atoms: C_16  and  N_19
REMARK    8  A    between atoms: N_25  and  C_28
REMARK    9  A    between atoms: C_28  and  C_29
REMARK   10  A    between atoms: C_29  and  C_30
REMARK   11  A    between atoms: C_29  and  C_31
REMARK                            x       y       z     vdW  Elec       q    Type
REMARK                         _______ _______ _______ _____ _____    ______ ____
ROOT
ATOM      1  C   UNL     1       0.302   2.106  -0.290  0.00  0.00    +0.045 C 
ATOM      2  C   UNL     1       0.431   0.615  -0.468  0.00  0.00    -0.028 A 
ATOM      3  C   UNL     1       0.413   0.075  -1.695  0.00  0.00    -0.008 A 
ATOM      4  S   UNL     1       0.593  -1.671  -1.384  0.00  0.00    -0.073 S 
ATOM      5  C   UNL     1       0.686  -1.628   0.386  0.00  0.00    +0.115 A 
ATOM      6  C   UNL     1       0.581  -0.253   0.688  0.00  0.00    +0.051 A 
ATOM      7  C   UNL     1       0.631   0.077   2.070  0.00  0.00    +0.134 A 
ATOM      8  N   UNL     1       0.774  -0.889   2.962  0.00  0.00    -0.206 NA
ATOM      9  C   UNL     1       0.873  -2.165   2.609  0.00  0.00    +0.191 A 
ATOM     10  N   UNL     1       0.822  -2.533   1.336  0.00  0.00    -0.215 NA
ATOM     11  C   UNL     1       0.275   0.777  -3.022  0.00  0.00    +0.052 C 
ENDROOT
BRANCH   7  12
ATOM     12  N   UNL     1       0.533   1.395   2.478  0.00  0.00    -0.318 N 
ATOM     13  C   UNL     1      -0.756   1.959   2.908  0.00  0.00    +0.088 C 
ATOM     14  C   UNL     1      -0.556   2.651   4.261  0.00  0.00    -0.060 C 
ATOM     15  N   UNL     1       0.529   3.634   4.151  0.00  0.00    +0.382 N 
ATOM     16  C   UNL     1       1.797   2.949   3.867  0.00  0.00    -0.060 C 
ATOM     17  C   UNL     1       1.715   2.271   2.500  0.00  0.00    +0.088 C 
ATOM     18  H   UNL     1       0.323   4.280   3.405  0.00  0.00    -0.082 HD
BRANCH  15  19
ATOM     19  C   UNL     1       0.647   4.373   5.415  0.00  0.00    -0.076 C 
BRANCH  19  20
ATOM     20  C   UNL     1      -0.610   5.217   5.631  0.00  0.00    -0.034 C 
ATOM     21  C   UNL     1      -0.519   5.932   6.981  0.00  0.00    +0.005 C 
ATOM     22  C   UNL     1      -0.727   6.254   4.512  0.00  0.00    +0.005 C 
ENDBRANCH  19  20
ENDBRANCH  15  19
ENDBRANCH   7  12
BRANCH   9  23
ATOM     23  S   UNL     1       1.062  -3.395   3.857  0.00  0.00    -0.081 S 
BRANCH  23  24
ATOM     24  C   UNL     1       1.152  -4.951   2.930  0.00  0.00    +0.112 C 
BRANCH  24  25
ATOM     25  C   UNL     1       1.317  -6.100   3.891  0.00  0.00    -0.037 A 
ATOM     26  C   UNL     1       2.582  -6.512   4.266  0.00  0.00    +0.007 A 
ATOM     27  C   UNL     1       2.732  -7.566   5.148  0.00  0.00    +0.033 A 
ATOM     28  C   UNL     1       1.618  -8.207   5.655  0.00  0.00    +0.126 A 
ATOM     29  C   UNL     1       0.353  -7.795   5.281  0.00  0.00    +0.033 A 
ATOM     30  C   UNL     1       0.202  -6.738   4.402  0.00  0.00    +0.007 A 
BRANCH  28  31
ATOM     31  N   UNL     1       1.779  -9.336   6.599  0.00  0.00    +0.056 N 
ATOM     32  O   UNL     1       2.886  -9.697   6.926  0.00  0.00    -0.126 OA
ATOM     33  O   UNL     1       0.804  -9.897   7.043  0.00  0.00    -0.126 OA
ENDBRANCH  28  31
ENDBRANCH  24  25
ENDBRANCH  23  24
ENDBRANCH   9  23
TORSDOF 7
