REMARK  Name = ZINC14536198
REMARK  12 active torsions:
REMARK  status: ('A' for Active; 'I' for Inactive)
REMARK    1  A    between atoms: C_1  and  N_73
REMARK    2  A    between atoms: C_2  and  N_73
REMARK    3  A    between atoms: C_3  and  C_4
REMARK    4  A    between atoms: C_3  and  N_73
REMARK    5  A    between atoms: C_4  and  N_5
REMARK    6  A    between atoms: C_13  and  C_14
REMARK    7  A    between atoms: C_13  and  N_75
REMARK    8  A    between atoms: N_24  and  C_27
REMARK    9  A    between atoms: C_27  and  C_28
REMARK   10  A    between atoms: C_28  and  C_29
REMARK   11  A    between atoms: C_32  and  O_35
REMARK   12  A    between atoms: O_35  and  C_36
REMARK                            x       y       z     vdW  Elec       q    Type
REMARK                         _______ _______ _______ _____ _____    ______ ____
ROOT
ATOM      1  N   UNL     1      -0.684   1.546   1.225  0.00  0.00    -0.226 N 
ATOM      2  C   UNL     1      -0.428   2.725   1.829  0.00  0.00    +0.247 C 
ATOM      3  O   UNL     1       0.396   3.553   1.504  0.00  0.00    -0.273 OA
ATOM      4  C   UNL     1      -1.386   2.797   2.995  0.00  0.00    +0.112 C 
ATOM      5  C   UNL     1      -0.616   2.882   4.309  0.00  0.00    +0.017 C 
ATOM      6  C   UNL     1      -1.608   2.978   5.472  0.00  0.00    -0.076 C 
ATOM      7  C   UNL     1      -3.260   4.052   4.058  0.00  0.00    -0.076 C 
ATOM      8  C   UNL     1      -2.324   3.991   2.848  0.00  0.00    +0.017 C 
ATOM      9  N   UNL     1      -2.138   1.538   2.918  0.00  0.00    -0.271 N 
ATOM     10  C   UNL     1      -1.658   0.873   1.851  0.00  0.00    +0.312 C 
ATOM     11  O   UNL     1      -2.061  -0.217   1.496  0.00  0.00    -0.252 OA
ATOM     12  N   UNL     1      -2.447   4.182   5.286  0.00  0.00    +0.383 N 
ATOM     13  H   UNL     1      -1.836   5.003   5.195  0.00  0.00    -0.081 HD
ENDROOT
BRANCH   1  14
ATOM     14  C   UNL     1       0.019   1.061   0.035  0.00  0.00    +0.099 C 
BRANCH  14  15
ATOM     15  C   UNL     1      -0.719   1.531  -1.221  0.00  0.00    -0.060 C 
BRANCH  15  18
ATOM     16  C   UNL     1      -0.075  -0.421  -2.501  0.00  0.00    -0.097 C 
ATOM     17  C   UNL     1      -0.549   1.666  -3.632  0.00  0.00    -0.097 C 
ATOM     18  N   UNL     1       0.014   1.051  -2.412  0.00  0.00    +0.377 N 
ATOM     19  H   UNL     1       1.001   1.322  -2.327  0.00  0.00    -0.083 HD
ENDBRANCH  15  18
ENDBRANCH  14  15
ENDBRANCH   1  14
BRANCH  12  20
ATOM     20  C   UNL     1      -3.328   4.369   6.457  0.00  0.00    -0.025 C 
BRANCH  20  21
ATOM     21  C   UNL     1      -2.478   4.716   7.653  0.00  0.00    +0.000 A 
ATOM     22  C   UNL     1      -2.047   3.838   8.573  0.00  0.00    +0.029 A 
ATOM     23  C   UNL     1      -1.257   4.593   9.548  0.00  0.00    -0.000 A 
ATOM     24  C   UNL     1      -0.560   4.249  10.708  0.00  0.00    +0.010 A 
ATOM     25  C   UNL     1       0.090   5.216  11.421  0.00  0.00    +0.001 A 
ATOM     26  C   UNL     1       0.064   6.539  11.001  0.00  0.00    +0.002 A 
ATOM     27  C   UNL     1      -0.617   6.901   9.860  0.00  0.00    +0.026 A 
ATOM     28  C   UNL     1      -1.287   5.933   9.119  0.00  0.00    +0.047 A 
ATOM     29  N   UNL     1      -2.036   5.973   7.965  0.00  0.00    -0.360 N 
ATOM     30  H   UNL     1      -2.224   6.773   7.449  0.00  0.00    +0.166 HD
ENDBRANCH  20  21
ENDBRANCH  12  20
BRANCH   9  31
ATOM     31  C   UNL     1      -3.201   1.094   3.824  0.00  0.00    +0.115 C 
BRANCH  31  32
ATOM     32  C   UNL     1      -4.528   1.040   3.066  0.00  0.00    +0.054 C 
BRANCH  32  33
ATOM     33  C   UNL     1      -5.641   0.701   4.024  0.00  0.00    -0.046 A 
ATOM     34  C   UNL     1      -5.984  -0.620   4.244  0.00  0.00    +0.007 A 
ATOM     35  C   UNL     1      -7.000  -0.933   5.126  0.00  0.00    +0.046 A 
ATOM     36  C   UNL     1      -7.683   0.080   5.783  0.00  0.00    +0.120 A 
ATOM     37  C   UNL     1      -7.341   1.405   5.556  0.00  0.00    +0.046 A 
ATOM     38  C   UNL     1      -6.321   1.713   4.677  0.00  0.00    +0.007 A 
BRANCH  36  39
ATOM     39  O   UNL     1      -8.686  -0.226   6.647  0.00  0.00    -0.495 OA
ATOM     40  C   UNL     1      -8.985  -1.611   6.832  0.00  0.00    +0.277 C 
ENDBRANCH  36  39
ENDBRANCH  32  33
ENDBRANCH  31  32
ENDBRANCH   9  31
TORSDOF 9
