REMARK  Name = ZINC05330750
REMARK  5 active torsions:
REMARK  status: ('A' for Active; 'I' for Inactive)
REMARK    1  A    between atoms: C_1  and  C_2
REMARK    2  A    between atoms: C_5  and  N_8
REMARK    3  A    between atoms: C_11  and  C_18
REMARK    4  A    between atoms: C_13  and  C_16
REMARK    5  A    between atoms: C_14  and  N_15
REMARK                            x       y       z     vdW  Elec       q    Type
REMARK                         _______ _______ _______ _____ _____    ______ ____
ROOT
ATOM      1  N   UNL     1       0.034   1.818   2.380  0.00  0.00    -0.260 N 
ATOM      2  C   UNL     1      -0.802   2.291   1.401  0.00  0.00    +0.024 C 
ATOM      3  C   UNL     1      -2.118   2.460   1.645  0.00  0.00    +0.025 C 
ATOM      4  C   UNL     1      -2.704   2.140   2.997  0.00  0.00    +0.097 C 
ATOM      5  C   UNL     1      -1.786   1.260   3.792  0.00  0.00    +0.077 C 
ATOM      6  C   UNL     1      -0.474   1.136   3.463  0.00  0.00    +0.107 C 
ATOM      7  C   UNL     1      -2.983   2.940   0.645  0.00  0.00    +0.162 C 
ATOM      8  O   UNL     1      -4.167   3.063   0.891  0.00  0.00    -0.292 OA
ATOM      9  C   UNL     1      -2.471   3.302  -0.721  0.00  0.00    +0.080 C 
ATOM     10  C   UNL     1      -1.008   3.743  -0.603  0.00  0.00    +0.014 C 
ATOM     11  C   UNL     1      -0.212   2.610   0.050  0.00  0.00    +0.052 C 
ENDROOT
BRANCH   1  16
ATOM     12  C   UNL     1       5.627   2.676   1.966  0.00  0.00    +0.044 C 
ATOM     13  C   UNL     1       4.141   2.448   2.076  0.00  0.00    -0.050 A 
ATOM     14  C   UNL     1       3.346   3.379   2.720  0.00  0.00    +0.005 A 
ATOM     15  C   UNL     1       1.985   3.173   2.823  0.00  0.00    +0.024 A 
ATOM     16  C   UNL     1       1.414   2.030   2.278  0.00  0.00    +0.040 A 
ATOM     17  C   UNL     1       2.216   1.095   1.636  0.00  0.00    +0.024 A 
ATOM     18  C   UNL     1       3.576   1.309   1.533  0.00  0.00    +0.005 A 
ENDBRANCH   1  16
BRANCH   4  19
ATOM     19  C   UNL     1      -2.934   3.424   3.751  0.00  0.00    -0.035 A 
ATOM     20  C   UNL     1      -1.868   4.258   4.037  0.00  0.00    +0.007 A 
ATOM     21  C   UNL     1      -2.078   5.438   4.724  0.00  0.00    +0.038 A 
ATOM     22  C   UNL     1      -3.355   5.780   5.137  0.00  0.00    +0.123 A 
ATOM     23  C   UNL     1      -4.420   4.942   4.855  0.00  0.00    +0.038 A 
ATOM     24  C   UNL     1      -4.209   3.765   4.162  0.00  0.00    +0.007 A 
ATOM     25  F   UNL     1      -3.560   6.931   5.814  0.00  0.00    -0.205 F 
ENDBRANCH   4  19
BRANCH   6  26
ATOM     26  N   UNL     1       0.348   0.330   4.213  0.00  0.00    -0.345 N 
ATOM     27  H   UNL     1       0.015  -0.080   5.026  0.00  0.00    +0.144 HD
ATOM     28  H   UNL     1       1.262   0.171   3.930  0.00  0.00    +0.144 HD
ENDBRANCH   6  26
BRANCH   5  29
ATOM     29  C   UNL     1      -2.301   0.537   4.915  0.00  0.00    +0.099 C 
ATOM     30  N   UNL     1      -2.710  -0.036   5.807  0.00  0.00    -0.191 NA
ENDBRANCH   5  29
TORSDOF 4
