REMARK  Name = ZINC38965967
REMARK  8 active torsions:
REMARK  status: ('A' for Active; 'I' for Inactive)
REMARK    1  A    between atoms: C_1  and  O_2
REMARK    2  A    between atoms: O_2  and  C_3
REMARK    3  A    between atoms: C_6  and  C_9
REMARK    4  A    between atoms: C_9  and  C_10
REMARK    5  A    between atoms: C_10  and  N_11
REMARK    6  A    between atoms: N_11  and  C_12
REMARK    7  A    between atoms: N_15  and  S_16
REMARK    8  A    between atoms: S_16  and  C_19
REMARK                            x       y       z     vdW  Elec       q    Type
REMARK                         _______ _______ _______ _____ _____    ______ ____
ROOT
ATOM      1  C   UNL     1      -7.218  -3.794  -2.764  0.00  0.00    +0.219 C 
ATOM      2  C   UNL     1      -8.652  -3.319  -2.846  0.00  0.00    +0.188 C 
ATOM      3  N   UNL     1      -8.955  -2.086  -2.567  0.00  0.00    -0.110 NA
ATOM      4  N   UNL     1      -9.606  -4.190  -3.210  0.00  0.00    -0.226 NA
ATOM      5  C   UNL     1      -9.324  -5.444  -3.497  0.00  0.00    +0.089 A 
ATOM      6  C   UNL     1     -10.358  -6.336  -3.878  0.00  0.00    +0.030 A 
ATOM      7  C   UNL     1     -10.075  -7.623  -4.174  0.00  0.00    +0.002 A 
ATOM      8  C   UNL     1      -8.772  -8.145  -4.122  0.00  0.00    +0.002 A 
ATOM      9  C   UNL     1      -7.714  -7.382  -3.772  0.00  0.00    +0.027 A 
ATOM     10  C   UNL     1      -7.938  -5.968  -3.435  0.00  0.00    +0.063 A 
ATOM     11  N   UNL     1      -6.942  -5.201  -3.091  0.00  0.00    -0.362 N 
ATOM     12  H   UNL     1      -6.038  -5.551  -3.053  0.00  0.00    +0.162 HD
ENDROOT
BRANCH   3  13
ATOM     13  S   UNL     1     -10.529  -1.579  -2.661  0.00  0.00    +0.100 S 
ATOM     14  O   UNL     1     -10.897  -1.649  -4.031  0.00  0.00    -0.146 OA
ATOM     15  O   UNL     1     -11.239  -2.272  -1.644  0.00  0.00    -0.146 OA
BRANCH  13  16
ATOM     16  C   UNL     1     -10.554   0.127  -2.220  0.00  0.00    +0.114 A 
ATOM     17  C   UNL     1     -10.722   0.496  -0.898  0.00  0.00    +0.029 A 
ATOM     18  C   UNL     1     -10.742   1.834  -0.551  0.00  0.00    +0.003 A 
ATOM     19  C   UNL     1     -10.594   2.804  -1.525  0.00  0.00    +0.020 A 
ATOM     20  C   UNL     1     -10.425   2.434  -2.848  0.00  0.00    +0.043 A 
ATOM     21  C   UNL     1     -10.399   1.095  -3.194  0.00  0.00    +0.049 A 
ATOM     22 CL   UNL     1     -10.238   3.651  -4.072  0.00  0.00    -0.083 Cl
ENDBRANCH  13  16
ENDBRANCH   3  13
BRANCH   1  23
ATOM     23  N   UNL     1      -6.742  -3.550  -1.396  0.00  0.00    -0.290 NA
ATOM     24  H   UNL     1      -6.694  -4.410  -0.871  0.00  0.00    +0.124 HD
BRANCH  23  25
ATOM     25  C   UNL     1      -5.443  -2.865  -1.405  0.00  0.00    +0.088 C 
BRANCH  25  26
ATOM     26  C   UNL     1      -4.981  -2.629   0.035  0.00  0.00    +0.050 C 
BRANCH  26  30
ATOM     27  C   UNL     1      -1.200  -0.637   0.010  0.00  0.00    +0.120 A 
ATOM     28  C   UNL     1      -2.375   0.101   0.019  0.00  0.00    +0.046 A 
ATOM     29  C   UNL     1      -3.596  -0.545   0.027  0.00  0.00    +0.007 A 
ATOM     30  C   UNL     1      -3.648  -1.927   0.026  0.00  0.00    -0.046 A 
ATOM     31  C   UNL     1      -2.479  -2.665   0.017  0.00  0.00    +0.007 A 
ATOM     32  C   UNL     1      -1.255  -2.024   0.003  0.00  0.00    +0.046 A 
BRANCH  27  34
ATOM     33  C   UNL     1      -0.017   1.425   0.010  0.00  0.00    +0.277 C 
ATOM     34  O   UNL     1       0.002  -0.004   0.002  0.00  0.00    -0.495 OA
ENDBRANCH  27  34
ENDBRANCH  26  30
ENDBRANCH  25  26
ENDBRANCH  23  25
ENDBRANCH   1  23
TORSDOF 7
