REMARK  Name = ZINC00783158
REMARK  5 active torsions:
REMARK  status: ('A' for Active; 'I' for Inactive)
REMARK    1  A    between atoms: C_8  and  S_10
REMARK    2  A    between atoms: S_10  and  C_11
REMARK    3  A    between atoms: C_13  and  N_20
REMARK    4  A    between atoms: C_15  and  N_17
REMARK    5  A    between atoms: C_21  and  C_23
REMARK                            x       y       z     vdW  Elec       q    Type
REMARK                         _______ _______ _______ _____ _____    ______ ____
ROOT
ATOM      1  C   UNL     1       3.336   7.665  -0.013  0.00  0.00    +0.019 A 
ATOM      2  C   UNL     1       3.970   8.897   0.073  0.00  0.00    +0.038 A 
ATOM      3  C   UNL     1       5.356   8.962   0.072  0.00  0.00    +0.037 A 
ATOM      4  C   UNL     1       6.105   7.795  -0.026  0.00  0.00    +0.056 A 
ATOM      5  C   UNL     1       5.471   6.571  -0.118  0.00  0.00    +0.129 A 
ATOM      6  C   UNL     1       4.091   6.502  -0.112  0.00  0.00    +0.048 A 
ENDROOT
BRANCH   3   7
ATOM      7  N   UNL     1       5.999  10.201   0.165  0.00  0.00    -0.278 N 
ATOM      8  C   UNL     1       5.466  11.182   0.920  0.00  0.00    +0.321 C 
ATOM      9  O   UNL     1       4.387  11.021   1.451  0.00  0.00    -0.266 OA
ATOM     10  H   UNL     1       6.828  10.354  -0.314  0.00  0.00    +0.155 HD
BRANCH   8  11
ATOM     11  C   UNL     1       6.210  12.480   1.104  0.00  0.00    +0.470 C 
ATOM     12  F   UNL     1       5.462  13.334   1.921  0.00  0.00    -0.162 F 
ATOM     13  F   UNL     1       7.448  12.227   1.704  0.00  0.00    -0.162 F 
ATOM     14  F   UNL     1       6.410  13.083  -0.142  0.00  0.00    -0.162 F 
ENDBRANCH   8  11
ENDBRANCH   3   7
BRANCH   5  15
ATOM     15  N   UNL     1       6.272   5.331  -0.223  0.00  0.00    +0.057 N 
ATOM     16  O   UNL     1       5.714   4.251  -0.303  0.00  0.00    -0.126 OA
ATOM     17  O   UNL     1       7.488   5.390  -0.228  0.00  0.00    -0.126 OA
ENDBRANCH   5  15
BRANCH   1  18
ATOM     18  S   UNL     1       1.576   7.576  -0.006  0.00  0.00    -0.063 S 
BRANCH  18  26
ATOM     19  C   UNL     1      -1.017   7.621   5.890  0.00  0.00    +0.002 A 
ATOM     20  C   UNL     1       0.213   7.578   6.531  0.00  0.00    +0.001 A 
ATOM     21  C   UNL     1       1.370   7.543   5.774  0.00  0.00    +0.017 A 
ATOM     22  C   UNL     1       1.284   7.555   4.404  0.00  0.00    +0.040 A 
ATOM     23  C   UNL     1       0.050   7.604   3.718  0.00  0.00    +0.079 A 
ATOM     24  C   UNL     1      -1.112   7.639   4.523  0.00  0.00    +0.029 A 
ATOM     25  N   UNL     1       0.129   7.611   2.369  0.00  0.00    -0.232 NA
ATOM     26  C   UNL     1       1.277   7.574   1.731  0.00  0.00    +0.140 A 
ATOM     27  S   UNL     1       2.458   7.523   3.071  0.00  0.00    -0.061 S 
ENDBRANCH  18  26
ENDBRANCH   1  18
TORSDOF 5
