REMARK  Name = ZINC03769979
REMARK  9 active torsions:
REMARK  status: ('A' for Active; 'I' for Inactive)
REMARK    1  A    between atoms: C_1  and  O_2
REMARK    2  A    between atoms: O_2  and  C_3
REMARK    3  A    between atoms: C_3  and  C_5
REMARK    4  A    between atoms: C_11  and  C_26
REMARK    5  A    between atoms: C_12  and  C_19
REMARK    6  A    between atoms: C_14  and  C_17
REMARK    7  A    between atoms: C_15  and  N_16
REMARK    8  A    between atoms: N_28  and  C_29
REMARK    9  A    between atoms: C_29  and  C_30
REMARK                            x       y       z     vdW  Elec       q    Type
REMARK                         _______ _______ _______ _____ _____    ______ ____
ROOT
ATOM      1  C   UNL     1      -3.985  -2.463  -0.428  0.00  0.00    +0.112 C 
ATOM      2  C   UNL     1      -3.708  -1.139  -0.308  0.00  0.00    +0.086 A 
ATOM      3  C   UNL     1      -2.397  -0.457  -0.201  0.00  0.00    +0.272 A 
ATOM      4  O   UNL     1      -1.360  -1.091  -0.214  0.00  0.00    -0.266 OA
ATOM      5  N   UNL     1      -2.388   0.886  -0.089  0.00  0.00    -0.257 N 
ATOM      6  C   UNL     1      -3.604   1.540  -0.082  0.00  0.00    +0.099 A 
ATOM      7  C   UNL     1      -3.749   2.884   0.024  0.00  0.00    +0.058 C 
ATOM      8  C   UNL     1      -2.501   3.736   0.141  0.00  0.00    +0.102 C 
ATOM      9  C   UNL     1      -1.187   2.982   0.133  0.00  0.00    +0.079 C 
ATOM     10  C   UNL     1      -1.210   1.637   0.017  0.00  0.00    +0.118 C 
ATOM     11  S   UNL     1      -4.825   0.252  -0.235  0.00  0.00    -0.065 S 
ENDROOT
BRANCH   8  12
ATOM     12  C   UNL     1      -2.492   4.719  -1.001  0.00  0.00    -0.016 A 
ATOM     13  C   UNL     1      -2.485   4.262  -2.306  0.00  0.00    +0.006 A 
ATOM     14  C   UNL     1      -2.477   5.163  -3.353  0.00  0.00    +0.000 A 
ATOM     15  C   UNL     1      -2.476   6.522  -3.097  0.00  0.00    +0.001 A 
ATOM     16  C   UNL     1      -2.483   6.980  -1.793  0.00  0.00    +0.020 A 
ATOM     17  C   UNL     1      -2.497   6.078  -0.744  0.00  0.00    +0.045 A 
ATOM     18 CL   UNL     1      -2.513   6.652   0.894  0.00  0.00    -0.083 Cl
ENDBRANCH   8  12
BRANCH   7  19
ATOM     19  C   UNL     1      -5.028   3.473   0.023  0.00  0.00    +0.244 C 
ATOM     20  O   UNL     1      -6.021   2.774  -0.072  0.00  0.00    -0.270 OA
ATOM     21  N   UNL     1      -5.153   4.811   0.129  0.00  0.00    -0.307 N 
ATOM     22  H   UNL     1      -4.363   5.368   0.205  0.00  0.00    +0.149 HD
BRANCH  21  23
ATOM     23  C   UNL     1      -6.484   5.425   0.129  0.00  0.00    +0.139 C 
BRANCH  23  24
ATOM     24  C   UNL     1      -6.347   6.920   0.257  0.00  0.00    -0.030 A 
ATOM     25  C   UNL     1      -6.336   7.508   1.508  0.00  0.00    +0.005 A 
ATOM     26  C   UNL     1      -6.207   8.879   1.627  0.00  0.00    +0.000 A 
ATOM     27  C   UNL     1      -6.098   9.663   0.494  0.00  0.00    +0.000 A 
ATOM     28  C   UNL     1      -6.114   9.076  -0.758  0.00  0.00    +0.000 A 
ATOM     29  C   UNL     1      -6.239   7.704  -0.876  0.00  0.00    +0.005 A 
ENDBRANCH  23  24
ENDBRANCH  21  23
ENDBRANCH   7  19
BRANCH  10  30
ATOM     30  N   UNL     1      -0.011   0.966   0.007  0.00  0.00    -0.343 N 
ATOM     31  H   UNL     1       0.788   1.406  -0.323  0.00  0.00    +0.144 HD
ATOM     32  H   UNL     1       0.037   0.054   0.334  0.00  0.00    +0.144 HD
ENDBRANCH  10  30
BRANCH   1  33
ATOM     33  C   UNL     1      -5.374  -2.915  -0.519  0.00  0.00    +0.333 C 
ATOM     34  O   UNL     1      -6.280  -2.105  -0.486  0.00  0.00    -0.246 OA
BRANCH  33  36
ATOM     35  C   UNL     1      -7.027  -4.600  -0.722  0.00  0.00    +0.280 C 
ATOM     36  O   UNL     1      -5.649  -4.230  -0.638  0.00  0.00    -0.465 OA
ENDBRANCH  33  36
ENDBRANCH   1  33
BRANCH   9  37
ATOM     37  C   UNL     1       0.057   3.684   0.243  0.00  0.00    +0.099 C 
ATOM     38  N   UNL     1       1.043   4.240   0.330  0.00  0.00    -0.191 NA
ENDBRANCH   9  37
TORSDOF 8
