REMARK  Name = ZINC40365770
REMARK  5 active torsions:
REMARK  status: ('A' for Active; 'I' for Inactive)
REMARK    1  A    between atoms: C_4  and  S_8
REMARK    2  A    between atoms: S_8  and  N_11
REMARK    3  A    between atoms: N_11  and  C_12
REMARK    4  A    between atoms: C_12  and  C_14
REMARK    5  A    between atoms: C_12  and  C_16
REMARK                            x       y       z     vdW  Elec       q    Type
REMARK                         _______ _______ _______ _____ _____    ______ ____
ROOT
ATOM      1  S   UNL     1       4.021  -0.856  -0.009  0.00  0.00    +0.061 S 
ATOM      2  O   UNL     1       3.708  -2.234  -0.155  0.00  0.00    -0.153 OA
ATOM      3  O   UNL     1       3.054   0.108   0.384  0.00  0.00    -0.153 OA
ENDROOT
BRANCH   1   7
ATOM      4  C   UNL     1       7.395  -0.608   3.002  0.00  0.00    +0.021 A 
ATOM      5  C   UNL     1       7.462  -1.516   1.962  0.00  0.00    +0.023 A 
ATOM      6  C   UNL     1       6.432  -1.592   1.042  0.00  0.00    +0.067 A 
ATOM      7  C   UNL     1       5.334  -0.759   1.163  0.00  0.00    +0.125 A 
ATOM      8  C   UNL     1       5.266   0.148   2.202  0.00  0.00    +0.050 A 
ATOM      9  C   UNL     1       6.297   0.224   3.123  0.00  0.00    +0.043 A 
ATOM     10 CL   UNL     1       6.212   1.365   4.429  0.00  0.00    -0.083 Cl
ATOM     11 CL   UNL     1       6.517  -2.732  -0.265  0.00  0.00    -0.082 Cl
ENDBRANCH   1   7
BRANCH   1  12
ATOM     12  N   UNL     1       4.628  -0.351  -1.465  0.00  0.00    -0.173 NA
ATOM     13  H   UNL     1       4.695  -0.975  -2.205  0.00  0.00    +0.149 HD
BRANCH  12  14
ATOM     14  C   UNL     1       5.061   1.038  -1.637  0.00  0.00    +0.181 C 
BRANCH  14  15
ATOM     15  C   UNL     1       6.253   1.085  -2.594  0.00  0.00    +0.022 C 
ATOM     16  C   UNL     1       7.405   0.259  -2.017  0.00  0.00    +0.006 C 
ATOM     17  C   UNL     1       8.597   0.306  -2.975  0.00  0.00    +0.000 C 
ATOM     18  C   UNL     1       9.050   1.757  -3.154  0.00  0.00    +0.000 C 
ATOM     19  C   UNL     1       7.899   2.583  -3.731  0.00  0.00    +0.000 C 
ATOM     20  C   UNL     1       6.707   2.535  -2.773  0.00  0.00    +0.006 C 
ENDBRANCH  14  15
BRANCH  14  21
ATOM     21  C   UNL     1       3.954   1.833  -2.192  0.00  0.00    +0.083 C 
ATOM     22  N   UNL     1       3.099   2.446  -2.620  0.00  0.00    -0.195 NA
ENDBRANCH  14  21
ENDBRANCH  12  14
ENDBRANCH   1  12
TORSDOF 5
