REMARK  Name = ZINC29120671
REMARK  8 active torsions:
REMARK  status: ('A' for Active; 'I' for Inactive)
REMARK    1  A    between atoms: C_1  and  C_2
REMARK    2  A    between atoms: C_7  and  C_9
REMARK    3  A    between atoms: C_7  and  C_10
REMARK    4  A    between atoms: N_13  and  C_17
REMARK    5  A    between atoms: C_17  and  C_18
REMARK    6  A    between atoms: C_23  and  C_26
REMARK    7  A    between atoms: C_29  and  N_32
REMARK    8  A    between atoms: C_33  and  C_35
REMARK                            x       y       z     vdW  Elec       q    Type
REMARK                         _______ _______ _______ _____ _____    ______ ____
ROOT
ATOM      1  C   UNL     1       1.042  -4.894  -4.814  0.00  0.00    +0.237 C 
ATOM      2  O   UNL     1       0.999  -5.469  -3.747  0.00  0.00    -0.274 OA
ATOM      3  N   UNL     1       1.206  -5.595  -5.953  0.00  0.00    -0.263 N 
ATOM      4  C   UNL     1       1.328  -6.979  -5.905  0.00  0.00    +0.165 A 
ATOM      5  N   UNL     1       1.499  -7.837  -6.893  0.00  0.00    -0.225 NA
ATOM      6  C   UNL     1       1.597  -9.138  -6.665  0.00  0.00    +0.080 A 
ATOM      7  C   UNL     1       1.519  -9.601  -5.382  0.00  0.00    +0.076 A 
ATOM      8  S   UNL     1       1.302  -8.068  -4.488  0.00  0.00    -0.060 S 
ATOM      9  H   UNL     1       1.240  -5.135  -6.806  0.00  0.00    +0.157 HD
ENDROOT
BRANCH   6  10
ATOM     10  C   UNL     1       1.788 -10.083  -7.792  0.00  0.00    +0.001 A 
ATOM     11  C   UNL     1       1.884 -11.452  -7.547  0.00  0.00    +0.012 A 
ATOM     12  C   UNL     1       2.062 -12.329  -8.596  0.00  0.00    +0.024 A 
ATOM     13  C   UNL     1       2.147 -11.848  -9.897  0.00  0.00    +0.033 A 
ATOM     14  C   UNL     1       2.052 -10.484 -10.145  0.00  0.00    +0.024 A 
ATOM     15  C   UNL     1       1.867  -9.604  -9.099  0.00  0.00    +0.012 A 
BRANCH  13  16
ATOM     16  N   UNL     1       2.328 -12.740 -10.960  0.00  0.00    -0.286 N 
ATOM     17  C   UNL     1       1.737 -12.502 -12.148  0.00  0.00    +0.214 C 
ATOM     18  O   UNL     1       1.117 -11.474 -12.321  0.00  0.00    -0.276 OA
ATOM     19  C   UNL     1       1.845 -13.513 -13.260  0.00  0.00    +0.109 C 
ATOM     20  H   UNL     1       2.880 -13.529 -10.843  0.00  0.00    +0.155 HD
ENDBRANCH  13  16
ENDBRANCH   6  10
BRANCH   1  21
ATOM     21  C   UNL     1       0.909  -3.393  -4.866  0.00  0.00    +0.214 C 
BRANCH  21  33
ATOM     22  C   UNL     1       1.093   1.363   0.386  0.00  0.00    +0.007 C 
ATOM     23  C   UNL     1       0.750  -0.104   0.119  0.00  0.00    -0.011 C 
ATOM     24  C   UNL     1       1.441  -0.564  -1.167  0.00  0.00    +0.038 C 
ATOM     25  C   UNL     1       1.117  -2.032  -1.422  0.00  0.00    +0.113 C 
ATOM     26  C   UNL     1       1.572  -2.897  -0.252  0.00  0.00    +0.041 C 
ATOM     27  C   UNL     1       0.880  -2.428   1.031  0.00  0.00    -0.032 C 
ATOM     28  C   UNL     1       1.231  -0.962   1.291  0.00  0.00    +0.009 C 
ATOM     29  C   UNL     1      -0.636  -2.570   0.874  0.00  0.00    +0.011 C 
ATOM     30  C   UNL     1       1.353  -3.283   2.208  0.00  0.00    +0.011 C 
ATOM     31  C   UNL     1       1.762  -2.499  -2.706  0.00  0.00    +0.247 C 
ATOM     32  O   UNL     1       2.946  -2.534  -2.962  0.00  0.00    -0.273 OA
ATOM     33  N   UNL     1       0.742  -2.870  -3.507  0.00  0.00    -0.215 N 
ATOM     34  C   UNL     1      -0.443  -2.702  -2.908  0.00  0.00    +0.310 C 
ATOM     35  O   UNL     1      -1.509  -2.966  -3.429  0.00  0.00    -0.252 OA
ATOM     36  N   UNL     1      -0.322  -2.206  -1.661  0.00  0.00    -0.285 N 
ATOM     37  H   UNL     1      -1.042  -2.004  -1.044  0.00  0.00    +0.151 HD
ENDBRANCH  21  33
ENDBRANCH   1  21
TORSDOF 4
