REMARK  Name = ZINC25252479
REMARK  10 active torsions:
REMARK  status: ('A' for Active; 'I' for Inactive)
REMARK    1  A    between atoms: C_4  and  C_7
REMARK    2  A    between atoms: C_7  and  N_8
REMARK    3  A    between atoms: C_11  and  N_14
REMARK    4  A    between atoms: C_15  and  C_17
REMARK    5  A    between atoms: C_17  and  C_19
REMARK    6  A    between atoms: C_17  and  N_30
REMARK    7  A    between atoms: C_19  and  C_20
REMARK    8  A    between atoms: C_31  and  O_33
REMARK    9  A    between atoms: O_33  and  C_34
REMARK   10  A    between atoms: C_34  and  C_35
REMARK                            x       y       z     vdW  Elec       q    Type
REMARK                         _______ _______ _______ _____ _____    ______ ____
ROOT
ATOM      1  C   UNL     1      -1.850  -2.273  -2.463  0.00  0.00    +0.166 C 
ENDROOT
BRANCH   1   3
ATOM      2  N   UNL     1      -0.643  -0.515  -1.210  0.00  0.00    -0.313 N 
ATOM      3  C   UNL     1      -1.186  -1.748  -1.216  0.00  0.00    +0.234 C 
ATOM      4  O   UNL     1      -1.141  -2.435  -0.217  0.00  0.00    -0.274 OA
ATOM      5  H   UNL     1      -0.684   0.109  -2.115  0.00  0.00    +0.149 HD
BRANCH   2   9
ATOM      6  N   UNL     1       1.389   1.989  -0.001  0.00  0.00    +0.384 N 
ATOM      7  C   UNL     1       2.176   0.880   0.598  0.00  0.00    -0.077 C 
ATOM      8  C   UNL     1       1.500  -0.388   0.018  0.00  0.00    +0.002 C 
ATOM      9  C   UNL     1       0.002  -0.004   0.002  0.00  0.00    +0.055 C 
ATOM     10  C   UNL     1      -0.019   1.536   0.011  0.00  0.00    -0.056 C 
ATOM     11  H   UNL     1       1.728   2.228  -1.019  0.00  0.00    -0.081 HD
BRANCH   6  12
ATOM     12  C   UNL     1       1.550   3.226   0.775  0.00  0.00    -0.043 C 
BRANCH  12  16
ATOM     13  C   UNL     1       5.709   4.068   1.267  0.00  0.00    +0.000 A 
ATOM     14  C   UNL     1       5.027   4.568   0.173  0.00  0.00    +0.000 A 
ATOM     15  C   UNL     1       3.681   4.295   0.014  0.00  0.00    +0.002 A 
ATOM     16  C   UNL     1       3.017   3.523   0.948  0.00  0.00    -0.064 A 
ATOM     17  C   UNL     1       3.698   3.028   2.045  0.00  0.00    +0.002 A 
ATOM     18  C   UNL     1       5.045   3.296   2.202  0.00  0.00    +0.000 A 
ENDBRANCH  12  16
ENDBRANCH   6  12
ENDBRANCH   2   9
ENDBRANCH   1   3
BRANCH   1  19
ATOM     19  N   UNL     1      -2.357  -3.625  -2.214  0.00  0.00    -0.269 N 
ATOM     20  C   UNL     1      -2.524  -4.482  -3.241  0.00  0.00    +0.401 C 
ATOM     21  O   UNL     1      -2.255  -4.133  -4.373  0.00  0.00    -0.226 OA
ATOM     22  H   UNL     1      -2.600  -3.941  -1.189  0.00  0.00    +0.153 HD
BRANCH  20  23
ATOM     23  O   UNL     1      -2.990  -5.724  -3.012  0.00  0.00    -0.446 OA
BRANCH  23  24
ATOM     24  C   UNL     1      -3.145  -6.593  -4.165  0.00  0.00    +0.269 C 
BRANCH  24  25
ATOM     25  C   UNL     1      -3.673  -7.932  -3.718  0.00  0.00    -0.010 A 
ATOM     26  C   UNL     1      -2.793  -8.941  -3.373  0.00  0.00    +0.007 A 
ATOM     27  C   UNL     1      -3.278 -10.168  -2.959  0.00  0.00    +0.000 A 
ATOM     28  C   UNL     1      -4.641 -10.388  -2.898  0.00  0.00    +0.000 A 
ATOM     29  C   UNL     1      -5.520  -9.380  -3.248  0.00  0.00    +0.000 A 
ATOM     30  C   UNL     1      -5.036  -8.152  -3.659  0.00  0.00    +0.007 A 
ENDBRANCH  24  25
ENDBRANCH  23  24
ENDBRANCH  20  23
ENDBRANCH   1  19
BRANCH   1  31
ATOM     31  C   UNL     1      -3.013  -1.356  -2.847  0.00  0.00    +0.069 C 
BRANCH  31  32
ATOM     32  C   UNL     1      -3.598  -1.810  -4.159  0.00  0.00    -0.020 A 
ATOM     33  C   UNL     1      -3.294  -1.334  -5.377  0.00  0.00    +0.087 A 
ATOM     34  N   UNL     1      -4.024  -1.990  -6.330  0.00  0.00    -0.360 N 
ATOM     35  H   UNL     1      -3.898  -1.734  -7.392  0.00  0.00    +0.165 HD
ATOM     36  C   UNL     1      -4.843  -2.922  -5.733  0.00  0.00    +0.047 A 
ATOM     37  C   UNL     1      -4.612  -2.850  -4.347  0.00  0.00    +0.003 A 
ATOM     38  C   UNL     1      -5.313  -3.690  -3.480  0.00  0.00    +0.010 A 
ATOM     39  C   UNL     1      -6.221  -4.580  -3.982  0.00  0.00    +0.001 A 
ATOM     40  C   UNL     1      -6.452  -4.655  -5.349  0.00  0.00    +0.002 A 
ATOM     41  C   UNL     1      -5.771  -3.835  -6.223  0.00  0.00    +0.026 A 
ENDBRANCH  31  32
ENDBRANCH   1  31
TORSDOF 10
