REMARK  Name = ZINC24272825
REMARK  12 active torsions:
REMARK  status: ('A' for Active; 'I' for Inactive)
REMARK    1  A    between atoms: C_1  and  C_2
REMARK    2  A    between atoms: C_6  and  C_34
REMARK    3  A    between atoms: C_7  and  O_8
REMARK    4  A    between atoms: O_8  and  C_9
REMARK    5  A    between atoms: C_9  and  C_10
REMARK    6  A    between atoms: C_13  and  S_16
REMARK    7  A    between atoms: N_14  and  N_15
REMARK    8  A    between atoms: S_16  and  C_17
REMARK    9  A    between atoms: C_17  and  C_18
REMARK   10  A    between atoms: N_20  and  C_21
REMARK   11  A    between atoms: C_21  and  C_23
REMARK   12  A    between atoms: C_21  and  C_24
REMARK                            x       y       z     vdW  Elec       q    Type
REMARK                         _______ _______ _______ _____ _____    ______ ____
ROOT
ATOM      1  C   UNL     1       0.994   1.774  -0.434  0.00  0.00    +0.189 A 
ATOM      2  N   UNL     1      -0.211   1.283  -0.373  0.00  0.00    -0.128 NA
ATOM      3  N   UNL     1      -0.162  -0.000  -0.321  0.00  0.00    -0.121 NA
ATOM      4  C   UNL     1       1.088  -0.401  -0.346  0.00  0.00    +0.209 A 
ATOM      5  N   UNL     1       1.865   0.720  -0.419  0.00  0.00    -0.225 N 
ENDROOT
BRANCH   5   6
ATOM      6  N   UNL     1       3.229   0.776  -0.467  0.00  0.00    -0.295 N 
ATOM      7  H   UNL     1       3.819  -0.153  -0.448  0.00  0.00    +0.163 HD
ATOM      8  H   UNL     1       3.738   1.749  -0.525  0.00  0.00    +0.163 HD
ENDBRANCH   5   6
BRANCH   1   9
ATOM      9  C   UNL     1       1.361   3.234  -0.507  0.00  0.00    +0.306 C 
BRANCH   9  10
ATOM     10  O   UNL     1       1.522   3.752   0.815  0.00  0.00    -0.484 OA
BRANCH  10  17
ATOM     11  C   UNL     1       4.272   4.396   0.877  0.00  0.00    +0.047 C 
ATOM     12  C   UNL     1       3.191   5.442   0.963  0.00  0.00    -0.009 A 
ATOM     13  C   UNL     1       3.527   6.777   1.071  0.00  0.00    +0.007 A 
ATOM     14  C   UNL     1       2.535   7.737   1.155  0.00  0.00    +0.001 A 
ATOM     15  C   UNL     1       1.204   7.363   1.125  0.00  0.00    +0.007 A 
ATOM     16  C   UNL     1       0.863   6.029   1.011  0.00  0.00    -0.009 A 
ATOM     17  C   UNL     1       1.856   5.065   0.927  0.00  0.00    +0.127 A 
ATOM     18  C   UNL     1      -0.588   5.623   0.978  0.00  0.00    +0.047 C 
ENDBRANCH  10  17
ENDBRANCH   9  10
ENDBRANCH   1   9
BRANCH   4  19
ATOM     19  S   UNL     1       1.655  -2.068  -0.295  0.00  0.00    -0.075 S 
BRANCH  19  20
ATOM     20  C   UNL     1       0.070  -2.937  -0.206  0.00  0.00    +0.173 C 
BRANCH  20  21
ATOM     21  C   UNL     1       0.315  -4.423  -0.152  0.00  0.00    +0.224 C 
ATOM     22  O   UNL     1       1.449  -4.852  -0.171  0.00  0.00    -0.275 OA
ATOM     23  N   UNL     1      -0.727  -5.275  -0.081  0.00  0.00    -0.308 N 
ATOM     24  H   UNL     1      -1.756  -4.886  -0.063  0.00  0.00    +0.149 HD
BRANCH  23  25
ATOM     25  C   UNL     1      -0.490  -6.720  -0.029  0.00  0.00    +0.101 C 
ATOM     26  C   UNL     1      -0.387  -7.272  -1.452  0.00  0.00    +0.033 C 
BRANCH  25  27
ATOM     27  C   UNL     1      -1.633  -7.391   0.689  0.00  0.00    -0.020 A 
ATOM     28  C   UNL     1      -2.870  -6.823   0.686  0.00  0.00    +0.006 A 
ATOM     29  C   UNL     1      -3.940  -7.431   1.340  0.00  0.00    +0.001 A 
ATOM     30  C   UNL     1      -3.776  -8.605   2.009  0.00  0.00    +0.008 A 
ATOM     31  C   UNL     1      -2.512  -9.219   2.038  0.00  0.00    -0.018 A 
ATOM     32  C   UNL     1      -1.425  -8.602   1.369  0.00  0.00    -0.013 A 
ATOM     33  C   UNL     1      -0.161  -9.216   1.399  0.00  0.00    +0.009 A 
ATOM     34  C   UNL     1       0.002 -10.391   2.067  0.00  0.00    +0.001 A 
ATOM     35  C   UNL     1      -1.067 -10.996   2.725  0.00  0.00    +0.001 A 
ATOM     36  C   UNL     1      -2.305 -10.431   2.718  0.00  0.00    +0.008 A 
ENDBRANCH  25  27
ENDBRANCH  23  25
ENDBRANCH  20  21
ENDBRANCH  19  20
ENDBRANCH   4  19
TORSDOF 9
