REMARK  Name = ZINC09103707
REMARK  13 active torsions:
REMARK  status: ('A' for Active; 'I' for Inactive)
REMARK    1  A    between atoms: C_1  and  C_2
REMARK    2  A    between atoms: C_2  and  C_4
REMARK    3  A    between atoms: C_2  and  N_56
REMARK    4  A    between atoms: C_7  and  S_16
REMARK    5  A    between atoms: N_8  and  C_9
REMARK    6  A    between atoms: S_16  and  C_17
REMARK    7  A    between atoms: C_17  and  C_18
REMARK    8  A    between atoms: N_20  and  C_21
REMARK    9  A    between atoms: C_24  and  N_29
REMARK   10  A    between atoms: C_26  and  O_27
REMARK   11  A    between atoms: O_27  and  C_28
REMARK   12  A    between atoms: C_32  and  N_56
REMARK   13  A    between atoms: C_33  and  N_56
REMARK                            x       y       z     vdW  Elec       q    Type
REMARK                         _______ _______ _______ _____ _____    ______ ____
ROOT
ATOM      1  C   UNL     1      -1.479   3.518   2.478  0.00  0.00    +0.125 A 
ATOM      2  N   UNL     1      -2.594   3.032   2.949  0.00  0.00    -0.135 NA
ATOM      3  N   UNL     1      -2.913   3.633   4.039  0.00  0.00    -0.122 NA
ATOM      4  C   UNL     1      -2.016   4.549   4.324  0.00  0.00    +0.197 A 
ATOM      5  N   UNL     1      -1.071   4.505   3.336  0.00  0.00    -0.275 N 
ENDROOT
BRANCH   5   6
ATOM      6  C   UNL     1       0.076   5.304   3.224  0.00  0.00    +0.050 A 
ATOM      7  C   UNL     1       1.336   4.729   3.318  0.00  0.00    +0.028 A 
ATOM      8  C   UNL     1       2.464   5.517   3.201  0.00  0.00    +0.022 A 
ATOM      9  C   UNL     1       2.340   6.880   3.003  0.00  0.00    +0.041 A 
ATOM     10  C   UNL     1       1.085   7.457   2.914  0.00  0.00    +0.022 A 
ATOM     11  C   UNL     1      -0.046   6.672   3.024  0.00  0.00    +0.028 A 
ATOM     12 CL   UNL     1       3.760   7.869   2.864  0.00  0.00    -0.084 Cl
ENDBRANCH   5   6
BRANCH   1  14
ATOM     13  C   UNL     1      -1.527   3.613   0.001  0.00  0.00    -0.005 C 
ATOM     14  C   UNL     1      -0.774   3.079   1.221  0.00  0.00    -0.003 C 
BRANCH  14  17
ATOM     15  C   UNL     1      -0.053   1.146  -0.047  0.00  0.00    -0.096 C 
ATOM     16  C   UNL     1      -0.101   1.058   2.373  0.00  0.00    -0.096 C 
ATOM     17  N   UNL     1      -0.762   1.602   1.168  0.00  0.00    +0.382 N 
ATOM     18  H   UNL     1      -1.730   1.261   1.136  0.00  0.00    -0.082 HD
ENDBRANCH  14  17
ENDBRANCH   1  14
BRANCH   4  19
ATOM     19  S   UNL     1      -2.027   5.630   5.716  0.00  0.00    -0.076 S 
BRANCH  19  20
ATOM     20  C   UNL     1      -3.553   5.085   6.524  0.00  0.00    +0.173 C 
BRANCH  20  21
ATOM     21  C   UNL     1      -3.774   5.894   7.776  0.00  0.00    +0.228 C 
ATOM     22  O   UNL     1      -2.979   6.755   8.091  0.00  0.00    -0.275 OA
ATOM     23  N   UNL     1      -4.856   5.662   8.546  0.00  0.00    -0.282 N 
ATOM     24  H   UNL     1      -5.524   5.019   8.262  0.00  0.00    +0.155 HD
BRANCH  23  25
ATOM     25  C   UNL     1      -5.014   6.348   9.757  0.00  0.00    +0.076 A 
ATOM     26  C   UNL     1      -4.579   7.660   9.875  0.00  0.00    +0.029 A 
ATOM     27  C   UNL     1      -4.736   8.335  11.071  0.00  0.00    +0.035 A 
ATOM     28  C   UNL     1      -5.326   7.706  12.152  0.00  0.00    +0.130 A 
ATOM     29  C   UNL     1      -5.761   6.399  12.042  0.00  0.00    +0.080 A 
ATOM     30  C   UNL     1      -5.613   5.717  10.845  0.00  0.00    +0.143 A 
BRANCH  28  31
ATOM     31  N   UNL     1      -5.492   8.434  13.429  0.00  0.00    +0.057 N 
ATOM     32  O   UNL     1      -5.110   9.586  13.528  0.00  0.00    -0.126 OA
ATOM     33  O   UNL     1      -6.012   7.882  14.382  0.00  0.00    -0.126 OA
ENDBRANCH  28  31
BRANCH  30  34
ATOM     34  O   UNL     1      -6.045   4.432  10.734  0.00  0.00    -0.493 OA
ATOM     35  C   UNL     1      -6.650   3.849  11.890  0.00  0.00    +0.277 C 
ENDBRANCH  30  34
ENDBRANCH  23  25
ENDBRANCH  20  21
ENDBRANCH  19  20
ENDBRANCH   4  19
TORSDOF 9
