REMARK  Name = ZINC39653123
REMARK  9 active torsions:
REMARK  status: ('A' for Active; 'I' for Inactive)
REMARK    1  A    between atoms: C_1  and  O_2
REMARK    2  A    between atoms: O_2  and  C_3
REMARK    3  A    between atoms: C_5  and  C_11
REMARK    4  A    between atoms: C_7  and  O_9
REMARK    5  A    between atoms: O_9  and  C_10
REMARK    6  A    between atoms: C_11  and  C_12
REMARK    7  A    between atoms: C_12  and  N_13
REMARK    8  A    between atoms: C_14  and  C_16
REMARK    9  A    between atoms: C_27  and  C_29
REMARK                            x       y       z     vdW  Elec       q    Type
REMARK                         _______ _______ _______ _____ _____    ______ ____
ROOT
ATOM      1  C   UNL     1       3.812  -8.235   1.036  0.00  0.00    +0.100 C 
ATOM      2  C   UNL     1       2.553  -8.851   0.387  0.00  0.00    +0.121 C 
ATOM      3  N   UNL     1       2.954  -9.134  -1.012  0.00  0.00    -0.297 N 
ATOM      4  C   UNL     1       4.346  -9.631  -0.903  0.00  0.00    +0.115 C 
ATOM      5  C   UNL     1       4.987  -8.752   0.189  0.00  0.00    -0.004 C 
ATOM      6  C   UNL     1       5.734  -7.584  -0.447  0.00  0.00    -0.010 C 
ATOM      7  C   UNL     1       6.931  -8.119  -1.238  0.00  0.00    -0.082 C 
ATOM      8  N   UNL     1       7.821  -8.864  -0.338  0.00  0.00    +0.379 N 
ATOM      9  C   UNL     1       7.123 -10.038   0.198  0.00  0.00    -0.082 C 
ATOM     10  C   UNL     1       5.934  -9.584   1.049  0.00  0.00    -0.010 C 
ATOM     11  C   UNL     1       2.218  -8.976  -2.130  0.00  0.00    +0.260 C 
ATOM     12  O   UNL     1       2.691  -9.255  -3.211  0.00  0.00    -0.271 OA
ATOM     13  H   UNL     1       8.638  -9.163  -0.848  0.00  0.00    -0.086 HD
ATOM     14  H   UNL     1       8.103  -8.266   0.424  0.00  0.00    -0.086 HD
ENDROOT
BRANCH  11  15
ATOM     15  C   UNL     1       0.808  -8.452  -2.036  0.00  0.00    +0.296 C 
ATOM     16  C   UNL     1      -0.071  -9.464  -1.289  0.00  0.00    +0.283 C 
ATOM     17  O   UNL     1      -1.403  -8.943  -1.231  0.00  0.00    -0.484 OA
ATOM     18  C   UNL     1      -1.912  -8.433  -2.386  0.00  0.00    +0.162 A 
ATOM     19  C   UNL     1      -3.282  -8.250  -2.504  0.00  0.00    +0.049 A 
ATOM     20  C   UNL     1      -3.812  -7.730  -3.670  0.00  0.00    +0.004 A 
ATOM     21  C   UNL     1      -2.980  -7.391  -4.720  0.00  0.00    +0.004 A 
ATOM     22  C   UNL     1      -1.614  -7.572  -4.609  0.00  0.00    +0.049 A 
ATOM     23  C   UNL     1      -1.075  -8.095  -3.443  0.00  0.00    +0.163 A 
ATOM     24  O   UNL     1       0.271  -8.274  -3.351  0.00  0.00    -0.473 OA
ENDBRANCH  11  15
BRANCH   1  26
ATOM     25  N   UNL     1       4.375  -5.994   1.921  0.00  0.00    -0.315 N 
ATOM     26  C   UNL     1       3.748  -6.730   0.982  0.00  0.00    +0.218 C 
ATOM     27  O   UNL     1       3.133  -6.182   0.092  0.00  0.00    -0.275 OA
ATOM     28  H   UNL     1       4.867  -6.433   2.632  0.00  0.00    +0.149 HD
BRANCH  25  29
ATOM     29  C   UNL     1       4.312  -4.532   1.868  0.00  0.00    +0.109 C 
BRANCH  29  30
ATOM     30  C   UNL     1       5.100  -3.944   3.040  0.00  0.00    +0.054 C 
BRANCH  30  33
ATOM     31  C   UNL     1       3.955  -0.383   3.585  0.00  0.00    +0.124 A 
ATOM     32  C   UNL     1       4.016  -1.769   3.634  0.00  0.00    +0.049 A 
ATOM     33  C   UNL     1       5.035  -2.440   2.985  0.00  0.00    -0.039 A 
ATOM     34  C   UNL     1       5.996  -1.733   2.287  0.00  0.00    +0.049 A 
ATOM     35  C   UNL     1       5.939  -0.348   2.235  0.00  0.00    +0.124 A 
ATOM     36  C   UNL     1       4.914   0.328   2.880  0.00  0.00    +0.091 A 
BRANCH  31  38
ATOM     37  C   UNL     1       2.949   1.702   4.126  0.00  0.00    +0.277 C 
ATOM     38  O   UNL     1       2.953   0.276   4.224  0.00  0.00    -0.495 OA
ENDBRANCH  31  38
BRANCH  35  39
ATOM     39  O   UNL     1       6.884   0.346   1.548  0.00  0.00    -0.495 OA
ATOM     40  C   UNL     1       6.763   1.770   1.537  0.00  0.00    +0.277 C 
ENDBRANCH  35  39
ENDBRANCH  30  33
ENDBRANCH  29  30
ENDBRANCH  25  29
ENDBRANCH   1  26
TORSDOF 7
