REMARK  Name = ZINC64176443
REMARK  9 active torsions:
REMARK  status: ('A' for Active; 'I' for Inactive)
REMARK    1  A    between atoms: C_1  and  C_2
REMARK    2  A    between atoms: C_4  and  C_12
REMARK    3  A    between atoms: C_18  and  C_20
REMARK    4  A    between atoms: C_20  and  C_21
REMARK    5  A    between atoms: C_21  and  C_23
REMARK    6  A    between atoms: C_21  and  N_31
REMARK    7  A    between atoms: C_26  and  O_29
REMARK    8  A    between atoms: O_29  and  C_30
REMARK    9  A    between atoms: C_32  and  C_34
REMARK                            x       y       z     vdW  Elec       q    Type
REMARK                         _______ _______ _______ _____ _____    ______ ____
ROOT
ATOM      1  C   UNL     1      -0.409  -1.296  -2.577  0.00  0.00    +0.079 A 
ATOM      2  C   UNL     1       0.325  -1.868  -3.608  0.00  0.00    +0.076 A 
ATOM      3  S   UNL     1      -0.332  -1.135  -4.972  0.00  0.00    -0.060 S 
ATOM      4  C   UNL     1      -1.542  -0.106  -4.160  0.00  0.00    +0.165 A 
ATOM      5  N   UNL     1      -1.357  -0.405  -2.893  0.00  0.00    -0.225 NA
ATOM      6  N   UNL     1      -2.449   0.779  -4.723  0.00  0.00    -0.265 N 
ATOM      7  C   UNL     1      -2.489   0.945  -6.060  0.00  0.00    +0.221 C 
ATOM      8  O   UNL     1      -1.731   0.320  -6.771  0.00  0.00    -0.275 OA
ATOM      9  H   UNL     1      -3.055   1.280  -4.154  0.00  0.00    +0.157 HD
ENDROOT
BRANCH   1  12
ATOM     10  C   UNL     1       0.341  -4.091  -1.256  0.00  0.00    +0.035 C 
ATOM     11  C   UNL     1       0.770  -2.723  -0.724  0.00  0.00    +0.109 C 
ATOM     12  C   UNL     1      -0.166  -1.649  -1.232  0.00  0.00    +0.009 C 
ATOM     13  C   UNL     1      -0.738  -1.081  -0.097  0.00  0.00    +0.005 A 
ATOM     14  C   UNL     1      -1.679  -0.043   0.080  0.00  0.00    +0.010 A 
ATOM     15  C   UNL     1      -2.065   0.310   1.332  0.00  0.00    +0.001 A 
ATOM     16  C   UNL     1      -1.552  -0.329   2.463  0.00  0.00    +0.002 A 
ATOM     17  C   UNL     1      -0.646  -1.333   2.369  0.00  0.00    +0.026 A 
ATOM     18  C   UNL     1      -0.195  -1.759   1.093  0.00  0.00    +0.043 A 
ATOM     19  N   UNL     1       0.665  -2.695   0.739  0.00  0.00    -0.377 N 
ATOM     20  H   UNL     1       1.151  -3.272   1.348  0.00  0.00    +0.160 HD
ENDBRANCH   1  12
BRANCH   7  21
ATOM     21  C   UNL     1      -3.475   1.907  -6.671  0.00  0.00    +0.123 C 
BRANCH  21  22
ATOM     22  C   UNL     1      -3.313   1.906  -8.192  0.00  0.00    +0.112 C 
BRANCH  22  23
ATOM     23  C   UNL     1      -4.378   2.773  -8.812  0.00  0.00    -0.027 A 
ATOM     24  C   UNL     1      -5.520   2.196  -9.335  0.00  0.00    +0.009 A 
ATOM     25  C   UNL     1      -6.498   2.989  -9.904  0.00  0.00    +0.046 A 
ATOM     26  C   UNL     1      -6.334   4.365  -9.949  0.00  0.00    +0.120 A 
ATOM     27  C   UNL     1      -5.188   4.942  -9.422  0.00  0.00    +0.046 A 
ATOM     28  C   UNL     1      -4.215   4.146  -8.850  0.00  0.00    +0.009 A 
BRANCH  26  29
ATOM     29  O   UNL     1      -7.295   5.147 -10.508  0.00  0.00    -0.495 OA
ATOM     30  C   UNL     1      -7.058   6.557 -10.520  0.00  0.00    +0.277 C 
ENDBRANCH  26  29
ENDBRANCH  22  23
BRANCH  22  31
ATOM     31  N   UNL     1      -1.991   2.431  -8.543  0.00  0.00    -0.308 N 
ATOM     32  C   UNL     1      -1.434   2.117  -9.730  0.00  0.00    +0.210 C 
ATOM     33  O   UNL     1      -1.990   1.335 -10.472  0.00  0.00    -0.276 OA
ATOM     34  C   UNL     1      -0.122   2.738 -10.134  0.00  0.00    +0.109 C 
ATOM     35  H   UNL     1      -1.516   3.004  -7.921  0.00  0.00    +0.149 HD
ENDBRANCH  22  31
ENDBRANCH  21  22
ENDBRANCH   7  21
TORSDOF 6
