REMARK  Name = ZINC02623525
REMARK  6 active torsions:
REMARK  status: ('A' for Active; 'I' for Inactive)
REMARK    1  A    between atoms: C_1  and  C_2
REMARK    2  A    between atoms: C_5  and  N_8
REMARK    3  A    between atoms: C_12  and  N_16
REMARK    4  A    between atoms: N_16  and  C_17
REMARK    5  A    between atoms: C_22  and  O_23
REMARK    6  A    between atoms: O_23  and  C_24
REMARK                            x       y       z     vdW  Elec       q    Type
REMARK                         _______ _______ _______ _____ _____    ______ ____
ROOT
ATOM      1  N   UNL     1       0.059  -4.172  -0.021  0.00  0.00    -0.209 N 
ATOM      2  C   UNL     1      -0.030  -4.892  -1.146  0.00  0.00    +0.228 C 
ATOM      3  O   UNL     1      -0.134  -4.436  -2.265  0.00  0.00    -0.275 OA
ATOM      4  C   UNL     1       0.020  -6.364  -0.801  0.00  0.00    +0.128 C 
ATOM      5  C   UNL     1       0.155  -6.371   0.735  0.00  0.00    +0.167 C 
ATOM      6  C   UNL     1       0.172  -4.902   1.096  0.00  0.00    +0.247 C 
ATOM      7  O   UNL     1       0.271  -4.455   2.219  0.00  0.00    -0.273 OA
ENDROOT
BRANCH   1  12
ATOM      8  C   UNL     1      -0.016   1.503   0.009  0.00  0.00    +0.044 C 
ATOM      9  C   UNL     1       0.004  -0.004   0.001  0.00  0.00    -0.050 A 
ATOM     10  C   UNL     1       1.156  -0.681   0.357  0.00  0.00    +0.005 A 
ATOM     11  C   UNL     1       1.177  -2.062   0.351  0.00  0.00    +0.024 A 
ATOM     12  C   UNL     1       0.040  -2.771  -0.013  0.00  0.00    +0.044 A 
ATOM     13  C   UNL     1      -1.115  -2.088  -0.370  0.00  0.00    +0.024 A 
ATOM     14  C   UNL     1      -1.132  -0.707  -0.357  0.00  0.00    +0.005 A 
ENDBRANCH   1  12
BRANCH   5  15
ATOM     15  N   UNL     1      -0.990  -7.048   1.350  0.00  0.00    -0.330 N 
ATOM     16  H   UNL     1      -1.837  -7.091   0.880  0.00  0.00    +0.147 HD
BRANCH  15  17
ATOM     17  C   UNL     1      -0.860  -7.631   2.616  0.00  0.00    +0.071 A 
ATOM     18  C   UNL     1       0.349  -7.565   3.292  0.00  0.00    +0.046 A 
ATOM     19  C   UNL     1       0.474  -8.142   4.543  0.00  0.00    +0.043 A 
ATOM     20  C   UNL     1      -0.605  -8.786   5.122  0.00  0.00    +0.024 A 
ATOM     21  C   UNL     1      -1.813  -8.855   4.452  0.00  0.00    +0.049 A 
ATOM     22  C   UNL     1      -1.948  -8.275   3.202  0.00  0.00    +0.141 A 
ATOM     23 CL   UNL     1       1.988  -8.059   5.387  0.00  0.00    -0.083 Cl
BRANCH  22  24
ATOM     24  O   UNL     1      -3.138  -8.338   2.546  0.00  0.00    -0.493 OA
ATOM     25  C   UNL     1      -4.209  -9.014   3.208  0.00  0.00    +0.277 C 
ENDBRANCH  22  24
ENDBRANCH  15  17
ENDBRANCH   5  15
TORSDOF 4
