REMARK  Name = ZINC24003001
REMARK  3 active torsions:
REMARK  status: ('A' for Active; 'I' for Inactive)
REMARK    1  A    between atoms: C_15  and  C_17
REMARK    2  A    between atoms: C_17  and  O_18
REMARK    3  A    between atoms: O_18  and  C_19
REMARK                            x       y       z     vdW  Elec       q    Type
REMARK                         _______ _______ _______ _____ _____    ______ ____
ROOT
ATOM      1  C   UNL     1      -1.232   1.747   0.017  0.00  0.00    +0.001 A 
ATOM      2  C   UNL     1      -0.013   1.076   0.008  0.00  0.00    +0.001 A 
ATOM      3  C   UNL     1       1.164   1.766   0.000  0.00  0.00    +0.010 A 
ATOM      4  C   UNL     1       1.144   3.165   0.008  0.00  0.00    +0.009 A 
ATOM      5  C   UNL     1      -0.090   3.850   0.024  0.00  0.00    -0.016 A 
ATOM      6  C   UNL     1      -1.284   3.108   0.032  0.00  0.00    +0.008 A 
ATOM      7  C   UNL     1      -0.123   5.259   0.032  0.00  0.00    +0.010 A 
ATOM      8  C   UNL     1       1.039   5.966   0.023  0.00  0.00    +0.018 A 
ATOM      9  C   UNL     1       2.267   5.331   0.008  0.00  0.00    +0.041 A 
ATOM     10  C   UNL     1       2.407   3.930  -0.000  0.00  0.00    +0.088 A 
ATOM     11  N   UNL     1       3.663   3.465  -0.015  0.00  0.00    -0.224 NA
ATOM     12  C   UNL     1       4.713   4.257  -0.021  0.00  0.00    +0.166 A 
ATOM     13  S   UNL     1       3.958   5.877  -0.006  0.00  0.00    -0.052 S 
ATOM     14  N   UNL     1       6.058   3.921  -0.036  0.00  0.00    -0.262 N 
ATOM     15  C   UNL     1       6.994   4.891  -0.041  0.00  0.00    +0.256 C 
ATOM     16  O   UNL     1       6.660   6.056  -0.031  0.00  0.00    -0.272 OA
ATOM     17  H   UNL     1       6.361   2.864  -0.045  0.00  0.00    +0.157 HD
ENDROOT
BRANCH  15  18
ATOM     18  C   UNL     1       8.456   4.526  -0.057  0.00  0.00    +0.324 C 
BRANCH  18  19
ATOM     19  O   UNL     1       9.244   5.718  -0.059  0.00  0.00    -0.483 OA
BRANCH  19  20
ATOM     20  C   UNL     1      10.593   5.565  -0.073  0.00  0.00    +0.125 A 
ATOM     21  C   UNL     1      11.143   4.285  -0.079  0.00  0.00    +0.046 A 
ATOM     22  C   UNL     1      12.497   4.114  -0.100  0.00  0.00    +0.015 A 
ATOM     23  C   UNL     1      13.339   5.232  -0.102  0.00  0.00    +0.018 A 
ATOM     24  C   UNL     1      14.795   5.080  -0.117  0.00  0.00    +0.018 A 
ATOM     25  C   UNL     1      15.558   6.204  -0.119  0.00  0.00    +0.092 A 
ATOM     26  C   UNL     1      14.940   7.471  -0.106  0.00  0.00    +0.337 A 
ATOM     27  O   UNL     1      15.636   8.470  -0.108  0.00  0.00    -0.245 OA
ATOM     28  O   UNL     1      13.605   7.604  -0.092  0.00  0.00    -0.422 OA
ATOM     29  C   UNL     1      12.789   6.528  -0.089  0.00  0.00    +0.143 A 
ATOM     30  C   UNL     1      11.411   6.683  -0.075  0.00  0.00    +0.092 A 
ENDBRANCH  19  20
ENDBRANCH  18  19
ENDBRANCH  15  18
TORSDOF 3
