REMARK  Name = ZINC67045872
REMARK  5 active torsions:
REMARK  status: ('A' for Active; 'I' for Inactive)
REMARK    1  A    between atoms: C_1  and  C_2
REMARK    2  A    between atoms: C_2  and  C_4
REMARK    3  A    between atoms: C_2  and  N_10
REMARK    4  A    between atoms: C_4  and  C_5
REMARK    5  A    between atoms: C_17  and  C_20
REMARK                            x       y       z     vdW  Elec       q    Type
REMARK                         _______ _______ _______ _____ _____    ______ ____
ROOT
ATOM      1  N   UNL     1       2.745  -0.264   0.067  0.00  0.00    -0.296 N 
ATOM      2  C   UNL     1       2.054  -0.600   1.174  0.00  0.00    +0.303 C 
ATOM      3  O   UNL     1       0.853  -0.415   1.220  0.00  0.00    -0.253 OA
ATOM      4  N   UNL     1       2.694  -1.141   2.229  0.00  0.00    -0.281 N 
ATOM      5  C   UNL     1       1.947  -1.621   3.403  0.00  0.00    +0.137 C 
ATOM      6  C   UNL     1       2.411  -3.048   3.720  0.00  0.00    +0.179 C 
ATOM      7  O   UNL     1       3.837  -3.067   3.823  0.00  0.00    -0.369 OA
ATOM      8  C   UNL     1       4.516  -2.712   2.616  0.00  0.00    +0.166 C 
ATOM      9  C   UNL     1       4.159  -1.274   2.240  0.00  0.00    +0.145 C 
ATOM     10  H   UNL     1       3.712  -0.342   0.056  0.00  0.00    +0.151 HD
ENDROOT
BRANCH   8  11
ATOM     11  C   UNL     1       6.004  -2.826   2.824  0.00  0.00    -0.015 A 
ATOM     12  C   UNL     1       6.556  -2.514   4.052  0.00  0.00    +0.009 A 
ATOM     13  C   UNL     1       7.921  -2.618   4.245  0.00  0.00    +0.041 A 
ATOM     14  C   UNL     1       8.736  -3.037   3.208  0.00  0.00    +0.158 A 
ATOM     15  C   UNL     1       8.182  -3.350   1.976  0.00  0.00    +0.159 A 
ATOM     16  C   UNL     1       6.815  -3.249   1.788  0.00  0.00    +0.047 A 
ATOM     17  F   UNL     1       8.976  -3.758   0.962  0.00  0.00    -0.202 F 
ATOM     18  F   UNL     1      10.070  -3.138   3.395  0.00  0.00    -0.202 F 
ENDBRANCH   8  11
BRANCH   1  20
ATOM     19  C   UNL     1       1.566  -0.973  -1.955  0.00  0.00    +0.028 C 
ATOM     20  C   UNL     1       2.036   0.220  -1.121  0.00  0.00    +0.079 C 
BRANCH  20  21
ATOM     21  C   UNL     1       2.978   1.088  -1.958  0.00  0.00    +0.096 C 
BRANCH  21  22
ATOM     22  C   UNL     1       3.344   2.326  -1.181  0.00  0.00    +0.107 A 
ATOM     23  C   UNL     1       4.397   2.453  -0.354  0.00  0.00    +0.045 A 
ATOM     24  C   UNL     1       4.359   3.770   0.159  0.00  0.00    +0.041 A 
ATOM     25  C   UNL     1       3.285   4.369  -0.386  0.00  0.00    +0.195 A 
ATOM     26  O   UNL     1       2.677   3.492  -1.201  0.00  0.00    -0.468 OA
ENDBRANCH  21  22
ENDBRANCH  20  21
ENDBRANCH   1  20
TORSDOF 4
