REMARK  Name = ZINC04738098
REMARK  3 active torsions:
REMARK  status: ('A' for Active; 'I' for Inactive)
REMARK    1  A    between atoms: C_2  and  C_9
REMARK    2  A    between atoms: N_11  and  N_12
REMARK    3  A    between atoms: C_13  and  C_15
REMARK                            x       y       z     vdW  Elec       q    Type
REMARK                         _______ _______ _______ _____ _____    ______ ____
ROOT
ATOM      1  N   UNL     1      -1.265   7.383   0.051  0.00  0.00    -0.234 N 
ATOM      2  C   UNL     1      -2.442   8.041   0.065  0.00  0.00    +0.235 C 
ATOM      3  O   UNL     1      -3.483   7.421   0.072  0.00  0.00    -0.274 OA
ATOM      4  H   UNL     1      -0.432   7.880   0.045  0.00  0.00    +0.173 HD
ENDROOT
BRANCH   2   5
ATOM      5  C   UNL     1      -2.462   9.548   0.072  0.00  0.00    +0.049 C 
ATOM      6  C   UNL     1      -1.736  10.062   1.317  0.00  0.00    +0.019 C 
ATOM      7  C   UNL     1      -1.757  11.592   1.324  0.00  0.00    -0.009 C 
ATOM      8  C   UNL     1      -3.206  12.082   1.341  0.00  0.00    +0.007 C 
ATOM      9  C   UNL     1      -3.932  11.569   0.096  0.00  0.00    -0.009 C 
ATOM     10  C   UNL     1      -3.911  10.039   0.088  0.00  0.00    +0.019 C 
ATOM     11  C   UNL     1      -3.230  12.094  -1.158  0.00  0.00    +0.007 C 
ATOM     12  C   UNL     1      -1.780  11.604  -1.174  0.00  0.00    -0.009 C 
ATOM     13  C   UNL     1      -1.054  12.118   0.071  0.00  0.00    +0.007 C 
ATOM     14  C   UNL     1      -1.760  10.074  -1.181  0.00  0.00    +0.019 C 
ENDBRANCH   2   5
BRANCH   1  17
ATOM     15  C   UNL     1      -0.070   5.325   0.029  0.00  0.00    +0.260 C 
ATOM     16  O   UNL     1       0.974   5.947   0.022  0.00  0.00    -0.269 OA
ATOM     17  N   UNL     1      -1.246   5.983   0.044  0.00  0.00    -0.230 N 
ATOM     18  H   UNL     1      -2.080   5.486   0.049  0.00  0.00    +0.173 HD
BRANCH  15  20
ATOM     19  C   UNL     1      -1.248   3.130   0.030  0.00  0.00    +0.033 A 
ATOM     20  C   UNL     1      -0.050   3.846   0.022  0.00  0.00    +0.041 A 
ATOM     21  C   UNL     1       1.166   3.162   0.007  0.00  0.00    +0.033 A 
ATOM     22  C   UNL     1       1.179   1.782   0.000  0.00  0.00    +0.043 A 
ATOM     23  C   UNL     1      -0.013   1.076   0.008  0.00  0.00    +0.040 A 
ATOM     24  C   UNL     1      -1.222   1.749   0.017  0.00  0.00    +0.043 A 
ATOM     25 CL   UNL     1      -2.711   0.855   0.019  0.00  0.00    -0.083 Cl
ATOM     26 CL   UNL     1       2.691   0.929  -0.019  0.00  0.00    -0.083 Cl
ENDBRANCH  15  20
ENDBRANCH   1  17
TORSDOF 3
