REMARK  Name = ZINC64623162
REMARK  8 active torsions:
REMARK  status: ('A' for Active; 'I' for Inactive)
REMARK    1  A    between atoms: C_1  and  C_2
REMARK    2  A    between atoms: C_2  and  O_3
REMARK    3  A    between atoms: O_3  and  C_4
REMARK    4  A    between atoms: C_4  and  C_6
REMARK    5  A    between atoms: C_11  and  N_12
REMARK    6  A    between atoms: C_21  and  O_37
REMARK    7  A    between atoms: C_28  and  C_30
REMARK    8  A    between atoms: O_37  and  C_38
REMARK                            x       y       z     vdW  Elec       q    Type
REMARK                         _______ _______ _______ _____ _____    ______ ____
ROOT
ATOM      1  N   UNL     1       2.657  -4.786  -0.557  0.00  0.00    -0.269 N 
ATOM      2  C   UNL     1       2.394  -6.052  -0.937  0.00  0.00    +0.307 C 
ATOM      3  O   UNL     1       3.012  -6.552  -1.857  0.00  0.00    -0.252 OA
ATOM      4  N   UNL     1       1.445  -6.764  -0.297  0.00  0.00    -0.276 N 
ATOM      5  C   UNL     1       0.788  -6.198   0.885  0.00  0.00    +0.114 C 
ATOM      6  C   UNL     1      -0.733  -6.143   0.650  0.00  0.00    +0.052 C 
ATOM      7  C   UNL     1      -1.129  -7.474   0.062  0.00  0.00    -0.035 C 
ATOM      8  C   UNL     1      -2.065  -8.346   0.415  0.00  0.00    +0.003 A 
ATOM      9  C   UNL     1      -3.126  -8.290   1.432  0.00  0.00    +0.055 A 
ATOM     10  C   UNL     1      -3.920  -9.390   1.548  0.00  0.00    +0.121 A 
ATOM     11  C   UNL     1      -3.778 -10.545   0.765  0.00  0.00    +0.047 A 
ATOM     12  C   UNL     1      -2.840 -10.700  -0.204  0.00  0.00    +0.029 A 
ATOM     13  C   UNL     1      -1.926  -9.572  -0.430  0.00  0.00    +0.043 A 
ATOM     14  N   UNL     1      -0.963  -9.427  -1.289  0.00  0.00    -0.375 N 
ATOM     15  C   UNL     1      -0.413  -8.079  -1.140  0.00  0.00    +0.131 C 
ATOM     16  C   UNL     1       1.075  -8.098  -0.796  0.00  0.00    +0.134 C 
ATOM     17  H   UNL     1       2.215  -4.411   0.220  0.00  0.00    +0.156 HD
ATOM     18  H   UNL     1      -0.659 -10.098  -1.920  0.00  0.00    +0.160 HD
ENDROOT
BRANCH  16  19
ATOM     19  C   UNL     1       1.877  -8.422  -2.030  0.00  0.00    -0.025 A 
ATOM     20  C   UNL     1       1.720  -7.663  -3.175  0.00  0.00    +0.008 A 
ATOM     21  C   UNL     1       2.456  -7.958  -4.307  0.00  0.00    +0.038 A 
ATOM     22  C   UNL     1       3.350  -9.015  -4.294  0.00  0.00    +0.123 A 
ATOM     23  C   UNL     1       3.507  -9.775  -3.147  0.00  0.00    +0.038 A 
ATOM     24  C   UNL     1       2.774  -9.474  -2.015  0.00  0.00    +0.008 A 
ATOM     25  F   UNL     1       4.069  -9.306  -5.401  0.00  0.00    -0.205 F 
ENDBRANCH  16  19
BRANCH   1  31
ATOM     26  C   UNL     1       3.424  -2.621  -1.330  0.00  0.00    +0.080 A 
ATOM     27  C   UNL     1       4.345  -1.860  -2.056  0.00  0.00    +0.017 A 
ATOM     28  C   UNL     1       5.378  -2.483  -2.721  0.00  0.00    +0.001 A 
ATOM     29  C   UNL     1       5.510  -3.862  -2.675  0.00  0.00    +0.002 A 
ATOM     30  C   UNL     1       4.609  -4.627  -1.963  0.00  0.00    +0.024 A 
ATOM     31  C   UNL     1       3.564  -4.017  -1.281  0.00  0.00    +0.049 A 
BRANCH  26  32
ATOM     32  C   UNL     1       2.316  -1.962  -0.616  0.00  0.00    +0.341 C 
ATOM     33  O   UNL     1       1.452  -2.631  -0.085  0.00  0.00    -0.245 OA
BRANCH  32  34
ATOM     34  O   UNL     1       2.262  -0.617  -0.553  0.00  0.00    -0.461 OA
BRANCH  34  36
ATOM     35  C   UNL     1       1.268   1.480   0.121  0.00  0.00    +0.048 C 
ATOM     36  C   UNL     1       1.160  -0.045   0.156  0.00  0.00    +0.229 C 
ENDBRANCH  34  36
ENDBRANCH  32  34
ENDBRANCH  26  32
ENDBRANCH   1  31
BRANCH  10  37
ATOM     37  O   UNL     1      -4.910  -9.368   2.479  0.00  0.00    -0.495 OA
ATOM     38  C   UNL     1      -5.730 -10.534   2.582  0.00  0.00    +0.277 C 
ENDBRANCH  10  37
TORSDOF 6
