REMARK  Name = ZINC05250077
REMARK  10 active torsions:
REMARK  status: ('A' for Active; 'I' for Inactive)
REMARK    1  A    between atoms: C_1  and  C_2
REMARK    2  A    between atoms: C_3  and  C_19
REMARK    3  A    between atoms: C_4  and  C_10
REMARK    4  A    between atoms: C_13  and  N_16
REMARK    5  A    between atoms: N_16  and  C_17
REMARK    6  A    between atoms: N_16  and  C_18
REMARK    7  A    between atoms: N_21  and  N_22
REMARK    8  A    between atoms: C_23  and  C_24
REMARK    9  A    between atoms: C_29  and  O_30
REMARK   10  A    between atoms: O_30  and  C_31
REMARK                            x       y       z     vdW  Elec       q    Type
REMARK                         _______ _______ _______ _____ _____    ______ ____
ROOT
ATOM      1  C   UNL     1       2.424  -0.209   0.339  0.00  0.00    +0.061 C 
ATOM      2  C   UNL     1       2.383   1.289   0.172  0.00  0.00    +0.017 C 
ATOM      3  C   UNL     1       1.192   1.912   0.057  0.00  0.00    +0.057 C 
ATOM      4  C   UNL     1       1.196   3.419  -0.101  0.00  0.00    +0.139 C 
ATOM      5  N   UNL     1       2.510   4.084  -0.123  0.00  0.00    -0.315 N 
ATOM      6  C   UNL     1       3.616   3.322  -0.002  0.00  0.00    +0.135 C 
ATOM      7  S   UNL     1       5.151   4.082  -0.026  0.00  0.00    -0.019 S 
ATOM      8  N   UNL     1       3.554   1.992   0.135  0.00  0.00    -0.300 N 
ATOM      9  H   UNL     1       2.579   5.046  -0.222  0.00  0.00    +0.149 HD
ATOM     10  H   UNL     1       4.386   1.501   0.217  0.00  0.00    +0.154 HD
ENDROOT
BRANCH   4  11
ATOM     11  C   UNL     1       0.486   3.753  -1.388  0.00  0.00    -0.023 A 
ATOM     12  C   UNL     1       1.119   3.544  -2.599  0.00  0.00    +0.007 A 
ATOM     13  C   UNL     1       0.469   3.844  -3.781  0.00  0.00    +0.023 A 
ATOM     14  C   UNL     1      -0.817   4.366  -3.750  0.00  0.00    +0.029 A 
ATOM     15  C   UNL     1      -1.448   4.580  -2.531  0.00  0.00    +0.023 A 
ATOM     16  C   UNL     1      -0.795   4.273  -1.354  0.00  0.00    +0.007 A 
BRANCH  14  17
ATOM     17  N   UNL     1      -1.475   4.676  -4.943  0.00  0.00    -0.336 N 
ATOM     18  C   UNL     1      -2.875   5.108  -4.916  0.00  0.00    +0.129 C 
ATOM     19  C   UNL     1      -0.766   4.570  -6.220  0.00  0.00    +0.129 C 
ENDBRANCH  14  17
ENDBRANCH   4  11
BRANCH   3  20
ATOM     20  C   UNL     1      -0.022   1.183   0.090  0.00  0.00    +0.263 C 
ATOM     21  O   UNL     1      -0.680   1.142   1.113  0.00  0.00    -0.269 OA
ATOM     22  N   UNL     1      -0.446   0.531  -1.011  0.00  0.00    -0.203 N 
ATOM     23  H   UNL     1       0.113   0.503  -1.804  0.00  0.00    +0.178 HD
BRANCH  22  24
ATOM     24  N   UNL     1      -1.694  -0.107  -1.011  0.00  0.00    -0.187 NA
ATOM     25  C   UNL     1      -2.102  -0.735  -2.071  0.00  0.00    +0.142 C 
BRANCH  25  26
ATOM     26  C   UNL     1      -3.414  -1.406  -2.070  0.00  0.00    +0.036 A 
ATOM     27  C   UNL     1      -3.860  -2.078  -3.211  0.00  0.00    +0.013 A 
ATOM     28  C   UNL     1      -5.087  -2.707  -3.202  0.00  0.00    +0.001 A 
ATOM     29  C   UNL     1      -5.883  -2.668  -2.071  0.00  0.00    +0.004 A 
ATOM     30  C   UNL     1      -5.456  -2.002  -0.938  0.00  0.00    +0.046 A 
ATOM     31  C   UNL     1      -4.224  -1.368  -0.927  0.00  0.00    +0.129 A 
BRANCH  31  32
ATOM     32  O   UNL     1      -3.803  -0.714   0.186  0.00  0.00    -0.494 OA
ATOM     33  C   UNL     1      -4.682  -0.718   1.312  0.00  0.00    +0.277 C 
ENDBRANCH  31  32
ENDBRANCH  25  26
ENDBRANCH  22  24
ENDBRANCH   3  20
TORSDOF 6
