REMARK  Name = ZINC59073703
REMARK  9 active torsions:
REMARK  status: ('A' for Active; 'I' for Inactive)
REMARK    1  A    between atoms: C_1  and  C_2
REMARK    2  A    between atoms: C_2  and  C_3
REMARK    3  A    between atoms: C_3  and  C_4
REMARK    4  A    between atoms: C_4  and  N_5
REMARK    5  A    between atoms: C_6  and  C_8
REMARK    6  A    between atoms: C_8  and  N_19
REMARK    7  A    between atoms: C_9  and  C_10
REMARK    8  A    between atoms: C_14  and  N_16
REMARK    9  A    between atoms: C_20  and  C_22
REMARK                            x       y       z     vdW  Elec       q    Type
REMARK                         _______ _______ _______ _____ _____    ______ ____
ROOT
ATOM      1  C   UNL     1      -4.351  -4.601   0.038  0.00  0.00    +0.097 C 
ATOM      2  C   UNL     1      -5.478  -3.861   0.157  0.00  0.00    +0.036 C 
ENDROOT
BRANCH   2   3
ATOM      3  C   UNL     1      -5.411  -2.396   0.042  0.00  0.00    -0.021 A 
ATOM      4  C   UNL     1      -4.438  -1.798  -0.765  0.00  0.00    +0.008 A 
ATOM      5  C   UNL     1      -4.383  -0.424  -0.868  0.00  0.00    +0.003 A 
ATOM      6  C   UNL     1      -5.287   0.362  -0.176  0.00  0.00    +0.033 A 
ATOM      7  C   UNL     1      -6.252  -0.222   0.625  0.00  0.00    +0.127 A 
ATOM      8  C   UNL     1      -6.324  -1.595   0.735  0.00  0.00    +0.040 A 
BRANCH   7   9
ATOM      9  N   UNL     1      -7.214   0.629   1.362  0.00  0.00    +0.056 N 
ATOM     10  O   UNL     1      -7.155   1.833   1.264  0.00  0.00    -0.126 OA
ATOM     11  O   UNL     1      -8.058   0.120   2.062  0.00  0.00    -0.126 OA
ENDBRANCH   7   9
ENDBRANCH   2   3
BRANCH   1  13
ATOM     12  N   UNL     1      -2.556  -3.267   1.016  0.00  0.00    -0.310 N 
ATOM     13  C   UNL     1      -3.042  -3.938  -0.047  0.00  0.00    +0.258 C 
ATOM     14  O   UNL     1      -2.397  -3.994  -1.078  0.00  0.00    -0.269 OA
ATOM     15  H   UNL     1      -3.034  -3.282   1.859  0.00  0.00    +0.149 HD
BRANCH  12  16
ATOM     16  C   UNL     1      -1.304  -2.515   0.897  0.00  0.00    +0.104 C 
BRANCH  16  17
ATOM     17  C   UNL     1      -0.915  -1.953   2.266  0.00  0.00    +0.018 C 
BRANCH  17  19
ATOM     18  C   UNL     1       0.841  -0.711   3.537  0.00  0.00    +0.004 C 
ATOM     19  C   UNL     1       0.452  -1.273   2.168  0.00  0.00    -0.002 C 
ENDBRANCH  17  19
ENDBRANCH  16  17
ENDBRANCH  12  16
ENDBRANCH   1  13
BRANCH   1  20
ATOM     20  N   UNL     1      -4.432  -5.996  -0.003  0.00  0.00    -0.277 N 
ATOM     21  C   UNL     1      -3.306  -6.736  -0.008  0.00  0.00    +0.248 C 
ATOM     22  O   UNL     1      -2.224  -6.197   0.115  0.00  0.00    -0.270 OA
ATOM     23  H   UNL     1      -5.299  -6.431  -0.029  0.00  0.00    +0.155 HD
BRANCH  21  24
ATOM     24  C   UNL     1      -3.388  -8.204  -0.162  0.00  0.00    +0.037 A 
ATOM     25  C   UNL     1      -4.629  -8.825  -0.308  0.00  0.00    +0.014 A 
ATOM     26  C   UNL     1      -4.699 -10.195  -0.451  0.00  0.00    +0.016 A 
ATOM     27  C   UNL     1      -3.540 -10.954  -0.449  0.00  0.00    +0.018 A 
ATOM     28  C   UNL     1      -2.306 -10.344  -0.304  0.00  0.00    +0.016 A 
ATOM     29  C   UNL     1      -2.223  -8.974  -0.167  0.00  0.00    +0.014 A 
ATOM     30 BR   UNL     1      -3.644 -12.832  -0.645  0.00  0.00    -0.050 Br
ENDBRANCH  21  24
ENDBRANCH   1  20
TORSDOF 8
