REMARK  Name = ZINC01943125
REMARK  12 active torsions:
REMARK  status: ('A' for Active; 'I' for Inactive)
REMARK    1  A    between atoms: C_1  and  C_2
REMARK    2  A    between atoms: C_2  and  N_55
REMARK    3  A    between atoms: C_3  and  C_4
REMARK    4  A    between atoms: C_3  and  N_55
REMARK    5  A    between atoms: C_5  and  C_6
REMARK    6  A    between atoms: C_5  and  N_55
REMARK    7  A    between atoms: C_7  and  O_30
REMARK    8  A    between atoms: C_13  and  C_26
REMARK    9  A    between atoms: C_14  and  O_17
REMARK   10  A    between atoms: O_17  and  C_18
REMARK   11  A    between atoms: C_20  and  C_25
REMARK   12  A    between atoms: C_23  and  C_24
REMARK                            x       y       z     vdW  Elec       q    Type
REMARK                         _______ _______ _______ _____ _____    ______ ____
ROOT
ATOM      1  C   UNL     1      -0.259   5.487  -0.516  0.00  0.00    +0.020 A 
ATOM      2  C   UNL     1      -1.388   6.259  -0.732  0.00  0.00    +0.122 A 
ATOM      3  C   UNL     1      -2.600   5.662  -1.075  0.00  0.00    +0.046 A 
ATOM      4  C   UNL     1      -2.689   4.305  -1.202  0.00  0.00    +0.019 A 
ATOM      5  C   UNL     1      -1.560   3.514  -0.987  0.00  0.00    +0.068 A 
ATOM      6  C   UNL     1      -0.333   4.108  -0.641  0.00  0.00    +0.144 A 
ATOM      7  O   UNL     1       0.751   3.333  -0.436  0.00  0.00    -0.447 OA
ATOM      8  C   UNL     1       0.713   1.999  -0.550  0.00  0.00    +0.254 A 
ATOM      9  C   UNL     1      -0.409   1.327  -0.876  0.00  0.00    +0.222 A 
ATOM     10  C   UNL     1      -1.613   2.047  -1.121  0.00  0.00    +0.235 A 
ATOM     11  O   UNL     1      -2.646   1.474  -1.423  0.00  0.00    -0.283 OA
ENDROOT
BRANCH   8  12
ATOM     12  C   UNL     1       1.976   1.216  -0.301  0.00  0.00    +0.454 C 
ATOM     13  F   UNL     1       2.680   1.073  -1.502  0.00  0.00    -0.163 F 
ATOM     14  F   UNL     1       2.772   1.897   0.627  0.00  0.00    -0.163 F 
ATOM     15  F   UNL     1       1.651  -0.048   0.202  0.00  0.00    -0.163 F 
ENDBRANCH   8  12
BRANCH   2  16
ATOM     16  O   UNL     1      -1.315   7.609  -0.609  0.00  0.00    -0.506 OA
ATOM     17  H   UNL     1      -1.084   8.066  -1.429  0.00  0.00    +0.292 HD
ENDBRANCH   2  16
BRANCH   1  18
ATOM     18  C   UNL     1       1.046   6.144  -0.146  0.00  0.00    -0.036 C 
BRANCH  18  19
ATOM     19  N   UNL     1       1.780   6.477  -1.385  0.00  0.00    +0.382 N 
ATOM     20  H   UNL     1       1.159   7.003  -2.010  0.00  0.00    -0.081 HD
BRANCH  19  22
ATOM     21  C   UNL     1       2.489   8.743  -0.805  0.00  0.00    -0.017 C 
ATOM     22  C   UNL     1       2.958   7.310  -1.066  0.00  0.00    -0.082 C 
ENDBRANCH  19  22
BRANCH  19  23
ATOM     23  C   UNL     1       2.209   5.237  -2.067  0.00  0.00    -0.082 C 
ATOM     24  C   UNL     1       2.646   5.584  -3.491  0.00  0.00    -0.017 C 
ENDBRANCH  19  23
ENDBRANCH  18  19
ENDBRANCH   1  18
BRANCH   9  25
ATOM     25  O   UNL     1      -0.390  -0.030  -0.978  0.00  0.00    -0.448 OA
BRANCH  25  26
ATOM     26  C   UNL     1      -0.665  -0.757   0.137  0.00  0.00    +0.132 A 
ATOM     27  C   UNL     1      -0.949  -0.113   1.334  0.00  0.00    +0.050 A 
ATOM     28  C   UNL     1      -1.233  -0.854   2.464  0.00  0.00    -0.047 A 
ATOM     29  C   UNL     1      -1.225  -2.236   2.407  0.00  0.00    +0.004 A 
ATOM     30  C   UNL     1      -0.938  -2.879   1.217  0.00  0.00    +0.007 A 
ATOM     31  C   UNL     1      -0.658  -2.143   0.083  0.00  0.00    -0.008 A 
ATOM     32  C   UNL     1      -0.344  -2.845  -1.214  0.00  0.00    +0.047 C 
ATOM     33  C   UNL     1      -1.546  -0.157   3.763  0.00  0.00    +0.044 C 
ENDBRANCH  25  26
ENDBRANCH   9  25
TORSDOF 8
