REMARK  Name = ZINC37938565
REMARK  4 active torsions:
REMARK  status: ('A' for Active; 'I' for Inactive)
REMARK    1  A    between atoms: C_5  and  N_7
REMARK    2  A    between atoms: N_7  and  C_8
REMARK    3  A    between atoms: C_8  and  C_10
REMARK    4  A    between atoms: C_8  and  C_12
REMARK                            x       y       z     vdW  Elec       q    Type
REMARK                         _______ _______ _______ _____ _____    ______ ____
ROOT
ATOM      1  C   UNL     1      -0.019  -2.831  -0.013  0.00  0.00    +0.205 C 
ENDROOT
BRANCH   1   2
ATOM      2  C   UNL     1       0.205  -4.190  -0.624  0.00  0.00    -0.009 A 
ATOM      3  C   UNL     1      -0.747  -4.734  -1.465  0.00  0.00    +0.056 A 
ATOM      4  C   UNL     1      -0.543  -5.983  -2.028  0.00  0.00    +0.168 A 
ATOM      5  C   UNL     1       0.623  -6.689  -1.743  0.00  0.00    +0.180 A 
ATOM      6  C   UNL     1       1.573  -6.138  -0.899  0.00  0.00    +0.064 A 
ATOM      7  C   UNL     1       1.365  -4.888  -0.345  0.00  0.00    +0.025 A 
ATOM      8 BR   UNL     1       3.159  -7.093  -0.509  0.00  0.00    -0.046 Br
ATOM      9  O   UNL     1       0.587  -7.879  -2.412  0.00  0.00    -0.451 OA
ATOM     10  C   UNL     1      -0.792  -8.071  -2.781  0.00  0.00    +0.466 C 
ATOM     11  O   UNL     1      -1.310  -6.731  -2.874  0.00  0.00    -0.453 OA
ENDBRANCH   1   2
BRANCH   1  12
ATOM     12  N   UNL     1       1.237  -2.078  -0.021  0.00  0.00    -0.324 N 
ATOM     13  H   UNL     1       2.085  -2.549  -0.033  0.00  0.00    +0.148 HD
BRANCH  12  18
ATOM     14  C   UNL     1      -0.017   1.377   0.010  0.00  0.00    +0.002 A 
ATOM     15  C   UNL     1       1.170   2.086   0.002  0.00  0.00    +0.001 A 
ATOM     16  C   UNL     1       2.380   1.417  -0.013  0.00  0.00    +0.017 A 
ATOM     17  C   UNL     1       2.406   0.035  -0.021  0.00  0.00    +0.039 A 
ATOM     18  C   UNL     1       1.215  -0.681  -0.013  0.00  0.00    +0.042 A 
ATOM     19  C   UNL     1       0.002  -0.004   0.002  0.00  0.00    +0.024 A 
ATOM     20 BR   UNL     1       4.061  -0.880  -0.043  0.00  0.00    -0.048 Br
ENDBRANCH  12  18
ENDBRANCH   1  12
BRANCH   1  21
ATOM     21  C   UNL     1      -0.488  -2.987   1.373  0.00  0.00    +0.090 C 
ATOM     22  N   UNL     1      -0.850  -3.107   2.443  0.00  0.00    -0.194 NA
ENDBRANCH   1  21
TORSDOF 4
