REMARK  Name = ZINC26975847
REMARK  4 active torsions:
REMARK  status: ('A' for Active; 'I' for Inactive)
REMARK    1  A    between atoms: C_5  and  C_7
REMARK    2  A    between atoms: C_10  and  C_12
REMARK    3  A    between atoms: N_14  and  N_15
REMARK    4  A    between atoms: C_16  and  C_18
REMARK                            x       y       z     vdW  Elec       q    Type
REMARK                         _______ _______ _______ _____ _____    ______ ____
ROOT
ATOM      1  C   UNL     1      -3.186  10.309   0.348  0.00  0.00    +0.295 C 
ATOM      2  O   UNL     1      -4.143   9.875   0.963  0.00  0.00    -0.265 OA
ATOM      3  N   UNL     1      -2.173   9.486   0.009  0.00  0.00    -0.228 N 
ATOM      4  H   UNL     1      -1.308   9.879  -0.546  0.00  0.00    +0.173 HD
ENDROOT
BRANCH   1   8
ATOM      5  C   UNL     1      -2.432  13.632  -0.859  0.00  0.00    +0.137 A 
ATOM      6  C   UNL     1      -3.641  13.880  -0.276  0.00  0.00    +0.051 A 
ATOM      7  C   UNL     1      -4.096  12.671   0.259  0.00  0.00    +0.055 A 
ATOM      8  C   UNL     1      -3.134  11.725  -0.023  0.00  0.00    +0.191 A 
ATOM      9  O   UNL     1      -2.134  12.333  -0.696  0.00  0.00    -0.450 OA
BRANCH   5  14
ATOM     10  C   UNL     1      -1.348  16.386  -3.170  0.00  0.00    +0.001 A 
ATOM     11  C   UNL     1      -0.007  16.498  -2.846  0.00  0.00    +0.001 A 
ATOM     12  C   UNL     1       0.548  15.681  -1.877  0.00  0.00    +0.021 A 
ATOM     13  C   UNL     1      -0.234  14.747  -1.227  0.00  0.00    +0.052 A 
ATOM     14  C   UNL     1      -1.588  14.629  -1.550  0.00  0.00    +0.036 A 
ATOM     15  C   UNL     1      -2.139  15.453  -2.533  0.00  0.00    +0.013 A 
ATOM     16 CL   UNL     1       0.464  13.722  -0.012  0.00  0.00    -0.083 Cl
ENDBRANCH   5  14
ENDBRANCH   1   8
BRANCH   3  17
ATOM     17  N   UNL     1      -2.222   8.132   0.364  0.00  0.00    -0.231 N 
ATOM     18  C   UNL     1      -1.210   7.309   0.025  0.00  0.00    +0.273 C 
ATOM     19  O   UNL     1      -0.256   7.742  -0.587  0.00  0.00    -0.270 OA
ATOM     20  H   UNL     1      -3.087   7.740   0.919  0.00  0.00    +0.173 HD
BRANCH  18  21
ATOM     21  C   UNL     1      -1.263   5.852   0.407  0.00  0.00    +0.297 C 
ATOM     22  C   UNL     1      -2.424   5.167  -0.326  0.00  0.00    +0.283 C 
ATOM     23  O   UNL     1      -2.437   3.785   0.048  0.00  0.00    -0.484 OA
ATOM     24  C   UNL     1      -1.241   3.136   0.030  0.00  0.00    +0.162 A 
ATOM     25  C   UNL     1      -1.219   1.749   0.017  0.00  0.00    +0.049 A 
ATOM     26  C   UNL     1      -0.013   1.076   0.008  0.00  0.00    +0.004 A 
ATOM     27  C   UNL     1       1.176   1.782   0.000  0.00  0.00    +0.004 A 
ATOM     28  C   UNL     1       1.161   3.164   0.007  0.00  0.00    +0.049 A 
ATOM     29  C   UNL     1      -0.046   3.846   0.020  0.00  0.00    +0.163 A 
ATOM     30  O   UNL     1      -0.045   5.207   0.019  0.00  0.00    -0.472 OA
ENDBRANCH  18  21
ENDBRANCH   3  17
TORSDOF 4
