REMARK  Name = ZINC12497068
REMARK  11 active torsions:
REMARK  status: ('A' for Active; 'I' for Inactive)
REMARK    1  A    between atoms: C_1  and  C_2
REMARK    2  A    between atoms: C_2  and  C_3
REMARK    3  A    between atoms: C_3  and  C_4
REMARK    4  A    between atoms: C_4  and  C_5
REMARK    5  A    between atoms: C_5  and  C_30
REMARK    6  A    between atoms: C_10  and  C_12
REMARK    7  A    between atoms: C_15  and  O_18
REMARK    8  A    between atoms: N_21  and  C_24
REMARK    9  A    between atoms: C_30  and  O_32
REMARK   10  A    between atoms: O_32  and  C_33
REMARK   11  A    between atoms: C_33  and  C_34
REMARK                            x       y       z     vdW  Elec       q    Type
REMARK                         _______ _______ _______ _____ _____    ______ ____
ROOT
ATOM      1  C   UNL     1      -2.068  -1.246   0.162  0.00  0.00    +0.044 C 
ATOM      2  C   UNL     1      -1.794  -0.521   1.486  0.00  0.00    +0.086 C 
ATOM      3  C   UNL     1      -0.217  -0.529   1.359  0.00  0.00    +0.077 C 
ATOM      4  C   UNL     1       0.002  -0.004   0.002  0.00  0.00    -0.027 C 
ATOM      5  C   UNL     1       0.177  -0.245   2.722  0.00  0.00    +0.229 C 
ATOM      6  O   UNL     1       1.122   0.414   3.098  0.00  0.00    -0.275 OA
ATOM      7  N   UNL     1      -0.757  -0.890   3.493  0.00  0.00    -0.210 N 
ATOM      8  C   UNL     1      -1.847  -1.296   2.774  0.00  0.00    +0.229 C 
ATOM      9  O   UNL     1      -2.681  -2.110   3.106  0.00  0.00    -0.275 OA
ATOM     10  N   UNL     1      -1.150  -0.541  -0.779  0.00  0.00    +0.395 N 
ATOM     11  H   UNL     1      -1.648   0.230  -1.238  0.00  0.00    -0.083 HD
ATOM     12  H   UNL     1      -0.810  -1.200  -1.490  0.00  0.00    -0.083 HD
ENDROOT
BRANCH   4  13
ATOM     13  C   UNL     1      -0.018   1.503   0.010  0.00  0.00    -0.060 A 
ATOM     14  C   UNL     1      -1.226   2.177   0.020  0.00  0.00    +0.005 A 
ATOM     15  C   UNL     1      -1.247   3.558   0.033  0.00  0.00    +0.045 A 
ATOM     16  C   UNL     1      -0.056   4.269   0.025  0.00  0.00    +0.117 A 
ATOM     17  C   UNL     1       1.154   3.591   0.010  0.00  0.00    +0.045 A 
ATOM     18  C   UNL     1       1.170   2.209   0.003  0.00  0.00    +0.005 A 
BRANCH  16  19
ATOM     19  O   UNL     1      -0.074   5.628   0.032  0.00  0.00    -0.507 OA
ATOM     20  H   UNL     1      -0.088   6.025  -0.850  0.00  0.00    +0.292 HD
ENDBRANCH  16  19
ENDBRANCH   4  13
BRANCH   7  21
ATOM     21  C   UNL     1      -0.611  -1.109   4.870  0.00  0.00    +0.044 A 
ATOM     22  C   UNL     1      -1.607  -1.766   5.580  0.00  0.00    +0.024 A 
ATOM     23  C   UNL     1      -1.457  -1.984   6.936  0.00  0.00    +0.002 A 
ATOM     24  C   UNL     1      -0.321  -1.540   7.588  0.00  0.00    +0.000 A 
ATOM     25  C   UNL     1       0.670  -0.881   6.884  0.00  0.00    +0.002 A 
ATOM     26  C   UNL     1       0.529  -0.664   5.527  0.00  0.00    +0.024 A 
ENDBRANCH   7  21
BRANCH   1  27
ATOM     27  C   UNL     1      -1.709  -2.706   0.267  0.00  0.00    +0.297 C 
ATOM     28  O   UNL     1      -1.710  -3.252   1.345  0.00  0.00    -0.252 OA
BRANCH  27  29
ATOM     29  O   UNL     1      -1.389  -3.399  -0.837  0.00  0.00    -0.466 OA
BRANCH  29  30
ATOM     30  C   UNL     1      -1.054  -4.801  -0.660  0.00  0.00    +0.228 C 
ATOM     31  C   UNL     1      -0.720  -5.420  -2.019  0.00  0.00    +0.048 C 
ENDBRANCH  29  30
ENDBRANCH  27  29
ENDBRANCH   1  27
BRANCH   1  32
ATOM     32  C   UNL     1      -3.530  -1.077  -0.257  0.00  0.00    -0.001 C 
BRANCH  32  33
ATOM     33  C   UNL     1      -3.769  -1.810  -1.578  0.00  0.00    -0.001 C 
BRANCH  33  35
ATOM     34  C   UNL     1      -5.471  -2.374  -3.319  0.00  0.00    +0.004 C 
ATOM     35  C   UNL     1      -5.231  -1.641  -1.997  0.00  0.00    -0.003 C 
ENDBRANCH  33  35
ENDBRANCH  32  33
ENDBRANCH   1  32
TORSDOF 9
