REMARK  Name = ZINC45599304
REMARK  9 active torsions:
REMARK  status: ('A' for Active; 'I' for Inactive)
REMARK    1  A    between atoms: C_1  and  C_2
REMARK    2  A    between atoms: C_6  and  N_8
REMARK    3  A    between atoms: C_9  and  C_27
REMARK    4  A    between atoms: C_12  and  S_13
REMARK    5  A    between atoms: S_13  and  C_14
REMARK    6  A    between atoms: C_14  and  C_16
REMARK    7  A    between atoms: C_14  and  C_17
REMARK    8  A    between atoms: N_23  and  C_24
REMARK    9  A    between atoms: N_23  and  C_25
REMARK                            x       y       z     vdW  Elec       q    Type
REMARK                         _______ _______ _______ _____ _____    ______ ____
ROOT
ATOM      1  N   UNL     1       0.053  -2.798   2.395  0.00  0.00    -0.270 N 
ATOM      2  C   UNL     1      -0.926  -3.638   2.882  0.00  0.00    +0.171 A 
ATOM      3  N   UNL     1      -0.503  -4.089   4.041  0.00  0.00    -0.128 NA
ATOM      4  N   UNL     1       0.653  -3.598   4.309  0.00  0.00    -0.122 NA
ATOM      5  C   UNL     1       1.047  -2.807   3.338  0.00  0.00    +0.197 A 
ENDROOT
BRANCH   2   6
ATOM      6  C   UNL     1      -2.206  -3.967   2.225  0.00  0.00    +0.045 A 
ATOM      7  C   UNL     1      -2.645  -3.507   1.025  0.00  0.00    +0.095 A 
ATOM      8  N   UNL     1      -3.874  -4.033   0.751  0.00  0.00    -0.360 N 
ATOM      9  H   UNL     1      -4.390  -3.851  -0.050  0.00  0.00    +0.165 HD
ATOM     10  C   UNL     1      -4.277  -4.861   1.777  0.00  0.00    +0.047 A 
ATOM     11  C   UNL     1      -3.255  -4.864   2.741  0.00  0.00    +0.010 A 
ATOM     12  C   UNL     1      -3.389  -5.628   3.899  0.00  0.00    +0.011 A 
ATOM     13  C   UNL     1      -4.526  -6.381   4.090  0.00  0.00    +0.001 A 
ATOM     14  C   UNL     1      -5.535  -6.382   3.137  0.00  0.00    +0.002 A 
ATOM     15  C   UNL     1      -5.420  -5.625   1.992  0.00  0.00    +0.026 A 
ENDBRANCH   2   6
BRANCH   1  21
ATOM     16  C   UNL     1      -0.018   1.503   0.010  0.00  0.00    +0.044 C 
ATOM     17  C   UNL     1       0.002  -0.004   0.002  0.00  0.00    -0.048 A 
ATOM     18  C   UNL     1       0.006  -0.688  -1.200  0.00  0.00    +0.003 A 
ATOM     19  C   UNL     1       0.025  -2.071  -1.212  0.00  0.00    +0.002 A 
ATOM     20  C   UNL     1       0.040  -2.773  -0.022  0.00  0.00    +0.026 A 
ATOM     21  C   UNL     1       0.037  -2.089   1.186  0.00  0.00    +0.051 A 
ATOM     22  C   UNL     1       0.023  -0.700   1.194  0.00  0.00    +0.029 A 
ENDBRANCH   1  21
BRANCH   5  23
ATOM     23  S   UNL     1       2.567  -1.919   3.264  0.00  0.00    -0.075 S 
BRANCH  23  24
ATOM     24  C   UNL     1       3.412  -2.366   4.805  0.00  0.00    +0.119 C 
ATOM     25  C   UNL     1       2.616  -1.831   5.997  0.00  0.00    +0.028 C 
BRANCH  24  26
ATOM     26  C   UNL     1       4.794  -1.764   4.813  0.00  0.00    +0.149 A 
ATOM     27  N   UNL     1       4.966  -0.506   4.447  0.00  0.00    -0.198 NA
ATOM     28  C   UNL     1       6.185   0.030   4.453  0.00  0.00    +0.217 A 
ATOM     29  N   UNL     1       7.229  -0.702   4.828  0.00  0.00    -0.181 NA
ATOM     30  C   UNL     1       7.051  -1.967   5.195  0.00  0.00    +0.222 A 
ATOM     31  N   UNL     1       5.828  -2.494   5.191  0.00  0.00    -0.198 NA
ATOM     32  N   UNL     1       8.132  -2.731   5.584  0.00  0.00    -0.306 N 
ATOM     33  C   UNL     1       9.476  -2.149   5.593  0.00  0.00    +0.132 C 
ATOM     34  C   UNL     1       7.935  -4.125   5.989  0.00  0.00    +0.132 C 
ATOM     35  N   UNL     1       6.364   1.343   4.071  0.00  0.00    -0.327 N 
ATOM     36  H   UNL     1       5.602   1.877   3.797  0.00  0.00    +0.145 HD
ATOM     37  H   UNL     1       7.253   1.733   4.075  0.00  0.00    +0.145 HD
ENDBRANCH  24  26
ENDBRANCH  23  24
ENDBRANCH   5  23
TORSDOF 5
