REMARK  Name = ZINC22789882
REMARK  6 active torsions:
REMARK  status: ('A' for Active; 'I' for Inactive)
REMARK    1  A    between atoms: C_4  and  C_7
REMARK    2  A    between atoms: C_7  and  C_31
REMARK    3  A    between atoms: N_10  and  C_14
REMARK    4  A    between atoms: C_14  and  N_15
REMARK    5  A    between atoms: N_18  and  C_21
REMARK    6  A    between atoms: C_21  and  C_22
REMARK                            x       y       z     vdW  Elec       q    Type
REMARK                         _______ _______ _______ _____ _____    ______ ____
ROOT
ATOM      1  C   UNL     1      -1.235   2.107   0.018  0.00  0.00    +0.164 C 
ATOM      2  C   UNL     1      -0.243   1.246  -0.738  0.00  0.00    +0.257 C 
ATOM      3  O   UNL     1      -0.472   0.214  -1.331  0.00  0.00    -0.272 OA
ATOM      4  N   UNL     1       0.946   1.870  -0.620  0.00  0.00    -0.210 N 
ATOM      5  C   UNL     1       0.845   2.991   0.103  0.00  0.00    +0.311 C 
ATOM      6  O   UNL     1       1.783   3.724   0.348  0.00  0.00    -0.252 OA
ATOM      7  N   UNL     1      -0.411   3.216   0.530  0.00  0.00    -0.278 N 
ATOM      8  H   UNL     1      -0.873   4.010   1.135  0.00  0.00    +0.152 HD
ENDROOT
BRANCH   1  12
ATOM      9  C   UNL     1      -4.268   3.568  -2.610  0.00  0.00    +0.000 A 
ATOM     10  C   UNL     1      -3.613   4.439  -1.760  0.00  0.00    +0.000 A 
ATOM     11  C   UNL     1      -2.631   3.966  -0.910  0.00  0.00    +0.006 A 
ATOM     12  C   UNL     1      -2.305   2.623  -0.909  0.00  0.00    -0.011 A 
ATOM     13  C   UNL     1      -2.957   1.753  -1.763  0.00  0.00    +0.006 A 
ATOM     14  C   UNL     1      -3.942   2.225  -2.610  0.00  0.00    +0.000 A 
ENDBRANCH   1  12
BRANCH   1  15
ATOM     15  C   UNL     1      -1.846   1.334   1.159  0.00  0.00    -0.011 A 
ATOM     16  C   UNL     1      -2.404   0.090   0.930  0.00  0.00    +0.006 A 
ATOM     17  C   UNL     1      -2.961  -0.620   1.976  0.00  0.00    +0.000 A 
ATOM     18  C   UNL     1      -2.968  -0.084   3.250  0.00  0.00    +0.000 A 
ATOM     19  C   UNL     1      -2.415   1.163   3.478  0.00  0.00    +0.000 A 
ATOM     20  C   UNL     1      -1.854   1.872   2.432  0.00  0.00    +0.006 A 
ENDBRANCH   1  15
BRANCH   4  21
ATOM     21  C   UNL     1       2.194   1.381  -1.210  0.00  0.00    +0.205 C 
BRANCH  21  22
ATOM     22  N   UNL     1       2.348   1.939  -2.560  0.00  0.00    -0.290 NA
ATOM     23  C   UNL     1       1.561   1.175  -3.538  0.00  0.00    +0.067 C 
ATOM     24  C   UNL     1       1.685   1.834  -4.915  0.00  0.00    -0.063 C 
ATOM     25  N   UNL     1       3.100   1.882  -5.306  0.00  0.00    +0.384 N 
ATOM     26  C   UNL     1       3.888   2.646  -4.328  0.00  0.00    -0.063 C 
ATOM     27  C   UNL     1       3.764   1.987  -2.952  0.00  0.00    +0.067 C 
ATOM     28  H   UNL     1       3.484   0.852  -5.321  0.00  0.00    -0.081 HD
BRANCH  25  29
ATOM     29  C   UNL     1       3.254   2.440  -6.656  0.00  0.00    -0.043 C 
BRANCH  29  30
ATOM     30  C   UNL     1       2.255   1.797  -7.582  0.00  0.00    -0.063 A 
ATOM     31  C   UNL     1       2.590   0.648  -8.276  0.00  0.00    +0.005 A 
ATOM     32  C   UNL     1       1.678   0.055  -9.124  0.00  0.00    +0.046 A 
ATOM     33  C   UNL     1       0.414   0.615  -9.298  0.00  0.00    +0.124 A 
ATOM     34  C   UNL     1       0.089   1.768  -8.595  0.00  0.00    -0.002 A 
ATOM     35  C   UNL     1       1.000   2.356  -7.746  0.00  0.00    +0.009 A 
ATOM     36  C   UNL     1      -1.336   2.128  -8.969  0.00  0.00    +0.080 C 
ATOM     37  C   UNL     1      -1.836   0.819  -9.623  0.00  0.00    +0.234 C 
ATOM     38  O   UNL     1      -0.619   0.210 -10.086  0.00  0.00    -0.491 OA
ENDBRANCH  29  30
ENDBRANCH  25  29
ENDBRANCH  21  22
ENDBRANCH   4  21
TORSDOF 6
