REMARK  Name = ZINC57430349
REMARK  7 active torsions:
REMARK  status: ('A' for Active; 'I' for Inactive)
REMARK    1  A    between atoms: C_1  and  C_2
REMARK    2  A    between atoms: C_2  and  C_3
REMARK    3  A    between atoms: C_3  and  C_4
REMARK    4  A    between atoms: C_4  and  N_5
REMARK    5  A    between atoms: N_8  and  C_9
REMARK    6  A    between atoms: C_9  and  C_15
REMARK    7  A    between atoms: N_17  and  C_18
REMARK                            x       y       z     vdW  Elec       q    Type
REMARK                         _______ _______ _______ _____ _____    ______ ____
ROOT
ATOM      1  C   UNL     1      -4.534  -5.805  -0.098  0.00  0.00    +0.112 C 
ATOM      2  C   UNL     1      -4.063  -6.606   1.118  0.00  0.00    +0.035 C 
ATOM      3  C   UNL     1      -4.746  -6.071   2.377  0.00  0.00    +0.003 C 
ATOM      4  C   UNL     1      -6.263  -6.209   2.232  0.00  0.00    +0.000 C 
ATOM      5  C   UNL     1      -6.734  -5.408   1.017  0.00  0.00    +0.003 C 
ATOM      6  C   UNL     1      -6.051  -5.943  -0.243  0.00  0.00    +0.035 C 
ENDROOT
BRANCH   1  10
ATOM      7  N   UNL     1      -2.569  -2.722   0.281  0.00  0.00    -0.299 N 
ATOM      8  C   UNL     1      -2.897  -4.028   0.217  0.00  0.00    +0.300 C 
ATOM      9  O   UNL     1      -2.028  -4.877   0.281  0.00  0.00    -0.253 OA
ATOM     10  N   UNL     1      -4.187  -4.393   0.084  0.00  0.00    -0.285 N 
ATOM     11  H   UNL     1      -3.262  -2.045   0.230  0.00  0.00    +0.150 HD
ATOM     12  H   UNL     1      -4.887  -3.721   0.107  0.00  0.00    +0.151 HD
BRANCH   7  13
ATOM     13  C   UNL     1      -1.167  -2.325   0.426  0.00  0.00    +0.106 C 
BRANCH  13  14
ATOM     14  C   UNL     1      -1.071  -0.799   0.472  0.00  0.00    +0.018 C 
BRANCH  14  16
ATOM     15  C   UNL     1       0.490   1.142   0.670  0.00  0.00    +0.004 C 
ATOM     16  C   UNL     1       0.394  -0.384   0.624  0.00  0.00    -0.002 C 
ENDBRANCH  14  16
ENDBRANCH  13  14
ENDBRANCH   7  13
ENDBRANCH   1  10
BRANCH   1  17
ATOM     17  C   UNL     1      -3.860  -6.332  -1.339  0.00  0.00    +0.237 C 
ATOM     18  O   UNL     1      -3.461  -7.477  -1.372  0.00  0.00    -0.273 OA
ATOM     19  N   UNL     1      -3.702  -5.532  -2.411  0.00  0.00    -0.307 N 
ATOM     20  H   UNL     1      -4.083  -4.640  -2.411  0.00  0.00    +0.149 HD
BRANCH  19  21
ATOM     21  C   UNL     1      -2.955  -6.009  -3.578  0.00  0.00    +0.105 C 
ATOM     22  C   UNL     1      -3.432  -5.261  -4.821  0.00  0.00    +0.027 C 
ATOM     23  C   UNL     1      -2.488  -5.607  -5.979  0.00  0.00    +0.008 C 
ATOM     24  C   UNL     1      -1.130  -4.969  -5.696  0.00  0.00    +0.054 C 
ATOM     25  C   UNL     1      -0.656  -5.318  -4.308  0.00  0.00    +0.024 A 
ATOM     26  C   UNL     1      -1.483  -5.781  -3.351  0.00  0.00    -0.008 A 
ATOM     27  C   UNL     1      -0.972  -6.074  -2.071  0.00  0.00    +0.012 A 
ATOM     28  C   UNL     1       0.351  -5.892  -1.810  0.00  0.00    +0.070 A 
ATOM     29  C   UNL     1       1.187  -5.413  -2.833  0.00  0.00    +0.249 A 
ATOM     30  O   UNL     1       2.378  -5.245  -2.623  0.00  0.00    -0.268 OA
ATOM     31  N   UNL     1       0.672  -5.144  -4.042  0.00  0.00    -0.326 N 
ATOM     32  H   UNL     1       1.257  -4.816  -4.742  0.00  0.00    +0.169 HD
ENDBRANCH  19  21
ENDBRANCH   1  17
TORSDOF 6
