REMARK  Name = ZINC34683899
REMARK  12 active torsions:
REMARK  status: ('A' for Active; 'I' for Inactive)
REMARK    1  A    between atoms: C_1  and  O_2
REMARK    2  A    between atoms: O_2  and  C_3
REMARK    3  A    between atoms: C_6  and  C_13
REMARK    4  A    between atoms: C_7  and  O_11
REMARK    5  A    between atoms: C_8  and  O_9
REMARK    6  A    between atoms: O_9  and  C_10
REMARK    7  A    between atoms: O_11  and  C_12
REMARK    8  A    between atoms: C_13  and  N_14
REMARK    9  A    between atoms: C_17  and  N_20
REMARK   10  A    between atoms: N_20  and  C_21
REMARK   11  A    between atoms: N_20  and  S_27
REMARK   12  A    between atoms: S_27  and  C_30
REMARK                            x       y       z     vdW  Elec       q    Type
REMARK                         _______ _______ _______ _____ _____    ______ ____
ROOT
ATOM      1  N   UNL     1       1.959  -2.712  -6.156  0.00  0.00    +0.383 N 
ATOM      2  C   UNL     1       1.165  -3.559  -5.258  0.00  0.00    -0.077 C 
ATOM      3  C   UNL     1      -0.097  -4.032  -5.981  0.00  0.00    +0.006 C 
ATOM      4  C   UNL     1       0.302  -4.836  -7.222  0.00  0.00    +0.095 C 
ATOM      5  C   UNL     1       1.192  -3.967  -8.116  0.00  0.00    +0.006 C 
ATOM      6  C   UNL     1       2.407  -3.496  -7.314  0.00  0.00    -0.077 C 
ATOM      7  H   UNL     1       1.394  -1.938  -6.473  0.00  0.00    -0.081 HD
ENDROOT
BRANCH   1   8
ATOM      8  C   UNL     1       3.130  -2.197  -5.434  0.00  0.00    -0.039 C 
BRANCH   8  12
ATOM      9  C   UNL     1       1.835   0.378  -2.270  0.00  0.00    +0.165 A 
ATOM     10  C   UNL     1       2.290   0.914  -3.465  0.00  0.00    +0.050 A 
ATOM     11  C   UNL     1       2.708   0.080  -4.485  0.00  0.00    +0.009 A 
ATOM     12  C   UNL     1       2.674  -1.292  -4.318  0.00  0.00    -0.018 A 
ATOM     13  C   UNL     1       2.220  -1.836  -3.127  0.00  0.00    +0.167 A 
ATOM     14  C   UNL     1       1.805  -1.001  -2.096  0.00  0.00    +0.204 A 
BRANCH   9  16
ATOM     15  C   UNL     1       1.481   2.605  -1.516  0.00  0.00    +0.277 C 
ATOM     16  O   UNL     1       1.423   1.199  -1.268  0.00  0.00    -0.491 OA
ENDBRANCH   9  16
BRANCH  14  17
ATOM     17  O   UNL     1       1.364  -1.531  -0.923  0.00  0.00    -0.488 OA
ATOM     18  C   UNL     1      -0.033  -1.816  -0.825  0.00  0.00    +0.277 C 
ENDBRANCH  14  17
BRANCH  13  19
ATOM     19  O   UNL     1       2.186  -3.186  -2.964  0.00  0.00    -0.491 OA
ATOM     20  C   UNL     1       3.356  -3.804  -2.423  0.00  0.00    +0.277 C 
ENDBRANCH  13  19
ENDBRANCH   8  12
ENDBRANCH   1   8
BRANCH   4  21
ATOM     21  N   UNL     1      -0.901  -5.228  -7.960  0.00  0.00    -0.200 N 
BRANCH  21  22
ATOM     22  C   UNL     1      -1.722  -4.250  -8.526  0.00  0.00    +0.052 A 
ATOM     23  C   UNL     1      -2.530  -3.464  -7.713  0.00  0.00    +0.025 A 
ATOM     24  C   UNL     1      -3.341  -2.498  -8.276  0.00  0.00    +0.002 A 
ATOM     25  C   UNL     1      -3.350  -2.313  -9.646  0.00  0.00    +0.000 A 
ATOM     26  C   UNL     1      -2.547  -3.093 -10.458  0.00  0.00    +0.002 A 
ATOM     27  C   UNL     1      -1.730  -4.057  -9.902  0.00  0.00    +0.025 A 
ENDBRANCH  21  22
BRANCH  21  28
ATOM     28  S   UNL     1      -1.286  -6.830  -8.125  0.00  0.00    +0.075 S 
ATOM     29  O   UNL     1      -2.212  -6.917  -9.199  0.00  0.00    -0.150 OA
ATOM     30  O   UNL     1      -0.059  -7.546  -8.116  0.00  0.00    -0.150 OA
BRANCH  28  31
ATOM     31  C   UNL     1      -2.158  -7.308  -6.670  0.00  0.00    +0.109 A 
ATOM     32  C   UNL     1      -1.464  -7.792  -5.577  0.00  0.00    +0.031 A 
ATOM     33  C   UNL     1      -2.146  -8.167  -4.435  0.00  0.00    +0.040 A 
ATOM     34  C   UNL     1      -3.526  -8.057  -4.386  0.00  0.00    +0.124 A 
ATOM     35  C   UNL     1      -4.220  -7.571  -5.481  0.00  0.00    +0.040 A 
ATOM     36  C   UNL     1      -3.534  -7.192  -6.620  0.00  0.00    +0.031 A 
ATOM     37  F   UNL     1      -4.194  -8.423  -3.270  0.00  0.00    -0.205 F 
ENDBRANCH  28  31
ENDBRANCH  21  28
ENDBRANCH   4  21
TORSDOF 9
