REMARK  Name = ZINC39534246
REMARK  12 active torsions:
REMARK  status: ('A' for Active; 'I' for Inactive)
REMARK    1  A    between atoms: C_1  and  C_2
REMARK    2  A    between atoms: C_2  and  O_3
REMARK    3  A    between atoms: O_3  and  N_4
REMARK    4  A    between atoms: N_4  and  C_5
REMARK    5  A    between atoms: C_5  and  C_6
REMARK    6  A    between atoms: C_6  and  C_8
REMARK    7  A    between atoms: C_6  and  N_24
REMARK    8  A    between atoms: C_11  and  S_14
REMARK    9  A    between atoms: S_14  and  O_17
REMARK   10  A    between atoms: O_17  and  C_18
REMARK   11  A    between atoms: C_28  and  C_31
REMARK   12  A    between atoms: C_36  and  O_37
REMARK                            x       y       z     vdW  Elec       q    Type
REMARK                         _______ _______ _______ _____ _____    ______ ____
ROOT
ATOM      1  C   UNL     1      -2.897  -3.923   0.009  0.00  0.00    +0.103 C 
ENDROOT
BRANCH   1   2
ATOM      2  N   UNL     1      -2.103  -4.265   1.197  0.00  0.00    -0.297 NA
ATOM      3  C   UNL     1      -2.265  -3.251   2.248  0.00  0.00    +0.066 C 
ATOM      4  C   UNL     1      -1.473  -3.675   3.487  0.00  0.00    -0.066 C 
ATOM      5  N   UNL     1      -0.054  -3.818   3.135  0.00  0.00    +0.385 N 
ATOM      6  C   UNL     1       0.094  -4.851   2.102  0.00  0.00    -0.023 C 
ATOM      7  C   UNL     1      -0.685  -4.438   0.852  0.00  0.00    +0.074 C 
ATOM      8  H   UNL     1       0.296  -2.939   2.785  0.00  0.00    -0.085 HD
ATOM      9  H   UNL     1       0.470  -4.085   3.955  0.00  0.00    -0.085 HD
BRANCH   6  10
ATOM     10  C   UNL     1       1.552  -5.009   1.756  0.00  0.00    -0.019 A 
ATOM     11  C   UNL     1       2.448  -4.002   2.058  0.00  0.00    +0.005 A 
ATOM     12  C   UNL     1       3.786  -4.146   1.740  0.00  0.00    +0.000 A 
ATOM     13  C   UNL     1       4.231  -5.299   1.119  0.00  0.00    +0.004 A 
ATOM     14  C   UNL     1       3.339  -6.309   0.815  0.00  0.00    +0.045 A 
ATOM     15  C   UNL     1       1.997  -6.169   1.137  0.00  0.00    +0.118 A 
BRANCH  15  16
ATOM     16  O   UNL     1       1.119  -7.163   0.844  0.00  0.00    -0.507 OA
ATOM     17  H   UNL     1       0.716  -7.087  -0.032  0.00  0.00    +0.292 HD
ENDBRANCH  15  16
ENDBRANCH   6  10
ENDBRANCH   1   2
BRANCH   1  18
ATOM     18  C   UNL     1      -4.253  -4.572   0.106  0.00  0.00    -0.029 A 
ATOM     19  C   UNL     1      -4.867  -4.708   1.337  0.00  0.00    +0.007 A 
ATOM     20  C   UNL     1      -6.112  -5.303   1.427  0.00  0.00    +0.031 A 
ATOM     21  C   UNL     1      -6.742  -5.761   0.285  0.00  0.00    +0.128 A 
ATOM     22  C   UNL     1      -6.129  -5.624  -0.946  0.00  0.00    +0.031 A 
ATOM     23  C   UNL     1      -4.886  -5.026  -1.036  0.00  0.00    +0.007 A 
BRANCH  21  24
ATOM     24  S   UNL     1      -8.328  -6.521   0.399  0.00  0.00    +0.151 S 
ATOM     25  O   UNL     1      -8.463  -7.354  -0.744  0.00  0.00    -0.131 OA
ATOM     26  O   UNL     1      -8.445  -7.020   1.724  0.00  0.00    -0.131 OA
BRANCH  24  27
ATOM     27  O   UNL     1      -9.367  -5.417   0.257  0.00  0.00    -0.342 OA
BRANCH  27  28
ATOM     28  C   UNL     1      -9.518  -4.960  -1.014  0.00  0.00    +0.157 A 
ATOM     29  C   UNL     1      -8.741  -3.905  -1.469  0.00  0.00    +0.048 A 
ATOM     30  C   UNL     1      -8.896  -3.443  -2.762  0.00  0.00    +0.004 A 
ATOM     31  C   UNL     1      -9.825  -4.030  -3.601  0.00  0.00    +0.000 A 
ATOM     32  C   UNL     1     -10.600  -5.082  -3.149  0.00  0.00    +0.004 A 
ATOM     33  C   UNL     1     -10.445  -5.552  -1.859  0.00  0.00    +0.048 A 
ENDBRANCH  27  28
ENDBRANCH  24  27
ENDBRANCH  21  24
ENDBRANCH   1  18
BRANCH   1  34
ATOM     34  C   UNL     1      -3.062  -2.404  -0.074  0.00  0.00    +0.134 C 
BRANCH  34  35
ATOM     35  N   UNL     1      -1.738  -1.770  -0.134  0.00  0.00    -0.199 NA
ATOM     36  H   UNL     1      -1.200  -2.131  -0.907  0.00  0.00    +0.154 HD
BRANCH  35  37
ATOM     37  O   UNL     1      -1.858  -0.314  -0.214  0.00  0.00    -0.300 OA
BRANCH  37  39
ATOM     38  C   UNL     1      -0.850   1.878  -0.356  0.00  0.00    +0.036 C 
ATOM     39  C   UNL     1      -0.605   0.369  -0.276  0.00  0.00    +0.182 C 
ENDBRANCH  37  39
ENDBRANCH  35  37
ENDBRANCH  34  35
ENDBRANCH   1  34
TORSDOF 11
