REMARK  Name = ZINC39011835
REMARK  5 active torsions:
REMARK  status: ('A' for Active; 'I' for Inactive)
REMARK    1  A    between atoms: C_1  and  C_2
REMARK    2  A    between atoms: C_7  and  N_8
REMARK    3  A    between atoms: C_9  and  O_33
REMARK    4  A    between atoms: C_12  and  O_32
REMARK    5  A    between atoms: C_13  and  C_17
REMARK                            x       y       z     vdW  Elec       q    Type
REMARK                         _______ _______ _______ _____ _____    ______ ____
ROOT
ATOM      1  N   UNL     1       0.025  -0.014   2.417  0.00  0.00    -0.225 N 
ATOM      2  C   UNL     1      -1.250   0.309   3.040  0.00  0.00    +0.338 C 
ATOM      3  N   UNL     1      -1.113   0.581   4.461  0.00  0.00    -0.204 NA
ATOM      4  C   UNL     1      -0.016   0.909   5.026  0.00  0.00    +0.200 C 
ATOM      5  C   UNL     1       1.277   1.049   4.276  0.00  0.00    +0.183 C 
ATOM      6  C   UNL     1       1.201   0.320   2.965  0.00  0.00    +0.237 C 
ATOM      7  O   UNL     1       2.227   0.030   2.387  0.00  0.00    -0.274 OA
ENDROOT
BRANCH   5   8
ATOM      8  C   UNL     1       1.554   2.531   4.018  0.00  0.00    +0.122 C 
ATOM      9  C   UNL     1       1.765   3.245   5.332  0.00  0.00    +0.039 A 
ATOM     10  H   UNL     1       2.993   1.976   6.438  0.00  0.00    +0.166 HD
ATOM     11  C   UNL     1       1.218   4.450   5.612  0.00  0.00    -0.016 A 
ATOM     12  C   UNL     1       1.636   4.809   6.948  0.00  0.00    +0.003 A 
ATOM     13  C   UNL     1       1.385   5.922   7.756  0.00  0.00    +0.010 A 
ATOM     14  C   UNL     1       1.961   5.928   9.003  0.00  0.00    +0.001 A 
ATOM     15  C   UNL     1       2.754   4.885   9.451  0.00  0.00    +0.002 A 
ATOM     16  C   UNL     1       3.020   3.771   8.673  0.00  0.00    +0.026 A 
ATOM     17  C   UNL     1       2.449   3.738   7.403  0.00  0.00    +0.047 A 
ATOM     18  N   UNL     1       2.504   2.813   6.399  0.00  0.00    -0.356 N 
ATOM     19  C   UNL     1       0.345   5.212   4.646  0.00  0.00    +0.052 C 
ATOM     20  C   UNL     1       0.534   4.600   3.252  0.00  0.00    +0.086 C 
ATOM     21  N   UNL     1       0.401   3.137   3.332  0.00  0.00    -0.307 NA
ATOM     22  H   UNL     1       0.270   2.732   2.417  0.00  0.00    +0.123 HD
ENDBRANCH   5   8
BRANCH   1  29
ATOM     23  C   UNL     1      -0.018   1.503   0.010  0.00  0.00    +0.045 C 
ATOM     24  C   UNL     1       0.002  -0.004   0.002  0.00  0.00    -0.029 A 
ATOM     25  C   UNL     1       0.006  -0.689  -1.198  0.00  0.00    +0.006 A 
ATOM     26  C   UNL     1       0.025  -2.071  -1.207  0.00  0.00    +0.020 A 
ATOM     27  C   UNL     1       0.040  -2.773  -0.014  0.00  0.00    +0.043 A 
ATOM     28  C   UNL     1       0.036  -2.094   1.189  0.00  0.00    +0.044 A 
ATOM     29  C   UNL     1       0.023  -0.705   1.200  0.00  0.00    +0.045 A 
ATOM     30 CL   UNL     1       0.064  -4.509  -0.030  0.00  0.00    -0.083 Cl
ENDBRANCH   1  29
BRANCH   4  31
ATOM     31  O   UNL     1      -0.019   1.140   6.355  0.00  0.00    -0.495 OA
ATOM     32  H   UNL     1      -0.885   1.032   6.771  0.00  0.00    +0.293 HD
ENDBRANCH   4  31
BRANCH   2  33
ATOM     33  O   UNL     1      -1.801   1.461   2.399  0.00  0.00    -0.356 OA
ATOM     34  H   UNL     1      -2.654   1.741   2.758  0.00  0.00    +0.214 HD
ENDBRANCH   2  33
TORSDOF 4
