REMARK  Name = ZINC14966400
REMARK  8 active torsions:
REMARK  status: ('A' for Active; 'I' for Inactive)
REMARK    1  A    between atoms: C_1  and  N_2
REMARK    2  A    between atoms: N_2  and  C_3
REMARK    3  A    between atoms: C_3  and  C_5
REMARK    4  A    between atoms: C_3  and  C_13
REMARK    5  A    between atoms: C_5  and  C_6
REMARK    6  A    between atoms: C_18  and  C_19
REMARK    7  A    between atoms: C_18  and  N_64
REMARK    8  A    between atoms: C_29  and  C_31
REMARK                            x       y       z     vdW  Elec       q    Type
REMARK                         _______ _______ _______ _____ _____    ______ ____
ROOT
ATOM      1  C   UNL     1       2.372   1.045   0.088  0.00  0.00    +0.083 C 
ENDROOT
BRANCH   1   2
ATOM      2  C   UNL     1       3.137   1.259  -1.220  0.00  0.00    +0.006 C 
ATOM      3  C   UNL     1       3.656   2.699  -1.280  0.00  0.00    -0.013 C 
ATOM      4  C   UNL     1       4.367   2.925  -2.616  0.00  0.00    -0.078 C 
ATOM      5  C   UNL     1       2.954   1.288  -3.710  0.00  0.00    -0.078 C 
ATOM      6  C   UNL     1       2.200   1.013  -2.406  0.00  0.00    -0.013 C 
ATOM      7  N   UNL     1       3.405   2.695  -3.715  0.00  0.00    +0.383 N 
ATOM      8  H   UNL     1       2.591   3.307  -3.579  0.00  0.00    -0.081 HD
BRANCH   7   9
ATOM      9  C   UNL     1       4.036   3.018  -5.012  0.00  0.00    -0.025 C 
BRANCH   9  10
ATOM     10  C   UNL     1       4.726   4.353  -4.907  0.00  0.00    +0.000 A 
ATOM     11  C   UNL     1       4.183   5.531  -5.252  0.00  0.00    +0.029 A 
ATOM     12  C   UNL     1       5.190   6.561  -4.987  0.00  0.00    -0.000 A 
ATOM     13  C   UNL     1       5.220   7.950  -5.134  0.00  0.00    +0.010 A 
ATOM     14  C   UNL     1       6.346   8.644  -4.792  0.00  0.00    +0.001 A 
ATOM     15  C   UNL     1       7.461   7.980  -4.298  0.00  0.00    +0.002 A 
ATOM     16  C   UNL     1       7.452   6.611  -4.144  0.00  0.00    +0.026 A 
ATOM     17  C   UNL     1       6.317   5.884  -4.487  0.00  0.00    +0.047 A 
ATOM     18  N   UNL     1       6.002   4.544  -4.451  0.00  0.00    -0.360 N 
ATOM     19  H   UNL     1       6.597   3.840  -4.148  0.00  0.00    +0.166 HD
ENDBRANCH   9  10
ENDBRANCH   7   9
ENDBRANCH   1   2
BRANCH   1  21
ATOM     20  C   UNL     1       4.542   0.736   1.368  0.00  0.00    +0.132 C 
ATOM     21  N   UNL     1       3.237   1.386   1.220  0.00  0.00    -0.294 N 
ATOM     22  C   UNL     1       2.832   2.297   2.127  0.00  0.00    +0.282 C 
ATOM     23  O   UNL     1       1.787   2.899   1.960  0.00  0.00    -0.267 OA
BRANCH  22  24
ATOM     24  C   UNL     1       3.654   2.569   3.311  0.00  0.00    +0.189 A 
ATOM     25  C   UNL     1       3.317   3.387   4.351  0.00  0.00    +0.054 A 
ATOM     26  C   UNL     1       4.389   3.351   5.256  0.00  0.00    +0.042 A 
ATOM     27  C   UNL     1       5.322   2.524   4.735  0.00  0.00    +0.196 A 
ATOM     28  O   UNL     1       4.873   2.051   3.565  0.00  0.00    -0.458 OA
ENDBRANCH  22  24
ENDBRANCH   1  21
BRANCH   1  29
ATOM     29  C   UNL     1       1.946  -0.420   0.195  0.00  0.00    +0.059 C 
BRANCH  29  30
ATOM     30  C   UNL     1       1.089  -0.606   1.421  0.00  0.00    -0.027 A 
ATOM     31  C   UNL     1       1.659  -1.034   2.605  0.00  0.00    +0.005 A 
ATOM     32  C   UNL     1       0.874  -1.200   3.730  0.00  0.00    +0.000 A 
ATOM     33  C   UNL     1      -0.484  -0.947   3.670  0.00  0.00    +0.001 A 
ATOM     34  C   UNL     1      -1.056  -0.523   2.486  0.00  0.00    +0.020 A 
ATOM     35  C   UNL     1      -0.270  -0.353   1.360  0.00  0.00    +0.044 A 
ATOM     36 CL   UNL     1      -0.988   0.179  -0.128  0.00  0.00    -0.083 Cl
ENDBRANCH  29  30
ENDBRANCH   1  29
TORSDOF 7
