REMARK  Name = ZINC32398472
REMARK  7 active torsions:
REMARK  status: ('A' for Active; 'I' for Inactive)
REMARK    1  A    between atoms: C_1  and  C_2
REMARK    2  A    between atoms: N_11  and  C_15
REMARK    3  A    between atoms: C_15  and  C_16
REMARK    4  A    between atoms: N_18  and  C_19
REMARK    5  A    between atoms: C_19  and  C_20
REMARK    6  A    between atoms: C_19  and  C_21
REMARK    7  A    between atoms: C_19  and  C_22
REMARK                            x       y       z     vdW  Elec       q    Type
REMARK                         _______ _______ _______ _____ _____    ______ ____
ROOT
ATOM      1  C   UNL     1      -3.937  -0.321   4.484  0.00  0.00    +0.213 C 
ENDROOT
BRANCH   1  11
ATOM      2  C   UNL     1      -0.035   0.370   2.443  0.00  0.00    +0.010 C 
ATOM      3  C   UNL     1      -0.793   0.637   1.141  0.00  0.00    +0.018 C 
ATOM      4  C   UNL     1      -0.035   0.005  -0.029  0.00  0.00    +0.006 C 
ATOM      5  C   UNL     1      -0.805   0.256  -1.328  0.00  0.00    +0.000 C 
ATOM      6  C   UNL     1      -2.194  -0.378  -1.231  0.00  0.00    +0.003 C 
ATOM      7  C   UNL     1      -2.960   0.252  -0.064  0.00  0.00    +0.035 C 
ATOM      8  C   UNL     1      -2.189   0.029   1.232  0.00  0.00    +0.115 C 
ATOM      9  C   UNL     1      -2.944   0.613   2.403  0.00  0.00    +0.247 C 
ATOM     10  O   UNL     1      -3.246   1.775   2.576  0.00  0.00    -0.273 OA
ATOM     11  N   UNL     1      -3.211  -0.430   3.216  0.00  0.00    -0.215 N 
ATOM     12  C   UNL     1      -2.732  -1.577   2.720  0.00  0.00    +0.310 C 
ATOM     13  O   UNL     1      -2.848  -2.653   3.272  0.00  0.00    -0.252 OA
ATOM     14  N   UNL     1      -2.106  -1.405   1.540  0.00  0.00    -0.285 N 
ATOM     15  H   UNL     1      -1.597  -2.088   0.844  0.00  0.00    +0.151 HD
ENDBRANCH   1  11
BRANCH   1  16
ATOM     16  C   UNL     1      -2.959  -0.065   5.602  0.00  0.00    +0.232 C 
ATOM     17  O   UNL     1      -1.773   0.018   5.363  0.00  0.00    -0.274 OA
ATOM     18  N   UNL     1      -3.402   0.072   6.867  0.00  0.00    -0.305 N 
ATOM     19  H   UNL     1      -4.478  -0.003   7.084  0.00  0.00    +0.150 HD
BRANCH  18  20
ATOM     20  C   UNL     1      -2.451   0.320   7.954  0.00  0.00    +0.054 C 
ATOM     21  C   UNL     1      -1.438  -0.824   8.016  0.00  0.00    +0.036 C 
ATOM     22  C   UNL     1      -1.718   1.638   7.698  0.00  0.00    +0.036 C 
BRANCH  20  23
ATOM     23  C   UNL     1      -3.195   0.405   9.262  0.00  0.00    -0.025 A 
ATOM     24  C   UNL     1      -2.652   1.108  10.321  0.00  0.00    +0.007 A 
ATOM     25  C   UNL     1      -3.335   1.190  11.520  0.00  0.00    +0.015 A 
ATOM     26  C   UNL     1      -4.558   0.559  11.663  0.00  0.00    +0.018 A 
ATOM     27  C   UNL     1      -5.099  -0.149  10.604  0.00  0.00    +0.015 A 
ATOM     28  C   UNL     1      -4.417  -0.226   9.404  0.00  0.00    +0.007 A 
ATOM     29 BR   UNL     1      -5.491   0.665  13.304  0.00  0.00    -0.050 Br
ENDBRANCH  20  23
ENDBRANCH  18  20
ENDBRANCH   1  16
TORSDOF 4
