REMARK  Name = ZINC39656804
REMARK  8 active torsions:
REMARK  status: ('A' for Active; 'I' for Inactive)
REMARK    1  A    between atoms: C_1  and  C_2
REMARK    2  A    between atoms: C_2  and  C_4
REMARK    3  A    between atoms: C_2  and  N_11
REMARK    4  A    between atoms: C_12  and  C_14
REMARK    5  A    between atoms: C_25  and  C_27
REMARK    6  A    between atoms: C_32  and  O_33
REMARK    7  A    between atoms: O_33  and  C_34
REMARK    8  A    between atoms: C_34  and  C_36
REMARK                            x       y       z     vdW  Elec       q    Type
REMARK                         _______ _______ _______ _____ _____    ______ ____
ROOT
ATOM      1  C   UNL     1       0.222  -1.060  -3.432  0.00  0.00    +0.100 C 
ATOM      2  C   UNL     1       1.037  -2.353  -3.208  0.00  0.00    +0.121 C 
ATOM      3  N   UNL     1       0.207  -3.427  -3.802  0.00  0.00    -0.296 N 
ATOM      4  C   UNL     1      -0.354  -2.821  -5.033  0.00  0.00    +0.115 C 
ATOM      5  C   UNL     1      -0.687  -1.370  -4.633  0.00  0.00    -0.004 C 
ATOM      6  C   UNL     1      -0.380  -0.420  -5.787  0.00  0.00    -0.010 C 
ATOM      7  C   UNL     1      -1.336  -0.708  -6.948  0.00  0.00    -0.082 C 
ATOM      8  N   UNL     1      -2.722  -0.532  -6.499  0.00  0.00    +0.379 N 
ATOM      9  C   UNL     1      -3.038  -1.513  -5.453  0.00  0.00    -0.082 C 
ATOM     10  C   UNL     1      -2.154  -1.258  -4.228  0.00  0.00    -0.010 C 
ATOM     11  C   UNL     1       0.007  -4.674  -3.331  0.00  0.00    +0.250 C 
ATOM     12  O   UNL     1      -0.630  -5.476  -3.985  0.00  0.00    -0.270 OA
ATOM     13  H   UNL     1      -2.839   0.400  -6.130  0.00  0.00    -0.086 HD
ATOM     14  H   UNL     1      -3.346  -0.663  -7.280  0.00  0.00    -0.086 HD
ENDROOT
BRANCH  11  15
ATOM     15  C   UNL     1       0.562  -5.065  -2.020  0.00  0.00    +0.079 A 
ATOM     16  C   UNL     1       1.793  -4.558  -1.599  0.00  0.00    +0.017 A 
ATOM     17  C   UNL     1       2.306  -4.926  -0.374  0.00  0.00    +0.001 A 
ATOM     18  C   UNL     1       1.605  -5.798   0.443  0.00  0.00    +0.004 A 
ATOM     19  C   UNL     1       0.387  -6.307   0.038  0.00  0.00    +0.047 A 
ATOM     20  C   UNL     1      -0.146  -5.943  -1.189  0.00  0.00    +0.144 A 
BRANCH  20  21
ATOM     21  O   UNL     1      -1.346  -6.438  -1.585  0.00  0.00    -0.425 OA
BRANCH  21  22
ATOM     22  C   UNL     1      -2.445  -5.712  -1.324  0.00  0.00    +0.309 C 
ATOM     23  O   UNL     1      -2.341  -4.613  -0.834  0.00  0.00    -0.251 OA
ATOM     24  C   UNL     1      -3.809  -6.269  -1.642  0.00  0.00    +0.136 C 
ENDBRANCH  21  22
ENDBRANCH  20  21
ENDBRANCH  11  15
BRANCH   1  26
ATOM     25  N   UNL     1      -0.907   0.535  -1.915  0.00  0.00    -0.308 N 
ATOM     26  C   UNL     1      -0.608  -0.745  -2.214  0.00  0.00    +0.219 C 
ATOM     27  O   UNL     1      -1.005  -1.643  -1.502  0.00  0.00    -0.275 OA
ATOM     28  H   UNL     1      -0.589   1.253  -2.485  0.00  0.00    +0.149 HD
BRANCH  25  30
ATOM     29  C   UNL     1      -3.199   0.729  -1.082  0.00  0.00    +0.033 C 
ATOM     30  C   UNL     1      -1.714   0.841  -0.731  0.00  0.00    +0.100 C 
BRANCH  30  31
ATOM     31  C   UNL     1      -1.412   2.243  -0.267  0.00  0.00    -0.027 A 
ATOM     32  C   UNL     1      -1.240   3.255  -1.192  0.00  0.00    +0.006 A 
ATOM     33  C   UNL     1      -0.963   4.541  -0.767  0.00  0.00    +0.015 A 
ATOM     34  C   UNL     1      -0.859   4.814   0.585  0.00  0.00    +0.018 A 
ATOM     35  C   UNL     1      -1.031   3.801   1.511  0.00  0.00    +0.015 A 
ATOM     36  C   UNL     1      -1.313   2.517   1.084  0.00  0.00    +0.006 A 
ATOM     37 BR   UNL     1      -0.480   6.573   1.168  0.00  0.00    -0.050 Br
ENDBRANCH  30  31
ENDBRANCH  25  30
ENDBRANCH   1  26
TORSDOF 6
