REMARK  Name = ZINC36638681
REMARK  11 active torsions:
REMARK  status: ('A' for Active; 'I' for Inactive)
REMARK    1  A    between atoms: C_1  and  C_2
REMARK    2  A    between atoms: C_2  and  C_3
REMARK    3  A    between atoms: C_2  and  C_4
REMARK    4  A    between atoms: C_2  and  O_5
REMARK    5  A    between atoms: O_5  and  C_6
REMARK    6  A    between atoms: N_8  and  C_9
REMARK    7  A    between atoms: C_9  and  C_11
REMARK    8  A    between atoms: C_9  and  C_18
REMARK    9  A    between atoms: C_11  and  C_12
REMARK   10  A    between atoms: C_18  and  N_20
REMARK   11  A    between atoms: N_22  and  C_33
REMARK                            x       y       z     vdW  Elec       q    Type
REMARK                         _______ _______ _______ _____ _____    ______ ____
ROOT
ATOM      1  C   UNL     1       4.109   2.045  -2.070  0.00  0.00    +0.259 C 
ATOM      2  O   UNL     1       3.488   2.837  -1.388  0.00  0.00    -0.272 OA
ENDROOT
BRANCH   1   3
ATOM      3  N   UNL     1       4.983   2.486  -2.972  0.00  0.00    -0.157 NA
ATOM      4  C   UNL     1       4.605   3.376  -3.882  0.00  0.00    +0.154 C 
ATOM      5  N   UNL     1       3.335   3.771  -4.135  0.00  0.00    -0.276 N 
ATOM      6  C   UNL     1       3.072   4.728  -5.196  0.00  0.00    +0.116 C 
ATOM      7  C   UNL     1       2.090   4.102  -6.213  0.00  0.00    +0.190 C 
ATOM      8  S   UNL     1       2.709   4.794  -7.808  0.00  0.00    -0.028 S 
ATOM      9  O   UNL     1       2.182   6.101  -7.989  0.00  0.00    -0.174 OA
ATOM     10  O   UNL     1       2.555   3.823  -8.834  0.00  0.00    -0.174 OA
ATOM     11  C   UNL     1       4.490   4.912  -7.338  0.00  0.00    +0.182 C 
ATOM     12  C   UNL     1       4.379   5.208  -5.841  0.00  0.00    +0.097 C 
ATOM     13  S   UNL     1       5.617   4.219  -4.920  0.00  0.00    -0.086 S 
BRANCH   5  14
ATOM     14  C   UNL     1       2.278   3.258  -3.377  0.00  0.00    +0.036 A 
ATOM     15  C   UNL     1       1.590   4.081  -2.495  0.00  0.00    +0.023 A 
ATOM     16  C   UNL     1       0.546   3.572  -1.748  0.00  0.00    +0.002 A 
ATOM     17  C   UNL     1       0.186   2.243  -1.877  0.00  0.00    +0.000 A 
ATOM     18  C   UNL     1       0.869   1.420  -2.754  0.00  0.00    +0.002 A 
ATOM     19  C   UNL     1       1.910   1.925  -3.508  0.00  0.00    +0.023 A 
ENDBRANCH   5  14
ENDBRANCH   1   3
BRANCH   1  20
ATOM     20  C   UNL     1       3.888   0.565  -1.895  0.00  0.00    +0.168 C 
BRANCH  20  23
ATOM     21  C   UNL     1       2.441   0.859   0.043  0.00  0.00    +0.401 C 
ATOM     22  O   UNL     1       3.350   1.441   0.599  0.00  0.00    -0.226 OA
ATOM     23  N   UNL     1       2.626   0.339  -1.187  0.00  0.00    -0.269 N 
ATOM     24  H   UNL     1       1.923  -0.184  -1.603  0.00  0.00    +0.153 HD
BRANCH  21  25
ATOM     25  O   UNL     1       1.248   0.733   0.654  0.00  0.00    -0.445 OA
BRANCH  25  27
ATOM     26  C   UNL     1       1.317   2.880   1.761  0.00  0.00    +0.055 C 
ATOM     27  C   UNL     1       1.098   1.374   1.922  0.00  0.00    +0.107 C 
ATOM     28  C   UNL     1       2.128   0.811   2.903  0.00  0.00    +0.055 C 
ATOM     29  C   UNL     1      -0.311   1.118   2.460  0.00  0.00    +0.055 C 
ENDBRANCH  25  27
ENDBRANCH  21  25
ENDBRANCH  20  23
BRANCH  20  30
ATOM     30  C   UNL     1       5.041  -0.030  -1.084  0.00  0.00    +0.067 C 
BRANCH  30  31
ATOM     31  C   UNL     1       4.886  -1.528  -1.014  0.00  0.00    -0.045 A 
ATOM     32  C   UNL     1       4.164  -2.100   0.017  0.00  0.00    +0.004 A 
ATOM     33  C   UNL     1       4.021  -3.473   0.082  0.00  0.00    +0.000 A 
ATOM     34  C   UNL     1       4.600  -4.274  -0.885  0.00  0.00    +0.000 A 
ATOM     35  C   UNL     1       5.321  -3.702  -1.916  0.00  0.00    +0.000 A 
ATOM     36  C   UNL     1       5.460  -2.329  -1.983  0.00  0.00    +0.004 A 
ENDBRANCH  30  31
ENDBRANCH  20  30
ENDBRANCH   1  20
TORSDOF 8
