REMARK  Name = ZINC20568997
REMARK  9 active torsions:
REMARK  status: ('A' for Active; 'I' for Inactive)
REMARK    1  A    between atoms: C_1  and  C_2
REMARK    2  A    between atoms: C_3  and  C_25
REMARK    3  A    between atoms: C_12  and  N_20
REMARK    4  A    between atoms: C_13  and  C_14
REMARK    5  A    between atoms: C_14  and  O_16
REMARK    6  A    between atoms: O_16  and  C_17
REMARK    7  A    between atoms: C_17  and  C_18
REMARK    8  A    between atoms: C_17  and  C_19
REMARK    9  A    between atoms: C_25  and  C_27
REMARK                            x       y       z     vdW  Elec       q    Type
REMARK                         _______ _______ _______ _____ _____    ______ ____
ROOT
ATOM      1  C   UNL     1      -1.626   8.628   0.613  0.00  0.00    +0.087 C 
ATOM      2  C   UNL     1      -2.415   7.349   0.511  0.00  0.00    +0.114 C 
ATOM      3  C   UNL     1      -1.853   6.133   0.387  0.00  0.00    +0.064 C 
ATOM      4  C   UNL     1      -3.006   5.155   0.315  0.00  0.00    +0.161 C 
ATOM      5  C   UNL     1      -2.950   4.202   1.473  0.00  0.00    +0.001 A 
ATOM      6  C   UNL     1      -3.288   4.642   2.740  0.00  0.00    +0.022 A 
ATOM      7  C   UNL     1      -3.238   3.774   3.815  0.00  0.00    +0.018 A 
ATOM      8  C   UNL     1      -2.849   2.459   3.629  0.00  0.00    +0.017 A 
ATOM      9  C   UNL     1      -2.512   2.012   2.368  0.00  0.00    +0.024 A 
ATOM     10  C   UNL     1      -2.563   2.882   1.285  0.00  0.00    +0.037 A 
ATOM     11  N   UNL     1      -2.230   2.421   0.008  0.00  0.00    -0.302 N 
ATOM     12  C   UNL     1      -2.615   3.124  -1.102  0.00  0.00    +0.097 C 
ATOM     13  C   UNL     1      -3.000   4.438  -1.000  0.00  0.00    +0.098 C 
ATOM     14 BR   UNL     1      -3.702   4.386   5.543  0.00  0.00    -0.050 Br
ATOM     15  C   UNL     1      -4.226   6.044   0.429  0.00  0.00    +0.332 C 
ATOM     16  O   UNL     1      -5.383   5.699   0.423  0.00  0.00    -0.249 OA
ATOM     17  O   UNL     1      -3.753   7.298   0.535  0.00  0.00    -0.429 OA
ATOM     18  H   UNL     1      -1.656   1.490  -0.108  0.00  0.00    +0.153 HD
ENDROOT
BRANCH  12  19
ATOM     19  N   UNL     1      -2.617   2.510  -2.327  0.00  0.00    -0.346 N 
ATOM     20  H   UNL     1      -2.926   3.070  -3.222  0.00  0.00    +0.143 HD
ATOM     21  H   UNL     1      -2.311   1.458  -2.415  0.00  0.00    +0.143 HD
ENDBRANCH  12  19
BRANCH  13  22
ATOM     22  C   UNL     1      -3.396   5.125  -2.154  0.00  0.00    +0.340 C 
ATOM     23  O   UNL     1      -3.505   4.528  -3.210  0.00  0.00    -0.245 OA
BRANCH  22  24
ATOM     24  O   UNL     1      -3.657   6.449  -2.096  0.00  0.00    -0.459 OA
BRANCH  24  25
ATOM     25  C   UNL     1      -4.056   7.086  -3.311  0.00  0.00    +0.171 C 
ATOM     26  C   UNL     1      -5.579   7.028  -3.441  0.00  0.00    +0.052 C 
ATOM     27  C   UNL     1      -3.601   8.546  -3.295  0.00  0.00    +0.052 C 
ENDBRANCH  24  25
ENDBRANCH  22  24
ENDBRANCH  13  22
BRANCH   3  28
ATOM     28  C   UNL     1      -0.469   5.831   0.330  0.00  0.00    +0.194 C 
ATOM     29  O   UNL     1       0.034   5.477  -0.721  0.00  0.00    -0.287 OA
BRANCH  28  30
ATOM     30  C   UNL     1       0.364   5.945   1.547  0.00  0.00    +0.022 A 
ATOM     31  C   UNL     1       1.698   5.534   1.525  0.00  0.00    +0.012 A 
ATOM     32  C   UNL     1       2.469   5.643   2.664  0.00  0.00    +0.001 A 
ATOM     33  C   UNL     1       1.923   6.158   3.826  0.00  0.00    +0.000 A 
ATOM     34  C   UNL     1       0.600   6.564   3.856  0.00  0.00    +0.001 A 
ATOM     35  C   UNL     1      -0.180   6.465   2.723  0.00  0.00    +0.012 A 
ENDBRANCH  28  30
ENDBRANCH   3  28
TORSDOF 6
