REMARK  Name = ZINC60163345
REMARK  5 active torsions:
REMARK  status: ('A' for Active; 'I' for Inactive)
REMARK    1  A    between atoms: C_4  and  C_7
REMARK    2  A    between atoms: C_7  and  C_9
REMARK    3  A    between atoms: C_7  and  N_16
REMARK    4  A    between atoms: C_17  and  C_19
REMARK    5  A    between atoms: C_22  and  C_27
REMARK                            x       y       z     vdW  Elec       q    Type
REMARK                         _______ _______ _______ _____ _____    ______ ____
ROOT
ATOM      1  N   UNL     1       3.629  -1.866  -0.928  0.00  0.00    -0.300 N 
ATOM      2  C   UNL     1       3.825  -1.716  -2.253  0.00  0.00    +0.250 C 
ATOM      3  O   UNL     1       3.994  -0.605  -2.721  0.00  0.00    -0.270 OA
ATOM      4  H   UNL     1       3.420  -2.741  -0.565  0.00  0.00    +0.150 HD
ENDROOT
BRANCH   2   5
ATOM      5  C   UNL     1       3.833  -2.892  -3.131  0.00  0.00    +0.101 A 
ATOM      6  C   UNL     1       4.157  -2.759  -4.486  0.00  0.00    +0.020 A 
ATOM      7  C   UNL     1       4.158  -3.884  -5.293  0.00  0.00    +0.030 A 
ATOM      8  C   UNL     1       3.840  -5.124  -4.753  0.00  0.00    +0.085 A 
ATOM      9  N   UNL     1       3.525  -5.247  -3.426  0.00  0.00    -0.319 N 
ATOM     10  H   UNL     1       3.306  -6.121  -3.066  0.00  0.00    +0.169 HD
ATOM     11  C   UNL     1       3.520  -4.173  -2.615  0.00  0.00    +0.261 A 
ATOM     12  O   UNL     1       3.242  -4.303  -1.435  0.00  0.00    -0.267 OA
BRANCH   8  13
ATOM     13  C   UNL     1       3.843  -6.311  -5.611  0.00  0.00    +0.151 A 
ATOM     14  C   UNL     1       3.547  -7.586  -5.218  0.00  0.00    +0.051 A 
ATOM     15  C   UNL     1       3.674  -8.398  -6.356  0.00  0.00    +0.042 A 
ATOM     16  C   UNL     1       4.036  -7.594  -7.380  0.00  0.00    +0.196 A 
ATOM     17  O   UNL     1       4.131  -6.336  -6.928  0.00  0.00    -0.461 OA
ENDBRANCH   8  13
ENDBRANCH   2   5
BRANCH   1  18
ATOM     18  C   UNL     1       3.732  -0.708  -0.036  0.00  0.00    +0.134 C 
BRANCH  18  19
ATOM     19  C   UNL     1       4.085  -1.174   1.353  0.00  0.00    -0.023 A 
ATOM     20  C   UNL     1       3.510  -2.323   1.863  0.00  0.00    +0.007 A 
ATOM     21  C   UNL     1       3.834  -2.751   3.137  0.00  0.00    +0.015 A 
ATOM     22  C   UNL     1       4.733  -2.029   3.901  0.00  0.00    +0.018 A 
ATOM     23  C   UNL     1       5.308  -0.879   3.390  0.00  0.00    +0.015 A 
ATOM     24  C   UNL     1       4.987  -0.455   2.114  0.00  0.00    +0.007 A 
ATOM     25 BR   UNL     1       5.176  -2.613   5.645  0.00  0.00    -0.050 Br
ENDBRANCH  18  19
BRANCH  18  29
ATOM     26  C   UNL     1      -0.009   1.351   0.058  0.00  0.00    +0.000 A 
ATOM     27  C   UNL     1       1.173   2.067   0.036  0.00  0.00    +0.000 A 
ATOM     28  C   UNL     1       2.384   1.400   0.006  0.00  0.00    +0.006 A 
ATOM     29  C   UNL     1       2.412   0.018  -0.002  0.00  0.00    -0.023 A 
ATOM     30  C   UNL     1       1.230  -0.697   0.021  0.00  0.00    +0.006 A 
ATOM     31  C   UNL     1       0.019  -0.031   0.050  0.00  0.00    +0.000 A 
ENDBRANCH  18  29
ENDBRANCH   1  18
TORSDOF 5
