REMARK  Name = ZINC39325084
REMARK  8 active torsions:
REMARK  status: ('A' for Active; 'I' for Inactive)
REMARK    1  A    between atoms: C_1  and  O_2
REMARK    2  A    between atoms: O_2  and  C_3
REMARK    3  A    between atoms: C_6  and  C_9
REMARK    4  A    between atoms: C_9  and  N_10
REMARK    5  A    between atoms: N_10  and  C_11
REMARK    6  A    between atoms: N_10  and  S_28
REMARK    7  A    between atoms: C_11  and  C_12
REMARK    8  A    between atoms: S_28  and  C_31
REMARK                            x       y       z     vdW  Elec       q    Type
REMARK                         _______ _______ _______ _____ _____    ______ ____
ROOT
ATOM      1  N   UNL     1       3.795  -2.769  -4.053  0.00  0.00    -0.171 NA
ENDROOT
BRANCH   1   2
ATOM      2  S   UNL     1       4.790  -1.624  -4.718  0.00  0.00    +0.061 S 
ATOM      3  O   UNL     1       5.991  -2.291  -5.081  0.00  0.00    -0.153 OA
ATOM      4  O   UNL     1       4.006  -0.902  -5.658  0.00  0.00    -0.153 OA
BRANCH   2   5
ATOM      5  C   UNL     1       5.211  -0.491  -3.436  0.00  0.00    +0.106 A 
ATOM      6  C   UNL     1       4.418   0.618  -3.207  0.00  0.00    +0.031 A 
ATOM      7  C   UNL     1       4.747   1.507  -2.202  0.00  0.00    +0.040 A 
ATOM      8  C   UNL     1       5.871   1.287  -1.423  0.00  0.00    +0.124 A 
ATOM      9  C   UNL     1       6.664   0.175  -1.654  0.00  0.00    +0.040 A 
ATOM     10  C   UNL     1       6.330  -0.715  -2.657  0.00  0.00    +0.031 A 
ATOM     11  F   UNL     1       6.194   2.155  -0.441  0.00  0.00    -0.205 F 
ENDBRANCH   2   5
ENDBRANCH   1   2
BRANCH   1  12
ATOM     12  C   UNL     1       2.341  -2.641  -4.181  0.00  0.00    +0.144 C 
BRANCH  12  16
ATOM     13  C   UNL     1       0.742  -0.918  -0.613  0.00  0.00    +0.120 A 
ATOM     14  C   UNL     1       1.141  -0.101  -1.661  0.00  0.00    +0.046 A 
ATOM     15  C   UNL     1       1.658  -0.660  -2.813  0.00  0.00    +0.008 A 
ATOM     16  C   UNL     1       1.778  -2.033  -2.923  0.00  0.00    -0.031 A 
ATOM     17  C   UNL     1       1.381  -2.850  -1.880  0.00  0.00    +0.008 A 
ATOM     18  C   UNL     1       0.869  -2.295  -0.723  0.00  0.00    +0.046 A 
BRANCH  13  20
ATOM     19  C   UNL     1       0.132   1.055   0.566  0.00  0.00    +0.277 C 
ATOM     20  O   UNL     1       0.234  -0.370   0.522  0.00  0.00    -0.495 OA
ENDBRANCH  13  20
ENDBRANCH  12  16
ENDBRANCH   1  12
BRANCH   1  21
ATOM     21  C   UNL     1       4.369  -3.910  -3.336  0.00  0.00    +0.126 C 
BRANCH  21  22
ATOM     22  C   UNL     1       4.553  -5.081  -4.304  0.00  0.00    +0.114 C 
ATOM     23  C   UNL     1       3.206  -5.382  -4.931  0.00  0.00    -0.003 C 
ATOM     24  C   UNL     1       2.710  -6.639  -4.773  0.00  0.00    -0.003 A 
ATOM     25  C   UNL     1       1.416  -7.011  -5.345  0.00  0.00    +0.059 A 
ATOM     26  C   UNL     1       0.947  -8.276  -5.170  0.00  0.00    +0.163 A 
ATOM     27  C   UNL     1       1.688  -9.234  -4.449  0.00  0.00    +0.164 A 
ATOM     28  C   UNL     1       2.913  -8.931  -3.888  0.00  0.00    +0.073 A 
ATOM     29  C   UNL     1       3.469  -7.654  -4.018  0.00  0.00    +0.044 A 
ATOM     30  N   UNL     1       4.655  -7.383  -3.467  0.00  0.00    -0.284 N 
ATOM     31  C   UNL     1       5.237  -6.201  -3.553  0.00  0.00    +0.225 C 
ATOM     32  O   UNL     1       6.319  -6.014  -3.029  0.00  0.00    -0.275 OA
ATOM     33  O   UNL     1       1.206 -10.496  -4.294  0.00  0.00    -0.485 OA
ATOM     34  C   UNL     1      -0.191 -10.689  -4.531  0.00  0.00    +0.270 C 
ATOM     35  C   UNL     1      -0.558  -9.991  -5.847  0.00  0.00    +0.270 C 
ATOM     36  O   UNL     1      -0.263  -8.597  -5.710  0.00  0.00    -0.485 OA
ATOM     37  H   UNL     1       5.110  -8.089  -2.981  0.00  0.00    +0.155 HD
ENDBRANCH  21  22
ENDBRANCH   1  21
TORSDOF 7
