REMARK  Name = ZINC20861643
REMARK  4 active torsions:
REMARK  status: ('A' for Active; 'I' for Inactive)
REMARK    1  A    between atoms: C_1  and  C_2
REMARK    2  A    between atoms: C_3  and  C_20
REMARK    3  A    between atoms: C_6  and  C_8
REMARK    4  A    between atoms: N_13  and  C_15
REMARK                            x       y       z     vdW  Elec       q    Type
REMARK                         _______ _______ _______ _____ _____    ______ ____
ROOT
ATOM      1  C   UNL     1       1.128   4.545   1.797  0.00  0.00    +0.065 C 
ATOM      2  C   UNL     1       2.227   4.423   0.772  0.00  0.00    +0.039 A 
ATOM      3  C   UNL     1       2.481   3.332  -0.004  0.00  0.00    +0.074 A 
ATOM      4  N   UNL     1       3.562   3.658  -0.794  0.00  0.00    -0.342 N 
ATOM      5  H   UNL     1       3.955   2.928  -1.516  0.00  0.00    +0.167 HD
ATOM      6  C   UNL     1       3.925   4.925  -0.466  0.00  0.00    +0.090 A 
ATOM      7  N   UNL     1       3.126   5.366   0.468  0.00  0.00    -0.347 N 
ATOM      8  H   UNL     1       3.105   6.335   0.988  0.00  0.00    +0.167 HD
ENDROOT
BRANCH   6   9
ATOM      9  C   UNL     1       5.064   5.697  -1.080  0.00  0.00    +0.079 C 
ATOM     10  C   UNL     1       6.200   4.746  -1.525  0.00  0.00    +0.108 C 
ATOM     11  C   UNL     1       6.713   5.358  -2.811  0.00  0.00    +0.217 C 
ATOM     12  O   UNL     1       7.773   5.087  -3.334  0.00  0.00    -0.276 OA
ATOM     13  N   UNL     1       5.823   6.246  -3.288  0.00  0.00    -0.298 N 
ATOM     14  C   UNL     1       4.641   6.333  -2.423  0.00  0.00    +0.119 C 
BRANCH  13  15
ATOM     15  C   UNL     1       6.011   7.027  -4.513  0.00  0.00    +0.076 C 
ATOM     16  C   UNL     1       6.222   6.083  -5.714  0.00  0.00    +0.022 C 
ATOM     17  C   UNL     1       7.272   6.813  -6.590  0.00  0.00    +0.002 C 
ATOM     18  C   UNL     1       8.221   7.437  -5.537  0.00  0.00    +0.002 C 
ATOM     19  C   UNL     1       7.281   7.888  -4.400  0.00  0.00    +0.022 C 
ENDBRANCH  13  15
ENDBRANCH   6   9
BRANCH   3  20
ATOM     20  C   UNL     1       1.742   2.058  -0.004  0.00  0.00    +0.039 A 
ATOM     21  C   UNL     1       2.229   0.777  -0.015  0.00  0.00    +0.019 A 
ATOM     22  C   UNL     1       1.334  -0.271  -0.012  0.00  0.00    +0.028 A 
ATOM     23  C   UNL     1       0.002  -0.004   0.002  0.00  0.00    +0.079 A 
ATOM     24  S   UNL     1      -0.022   1.781   0.012  0.00  0.00    -0.075 S 
ATOM     25 CL   UNL     1      -1.333  -1.113   0.009  0.00  0.00    -0.076 Cl
ENDBRANCH   3  20
TORSDOF 3
