REMARK  Name = ZINC20412441
REMARK  3 active torsions:
REMARK  status: ('A' for Active; 'I' for Inactive)
REMARK    1  A    between atoms: C_1  and  C_2
REMARK    2  A    between atoms: N_5  and  C_8
REMARK    3  A    between atoms: C_8  and  C_9
REMARK                            x       y       z     vdW  Elec       q    Type
REMARK                         _______ _______ _______ _____ _____    ______ ____
ROOT
ATOM      1  C   UNL     1       0.348   5.858  -2.820  0.00  0.00    -0.046 A 
ATOM      2  C   UNL     1       1.281   6.037  -3.791  0.00  0.00    +0.094 A 
ATOM      3  C   UNL     1       0.878   6.389  -5.095  0.00  0.00    +0.337 A 
ATOM      4  O   UNL     1       1.725   6.547  -5.956  0.00  0.00    -0.245 OA
ATOM      5  O   UNL     1      -0.416   6.555  -5.412  0.00  0.00    -0.422 OA
ATOM      6  C   UNL     1      -1.393   6.391  -4.495  0.00  0.00    +0.143 A 
ATOM      7  C   UNL     1      -1.062   6.034  -3.175  0.00  0.00    +0.021 A 
ATOM      8  C   UNL     1      -2.072   5.857  -2.222  0.00  0.00    +0.035 A 
ATOM      9  C   UNL     1      -3.379   6.026  -2.580  0.00  0.00    +0.088 A 
ATOM     10  C   UNL     1      -3.713   6.375  -3.888  0.00  0.00    +0.201 A 
ATOM     11  C   UNL     1      -2.725   6.566  -4.840  0.00  0.00    +0.099 A 
ATOM     12  O   UNL     1      -5.017   6.541  -4.228  0.00  0.00    -0.286 OA
ATOM     13 CL   UNL     1      -4.632   5.807  -1.399  0.00  0.00    -0.080 Cl
ENDROOT
BRANCH   1  14
ATOM     14  C   UNL     1       0.752   5.481  -1.418  0.00  0.00    -0.042 C 
BRANCH  14  19
ATOM     15  C   UNL     1       0.408  -0.063  -0.073  0.00  0.00    +0.007 C 
ATOM     16  C   UNL     1       0.898   1.379  -0.223  0.00  0.00    -0.018 C 
ATOM     17  C   UNL     1      -0.090   2.328   0.460  0.00  0.00    -0.016 C 
ATOM     18  C   UNL     1       0.372   3.772   0.254  0.00  0.00    -0.078 C 
ATOM     19  N   UNL     1       0.445   4.064  -1.183  0.00  0.00    +0.382 N 
ATOM     20  C   UNL     1       1.422   3.196  -1.853  0.00  0.00    -0.078 C 
ATOM     21  C   UNL     1       0.991   1.735  -1.710  0.00  0.00    -0.016 C 
ATOM     22  H   UNL     1      -0.543   3.854  -1.618  0.00  0.00    -0.081 HD
ENDBRANCH  14  19
ENDBRANCH   1  14
TORSDOF 2
