REMARK  Name = ZINC08845600
REMARK  9 active torsions:
REMARK  status: ('A' for Active; 'I' for Inactive)
REMARK    1  A    between atoms: C_1  and  C_2
REMARK    2  A    between atoms: C_4  and  O_36
REMARK    3  A    between atoms: C_5  and  C_9
REMARK    4  A    between atoms: N_17  and  C_29
REMARK    5  A    between atoms: C_18  and  C_20
REMARK    6  A    between atoms: C_23  and  O_28
REMARK    7  A    between atoms: C_24  and  O_26
REMARK    8  A    between atoms: O_26  and  C_27
REMARK    9  A    between atoms: C_29  and  C_30
REMARK                            x       y       z     vdW  Elec       q    Type
REMARK                         _______ _______ _______ _____ _____    ______ ____
ROOT
ATOM      1  C   UNL     1       0.222  -3.949   0.054  0.00  0.00    +0.102 A 
ATOM      2  C   UNL     1       0.236  -4.898   1.081  0.00  0.00    +0.035 A 
ATOM      3  C   UNL     1       0.168  -6.129   0.458  0.00  0.00    +0.126 A 
ATOM      4  N   UNL     1       0.118  -5.873  -0.883  0.00  0.00    -0.272 N 
ATOM      5  H   UNL     1       0.065  -6.548  -1.578  0.00  0.00    +0.189 HD
ATOM      6  N   UNL     1       0.145  -4.604  -1.088  0.00  0.00    -0.173 NA
ATOM      7  C   UNL     1       0.178  -7.175   1.487  0.00  0.00    +0.266 C 
ATOM      8  O   UNL     1       0.129  -8.369   1.263  0.00  0.00    -0.268 OA
ATOM      9  N   UNL     1       0.249  -6.625   2.712  0.00  0.00    -0.281 N 
ATOM     10  C   UNL     1       0.291  -5.165   2.561  0.00  0.00    +0.142 C 
ENDROOT
BRANCH   1  15
ATOM     11  C   UNL     1       0.436   1.775   0.698  0.00  0.00    +0.045 C 
ATOM     12  C   UNL     1       0.380   0.279   0.527  0.00  0.00    -0.029 A 
ATOM     13  C   UNL     1       0.169  -0.264  -0.727  0.00  0.00    +0.050 A 
ATOM     14  C   UNL     1       0.116  -1.638  -0.889  0.00  0.00    +0.126 A 
ATOM     15  C   UNL     1       0.278  -2.475   0.219  0.00  0.00    +0.045 A 
ATOM     16  C   UNL     1       0.490  -1.920   1.478  0.00  0.00    +0.034 A 
ATOM     17  C   UNL     1       0.546  -0.547   1.625  0.00  0.00    +0.045 A 
ATOM     18 CL   UNL     1       0.818   0.144   3.194  0.00  0.00    -0.083 Cl
BRANCH  14  19
ATOM     19  O   UNL     1      -0.092  -2.171  -2.122  0.00  0.00    -0.506 OA
ATOM     20  H   UNL     1       0.719  -2.343  -2.618  0.00  0.00    +0.292 HD
ENDBRANCH  14  19
ENDBRANCH   1  15
BRANCH  10  21
ATOM     21  C   UNL     1      -0.896  -4.538   3.246  0.00  0.00    -0.019 A 
ATOM     22  C   UNL     1      -0.725  -3.410   4.026  0.00  0.00    +0.009 A 
ATOM     23  C   UNL     1      -1.811  -2.832   4.657  0.00  0.00    +0.049 A 
ATOM     24  C   UNL     1      -3.074  -3.382   4.507  0.00  0.00    +0.158 A 
ATOM     25  C   UNL     1      -3.245  -4.518   3.721  0.00  0.00    +0.162 A 
ATOM     26  C   UNL     1      -2.154  -5.090   3.087  0.00  0.00    +0.055 A 
BRANCH  25  27
ATOM     27  O   UNL     1      -4.483  -5.062   3.570  0.00  0.00    -0.491 OA
ATOM     28  C   UNL     1      -4.567  -6.292   2.848  0.00  0.00    +0.277 C 
ENDBRANCH  25  27
BRANCH  24  29
ATOM     29  O   UNL     1      -4.143  -2.814   5.127  0.00  0.00    -0.503 OA
ATOM     30  H   UNL     1      -4.591  -2.139   4.599  0.00  0.00    +0.292 HD
ENDBRANCH  24  29
ENDBRANCH  10  21
BRANCH   9  31
ATOM     31  C   UNL     1       0.280  -7.358   3.981  0.00  0.00    +0.144 C 
BRANCH  31  32
ATOM     32  C   UNL     1       1.709  -7.655   4.355  0.00  0.00    -0.030 A 
ATOM     33  C   UNL     1       2.306  -8.825   3.925  0.00  0.00    +0.005 A 
ATOM     34  C   UNL     1       3.617  -9.099   4.268  0.00  0.00    +0.000 A 
ATOM     35  C   UNL     1       4.331  -8.202   5.040  0.00  0.00    +0.000 A 
ATOM     36  C   UNL     1       3.734  -7.031   5.470  0.00  0.00    +0.000 A 
ATOM     37  C   UNL     1       2.424  -6.756   5.123  0.00  0.00    +0.005 A 
ENDBRANCH  31  32
ENDBRANCH   9  31
TORSDOF 7
