REMARK  Name = ZINC20696676
REMARK  9 active torsions:
REMARK  status: ('A' for Active; 'I' for Inactive)
REMARK    1  A    between atoms: C_1  and  C_2
REMARK    2  A    between atoms: C_2  and  N_3
REMARK    3  A    between atoms: N_3  and  C_4
REMARK    4  A    between atoms: N_3  and  C_6
REMARK    5  A    between atoms: C_4  and  C_5
REMARK    6  A    between atoms: C_9  and  C_12
REMARK    7  A    between atoms: C_23  and  S_28
REMARK    8  A    between atoms: S_28  and  N_31
REMARK    9  A    between atoms: N_31  and  C_32
REMARK                            x       y       z     vdW  Elec       q    Type
REMARK                         _______ _______ _______ _____ _____    ______ ____
ROOT
ATOM      1  C   UNL     1       0.394  -5.794  -1.617  0.00  0.00    +0.105 C 
ATOM      2  C   UNL     1       1.357  -6.390  -2.628  0.00  0.00    +0.029 C 
ATOM      3  C   UNL     1       2.833  -5.983  -2.514  0.00  0.00    +0.033 C 
ATOM      4  C   UNL     1       3.296  -6.094  -3.968  0.00  0.00    -0.030 C 
ATOM      5  C   UNL     1       2.264  -5.929  -4.787  0.00  0.00    -0.023 C 
ATOM      6  C   UNL     1       1.029  -5.687  -3.979  0.00  0.00    +0.049 C 
ATOM      7  C   UNL     1      -0.314  -6.133  -4.408  0.00  0.00    -0.018 A 
ATOM      8  C   UNL     1      -0.644  -6.321  -5.732  0.00  0.00    +0.034 A 
ATOM      9  C   UNL     1      -1.918  -6.726  -6.084  0.00  0.00    +0.109 A 
ATOM     10  C   UNL     1      -2.869  -6.944  -5.103  0.00  0.00    +0.030 A 
ATOM     11  C   UNL     1      -2.547  -6.764  -3.773  0.00  0.00    +0.025 A 
ATOM     12  C   UNL     1      -1.267  -6.363  -3.409  0.00  0.00    +0.031 A 
ATOM     13  N   UNL     1      -0.955  -6.221  -2.049  0.00  0.00    -0.336 N 
ATOM     14  H   UNL     1      -1.632  -6.407  -1.380  0.00  0.00    +0.147 HD
ENDROOT
BRANCH   1  18
ATOM     15  C   UNL     1       0.671  -1.532  -1.645  0.00  0.00    +0.013 A 
ATOM     16  C   UNL     1      -0.219  -2.172  -2.488  0.00  0.00    +0.022 A 
ATOM     17  C   UNL     1      -0.308  -3.552  -2.479  0.00  0.00    +0.007 A 
ATOM     18  C   UNL     1       0.492  -4.291  -1.628  0.00  0.00    -0.027 A 
ATOM     19  C   UNL     1       1.383  -3.650  -0.786  0.00  0.00    +0.007 A 
ATOM     20  C   UNL     1       1.475  -2.271  -0.798  0.00  0.00    +0.022 A 
BRANCH  15  21
ATOM     21  N   UNL     1       0.761  -0.137  -1.655  0.00  0.00    -0.394 NA
ATOM     22  H   UNL     1       1.457   0.160  -0.987  0.00  0.00    +0.126 HD
BRANCH  21  24
ATOM     23  C   UNL     1       1.364   1.834  -2.977  0.00  0.00    +0.022 C 
ATOM     24  C   UNL     1       1.144   0.321  -2.997  0.00  0.00    +0.081 C 
ENDBRANCH  21  24
BRANCH  21  25
ATOM     25  C   UNL     1      -0.540   0.441  -1.293  0.00  0.00    +0.081 C 
ATOM     26  C   UNL     1      -0.881   0.067   0.151  0.00  0.00    +0.022 C 
ENDBRANCH  21  25
ENDBRANCH  15  21
ENDBRANCH   1  18
BRANCH   9  27
ATOM     27  S   UNL     1      -2.331  -6.965  -7.780  0.00  0.00    +0.072 S 
ATOM     28  O   UNL     1      -3.721  -6.697  -7.901  0.00  0.00    -0.150 OA
ATOM     29  O   UNL     1      -1.351  -6.269  -8.538  0.00  0.00    -0.150 OA
BRANCH  27  30
ATOM     30  N   UNL     1      -2.129  -8.575  -8.111  0.00  0.00    -0.216 N 
ATOM     31  H   UNL     1      -2.886  -9.110  -8.396  0.00  0.00    +0.174 HD
BRANCH  30  32
ATOM     32  C   UNL     1      -0.869  -9.163  -7.979  0.00  0.00    +0.048 A 
ATOM     33  C   UNL     1       0.252  -8.529  -8.500  0.00  0.00    +0.024 A 
ATOM     34  C   UNL     1       1.497  -9.113  -8.368  0.00  0.00    +0.002 A 
ATOM     35  C   UNL     1       1.628 -10.326  -7.719  0.00  0.00    +0.000 A 
ATOM     36  C   UNL     1       0.514 -10.960  -7.199  0.00  0.00    +0.002 A 
ATOM     37  C   UNL     1      -0.733 -10.379  -7.323  0.00  0.00    +0.024 A 
ENDBRANCH  30  32
ENDBRANCH  27  30
ENDBRANCH   9  27
TORSDOF 7
