REMARK  Name = ZINC16952616
REMARK  8 active torsions:
REMARK  status: ('A' for Active; 'I' for Inactive)
REMARK    1  A    between atoms: C_1  and  N_54
REMARK    2  A    between atoms: C_3  and  C_27
REMARK    3  A    between atoms: C_4  and  C_21
REMARK    4  A    between atoms: C_7  and  C_15
REMARK    5  A    between atoms: C_9  and  C_13
REMARK    6  A    between atoms: C_11  and  O_12
REMARK    7  A    between atoms: C_13  and  O_14
REMARK    8  A    between atoms: C_27  and  O_28
REMARK                            x       y       z     vdW  Elec       q    Type
REMARK                         _______ _______ _______ _____ _____    ______ ____
ROOT
ATOM      1  C   UNL     1      -0.623   5.474  -2.306  0.00  0.00    -0.096 C 
ATOM      2  C   UNL     1       0.368   3.545  -1.230  0.00  0.00    -0.065 C 
ATOM      3  C   UNL     1       1.145   3.085   0.008  0.00  0.00    +0.036 C 
ATOM      4  C   UNL     1       0.393   3.532   1.266  0.00  0.00    +0.158 C 
ATOM      5  O   UNL     1       0.301   4.994   1.270  0.00  0.00    -0.363 OA
ATOM      6  C   UNL     1       1.565   5.661   1.264  0.00  0.00    +0.158 C 
ATOM      7  C   UNL     1       2.344   5.262   0.005  0.00  0.00    +0.036 C 
ATOM      8  C   UNL     1       1.537   5.671  -1.231  0.00  0.00    -0.065 C 
ATOM      9  C   UNL     1       2.533   3.740  -0.009  0.00  0.00    +0.133 C 
ATOM     10  N   UNL     1       0.212   5.016  -1.177  0.00  0.00    +0.379 N 
ATOM     11  H   UNL     1      -0.249   5.270  -0.296  0.00  0.00    -0.082 HD
ENDROOT
BRANCH   6  12
ATOM     12  C   UNL     1       1.347   7.152   1.269  0.00  0.00    -0.018 A 
ATOM     13  C   UNL     1       0.274   7.696   0.588  0.00  0.00    +0.006 A 
ATOM     14  C   UNL     1       0.071   9.063   0.596  0.00  0.00    +0.000 A 
ATOM     15  C   UNL     1       0.946   9.887   1.278  0.00  0.00    +0.000 A 
ATOM     16  C   UNL     1       2.022   9.344   1.955  0.00  0.00    +0.000 A 
ATOM     17  C   UNL     1       2.222   7.976   1.950  0.00  0.00    +0.006 A 
ENDBRANCH   6  12
BRANCH   4  18
ATOM     18  C   UNL     1      -0.989   2.932   1.265  0.00  0.00    -0.018 A 
ATOM     19  C   UNL     1      -1.993   3.507   0.509  0.00  0.00    +0.006 A 
ATOM     20  C   UNL     1      -3.260   2.953   0.504  0.00  0.00    +0.000 A 
ATOM     21  C   UNL     1      -3.525   1.830   1.265  0.00  0.00    +0.000 A 
ATOM     22  C   UNL     1      -2.523   1.257   2.025  0.00  0.00    +0.000 A 
ATOM     23  C   UNL     1      -1.255   1.808   2.025  0.00  0.00    +0.006 A 
ENDBRANCH   4  18
BRANCH   9  24
ATOM     24  O   UNL     1       3.229   3.363  -1.199  0.00  0.00    -0.390 OA
ATOM     25  H   UNL     1       4.115   3.743  -1.273  0.00  0.00    +0.210 HD
ENDBRANCH   9  24
BRANCH   7  26
ATOM     26  C   UNL     1       3.706   5.958  -0.007  0.00  0.00    +0.166 C 
BRANCH  26  27
ATOM     27  O   UNL     1       3.518   7.374   0.000  0.00  0.00    -0.394 OA
ATOM     28  H   UNL     1       4.343   7.880  -0.007  0.00  0.00    +0.209 HD
ENDBRANCH  26  27
ENDBRANCH   7  26
BRANCH   3  29
ATOM     29  C   UNL     1       1.286   1.562  -0.002  0.00  0.00    +0.166 C 
BRANCH  29  30
ATOM     30  O   UNL     1      -0.011   0.963   0.007  0.00  0.00    -0.394 OA
ATOM     31  H   UNL     1       0.002  -0.004   0.002  0.00  0.00    +0.209 HD
ENDBRANCH  29  30
ENDBRANCH   3  29
TORSDOF 7
