REMARK  Name = ZINC35518021
REMARK  5 active torsions:
REMARK  status: ('A' for Active; 'I' for Inactive)
REMARK    1  A    between atoms: C_1  and  N_2
REMARK    2  A    between atoms: N_2  and  C_3
REMARK    3  A    between atoms: C_3  and  C_4
REMARK    4  A    between atoms: C_7  and  C_19
REMARK    5  A    between atoms: C_10  and  C_12
REMARK                            x       y       z     vdW  Elec       q    Type
REMARK                         _______ _______ _______ _____ _____    ______ ____
ROOT
ATOM      1  C   UNL     1       0.733  -1.998   1.184  0.00  0.00    +0.218 C 
ATOM      2  O   UNL     1       0.207  -2.606   0.276  0.00  0.00    -0.276 OA
ATOM      3  N   UNL     1       1.335  -2.669   2.185  0.00  0.00    -0.187 N 
ATOM      4  C   UNL     1       1.433  -4.133   2.297  0.00  0.00    +0.137 C 
ATOM      5  C   UNL     1       2.210  -4.344   3.612  0.00  0.00    +0.087 C 
ATOM      6  C   UNL     1       2.472  -2.940   4.109  0.00  0.00    +0.070 C 
ATOM      7  N   UNL     1       1.973  -2.090   3.281  0.00  0.00    -0.181 NA
ENDROOT
BRANCH   4   8
ATOM      8  C   UNL     1       0.061  -4.751   2.383  0.00  0.00    -0.021 A 
ATOM      9  C   UNL     1      -0.935  -4.121   3.106  0.00  0.00    +0.009 A 
ATOM     10  C   UNL     1      -2.195  -4.683   3.187  0.00  0.00    +0.050 A 
ATOM     11  C   UNL     1      -2.463  -5.881   2.545  0.00  0.00    +0.166 A 
ATOM     12  C   UNL     1      -1.459  -6.516   1.817  0.00  0.00    +0.167 A 
ATOM     13  C   UNL     1      -0.200  -5.943   1.735  0.00  0.00    +0.055 A 
ATOM     14  O   UNL     1      -1.967  -7.666   1.285  0.00  0.00    -0.453 OA
ATOM     15  C   UNL     1      -3.169  -7.936   2.029  0.00  0.00    +0.466 C 
ATOM     16  O   UNL     1      -3.599  -6.634   2.469  0.00  0.00    -0.453 OA
ENDBRANCH   4   8
BRANCH   6  17
ATOM     17  C   UNL     1       3.193  -2.598   5.349  0.00  0.00    +0.016 A 
ATOM     18  C   UNL     1       3.702  -3.609   6.168  0.00  0.00    +0.011 A 
ATOM     19  C   UNL     1       4.375  -3.282   7.326  0.00  0.00    +0.001 A 
ATOM     20  C   UNL     1       4.547  -1.955   7.679  0.00  0.00    +0.001 A 
ATOM     21  C   UNL     1       4.046  -0.947   6.875  0.00  0.00    +0.020 A 
ATOM     22  C   UNL     1       3.375  -1.260   5.709  0.00  0.00    +0.050 A 
ATOM     23 CL   UNL     1       2.753   0.006   4.697  0.00  0.00    -0.083 Cl
ENDBRANCH   6  17
BRANCH   1  24
ATOM     24  C   UNL     1       0.713  -0.491   1.192  0.00  0.00    +0.016 C 
BRANCH  24  26
ATOM     25  C   UNL     1      -0.018   1.465   0.010  0.00  0.00    -0.100 C 
ATOM     26  N   UNL     1       0.002  -0.004   0.002  0.00  0.00    +0.383 N 
ATOM     27  H   UNL     1      -0.945  -0.353   0.009  0.00  0.00    -0.086 HD
ATOM     28  H   UNL     1       0.474  -0.330  -0.828  0.00  0.00    -0.086 HD
ENDBRANCH  24  26
ENDBRANCH   1  24
TORSDOF 4
