REMARK  Name = ZINC40999170
REMARK  3 active torsions:
REMARK  status: ('A' for Active; 'I' for Inactive)
REMARK    1  A    between atoms: C_2  and  N_10
REMARK    2  A    between atoms: N_10  and  C_11
REMARK    3  A    between atoms: C_16  and  N_17
REMARK                            x       y       z     vdW  Elec       q    Type
REMARK                         _______ _______ _______ _____ _____    ______ ____
ROOT
ATOM      1  N   UNL     1       1.162   3.484   0.009  0.00  0.00    -0.310 N 
ATOM      2  H   UNL     1       1.999   3.965  -0.087  0.00  0.00    +0.152 HD
ENDROOT
BRANCH   1   4
ATOM      3  C   UNL     1       0.276   1.545   1.141  0.00  0.00    +0.046 A 
ATOM      4  C   UNL     1       1.171   2.106   0.238  0.00  0.00    +0.051 A 
ATOM      5  C   UNL     1       2.074   1.294  -0.437  0.00  0.00    +0.064 A 
ATOM      6  C   UNL     1       2.080  -0.069  -0.209  0.00  0.00    +0.043 A 
ATOM      7  C   UNL     1       1.188  -0.626   0.691  0.00  0.00    +0.061 A 
ATOM      8  C   UNL     1       0.287   0.181   1.365  0.00  0.00    +0.061 A 
ATOM      9 CL   UNL     1      -0.831  -0.521   2.492  0.00  0.00    -0.082 Cl
ATOM     10 CL   UNL     1       1.198  -2.338   0.974  0.00  0.00    -0.082 Cl
ATOM     11 CL   UNL     1       3.194   1.990  -1.566  0.00  0.00    -0.082 Cl
ENDBRANCH   1   4
BRANCH   1  12
ATOM     12  C   UNL     1      -0.066   4.177  -0.082  0.00  0.00    +0.088 A 
ATOM     13  C   UNL     1      -1.341   3.600  -0.087  0.00  0.00    +0.128 A 
ATOM     14  N   UNL     1      -2.229   4.557  -0.185  0.00  0.00    -0.304 N 
ATOM     15  H   UNL     1      -1.968   6.658  -0.323  0.00  0.00    +0.188 HD
ATOM     16  N   UNL     1      -1.556   5.783  -0.247  0.00  0.00    -0.286 N 
ATOM     17  C   UNL     1      -0.221   5.530  -0.177  0.00  0.00    +0.131 A 
ATOM     18  H   UNL     1      -3.191   4.437  -0.210  0.00  0.00    +0.186 HD
BRANCH  17  19
ATOM     19  N   UNL     1       0.803   6.479  -0.200  0.00  0.00    -0.342 N 
ATOM     20  H   UNL     1       1.729   6.195  -0.147  0.00  0.00    +0.144 HD
ATOM     21  H   UNL     1       0.588   7.423  -0.270  0.00  0.00    +0.144 HD
ENDBRANCH  17  19
ENDBRANCH   1  12
TORSDOF 3
