REMARK  Name = ZINC04473511
REMARK  7 active torsions:
REMARK  status: ('A' for Active; 'I' for Inactive)
REMARK    1  A    between atoms: C_1  and  C_2
REMARK    2  A    between atoms: C_9  and  N_30
REMARK    3  A    between atoms: C_10  and  C_28
REMARK    4  A    between atoms: C_11  and  C_13
REMARK    5  A    between atoms: C_18  and  O_19
REMARK    6  A    between atoms: O_19  and  C_20
REMARK    7  A    between atoms: C_20  and  C_21
REMARK                            x       y       z     vdW  Elec       q    Type
REMARK                         _______ _______ _______ _____ _____    ______ ____
ROOT
ATOM      1  C   UNL     1      -0.018   1.503   0.010  0.00  0.00    +0.065 C 
ATOM      2  C   UNL     1       0.002  -0.004   0.002  0.00  0.00    +0.041 A 
ATOM      3  C   UNL     1       0.008  -0.790  -1.085  0.00  0.00    +0.049 A 
ATOM      4  C   UNL     1       0.027  -2.135  -0.654  0.00  0.00    +0.245 A 
ATOM      5  N   UNL     1       0.034  -2.141   0.647  0.00  0.00    -0.135 NA
ATOM      6  N   UNL     1       0.024  -0.809   1.090  0.00  0.00    -0.278 N 
ATOM      7  H   UNL     1       0.029  -0.516   2.015  0.00  0.00    +0.189 HD
ATOM      8  O   UNL     1       0.034  -3.173  -1.533  0.00  0.00    -0.421 OA
ATOM      9  C   UNL     1      -0.251  -2.898  -2.821  0.00  0.00    +0.201 C 
ATOM     10  C   UNL     1      -0.287  -1.657  -3.349  0.00  0.00    +0.098 C 
ATOM     11  C   UNL     1      -0.003  -0.413  -2.545  0.00  0.00    +0.105 C 
ENDROOT
BRANCH  11  12
ATOM     12  C   UNL     1       1.340   0.149  -2.935  0.00  0.00    +0.007 A 
ATOM     13  C   UNL     1       2.477  -0.626  -2.808  0.00  0.00    +0.008 A 
ATOM     14  C   UNL     1       3.709  -0.111  -3.165  0.00  0.00    +0.001 A 
ATOM     15  C   UNL     1       3.807   1.180  -3.651  0.00  0.00    +0.004 A 
ATOM     16  C   UNL     1       2.673   1.958  -3.781  0.00  0.00    +0.046 A 
ATOM     17  C   UNL     1       1.434   1.442  -3.428  0.00  0.00    +0.125 A 
BRANCH  17  18
ATOM     18  O   UNL     1       0.317   2.204  -3.559  0.00  0.00    -0.487 OA
BRANCH  18  19
ATOM     19  C   UNL     1       0.489   3.526  -4.073  0.00  0.00    +0.264 C 
BRANCH  19  20
ATOM     20  C   UNL     1      -0.849   4.215  -4.148  0.00  0.00    -0.010 A 
ATOM     21  C   UNL     1      -1.615   4.113  -5.294  0.00  0.00    +0.008 A 
ATOM     22  C   UNL     1      -2.843   4.744  -5.363  0.00  0.00    +0.020 A 
ATOM     23  C   UNL     1      -3.305   5.478  -4.285  0.00  0.00    +0.041 A 
ATOM     24  C   UNL     1      -2.537   5.580  -3.139  0.00  0.00    +0.020 A 
ATOM     25  C   UNL     1      -1.312   4.944  -3.068  0.00  0.00    +0.008 A 
ATOM     26 CL   UNL     1      -4.846   6.272  -4.372  0.00  0.00    -0.084 Cl
ENDBRANCH  19  20
ENDBRANCH  18  19
ENDBRANCH  17  18
ENDBRANCH  11  12
BRANCH   9  27
ATOM     27  N   UNL     1      -0.523  -3.954  -3.655  0.00  0.00    -0.328 N 
ATOM     28  H   UNL     1      -0.506  -4.861  -3.310  0.00  0.00    +0.145 HD
ATOM     29  H   UNL     1      -0.732  -3.794  -4.588  0.00  0.00    +0.145 HD
ENDBRANCH   9  27
BRANCH  10  30
ATOM     30  C   UNL     1      -0.609  -1.514  -4.737  0.00  0.00    +0.101 C 
ATOM     31  N   UNL     1      -0.864  -1.400  -5.838  0.00  0.00    -0.191 NA
ENDBRANCH  10  30
TORSDOF 6
