REMARK  Name = ZINC51053832
REMARK  11 active torsions:
REMARK  status: ('A' for Active; 'I' for Inactive)
REMARK    1  A    between atoms: C_1  and  C_2
REMARK    2  A    between atoms: C_2  and  C_3
REMARK    3  A    between atoms: C_3  and  C_4
REMARK    4  A    between atoms: C_4  and  C_6
REMARK    5  A    between atoms: C_4  and  N_7
REMARK    6  A    between atoms: C_8  and  C_10
REMARK    7  A    between atoms: N_15  and  C_17
REMARK    8  A    between atoms: C_17  and  C_19
REMARK    9  A    between atoms: C_17  and  C_20
REMARK   10  A    between atoms: N_22  and  C_23
REMARK   11  A    between atoms: C_24  and  C_28
REMARK                            x       y       z     vdW  Elec       q    Type
REMARK                         _______ _______ _______ _____ _____    ______ ____
ROOT
ATOM      1  C   UNL     1      -2.705  -4.044  -0.534  0.00  0.00    +0.058 C 
ATOM      2  C   UNL     1      -3.568  -3.715  -1.756  0.00  0.00    +0.009 C 
ATOM      3  C   UNL     1      -4.941  -4.372  -1.590  0.00  0.00    -0.018 C 
ATOM      4  C   UNL     1      -4.760  -5.879  -1.398  0.00  0.00    -0.078 C 
ATOM      5  N   UNL     1      -3.948  -6.129  -0.201  0.00  0.00    +0.388 N 
ATOM      6  C   UNL     1      -2.606  -5.563  -0.380  0.00  0.00    -0.065 C 
ATOM      7  H   UNL     1      -4.389  -5.699   0.599  0.00  0.00    -0.081 HD
ENDROOT
BRANCH   1   9
ATOM      8  N   UNL     1      -1.168  -2.137  -0.881  0.00  0.00    -0.313 N 
ATOM      9  C   UNL     1      -1.326  -3.466  -0.722  0.00  0.00    +0.215 C 
ATOM     10  O   UNL     1      -0.358  -4.197  -0.730  0.00  0.00    -0.276 OA
ATOM     11  H   UNL     1      -1.942  -1.552  -0.875  0.00  0.00    +0.149 HD
BRANCH   8  12
ATOM     12  C   UNL     1       0.172  -1.575  -1.064  0.00  0.00    +0.070 C 
ATOM     13  C   UNL     1       0.818  -1.340   0.303  0.00  0.00    +0.028 C 
BRANCH  12  14
ATOM     14  C   UNL     1       0.071  -0.246  -1.815  0.00  0.00    +0.022 C 
BRANCH  14  16
ATOM     15  C   UNL     1      -0.560   0.831  -3.979  0.00  0.00    +0.004 C 
ATOM     16  C   UNL     1      -0.459  -0.498  -3.228  0.00  0.00    -0.002 C 
ENDBRANCH  14  16
ENDBRANCH  12  14
ENDBRANCH   8  12
ENDBRANCH   1   9
BRANCH   5  17
ATOM     17  C   UNL     1      -3.842  -7.577   0.024  0.00  0.00    +0.016 C 
ATOM     18  C   UNL     1      -2.950  -7.841   1.238  0.00  0.00    -0.004 C 
BRANCH  17  19
ATOM     19  C   UNL     1      -5.213  -8.149   0.273  0.00  0.00    +0.204 C 
ATOM     20  O   UNL     1      -6.085  -7.450   0.746  0.00  0.00    -0.277 OA
ATOM     21  N   UNL     1      -5.472  -9.437  -0.029  0.00  0.00    -0.281 N 
ATOM     22  H   UNL     1      -4.775  -9.995  -0.407  0.00  0.00    +0.155 HD
BRANCH  21  23
ATOM     23  C   UNL     1      -6.734  -9.963   0.201  0.00  0.00    +0.084 A 
ATOM     24  C   UNL     1      -7.176 -11.255  -0.040  0.00  0.00    +0.065 A 
ATOM     25  C   UNL     1      -8.553 -11.541   0.295  0.00  0.00    +0.022 A 
ATOM     26  C   UNL     1      -9.257 -10.514   0.806  0.00  0.00    +0.048 A 
ATOM     27  S   UNL     1      -8.075  -9.184   0.842  0.00  0.00    -0.081 S 
BRANCH  24  28
ATOM     28  C   UNL     1      -6.292 -12.279  -0.606  0.00  0.00    +0.244 C 
ATOM     29  O   UNL     1      -5.138 -12.005  -0.877  0.00  0.00    -0.270 OA
ATOM     30  N   UNL     1      -6.758 -13.525  -0.826  0.00  0.00    -0.325 N 
ATOM     31  H   UNL     1      -7.678 -13.744  -0.610  0.00  0.00    +0.145 HD
ATOM     32  H   UNL     1      -6.173 -14.202  -1.200  0.00  0.00    +0.145 HD
ENDBRANCH  24  28
ENDBRANCH  21  23
ENDBRANCH  17  19
ENDBRANCH   5  17
TORSDOF 8
