REMARK  Name = ZINC04279678
REMARK  7 active torsions:
REMARK  status: ('A' for Active; 'I' for Inactive)
REMARK    1  A    between atoms: C_1  and  C_2
REMARK    2  A    between atoms: C_2  and  C_3
REMARK    3  A    between atoms: C_2  and  C_4
REMARK    4  A    between atoms: C_2  and  C_5
REMARK    5  A    between atoms: N_8  and  N_22
REMARK    6  A    between atoms: N_12  and  N_13
REMARK    7  A    between atoms: C_14  and  C_15
REMARK                            x       y       z     vdW  Elec       q    Type
REMARK                         _______ _______ _______ _____ _____    ______ ____
ROOT
ATOM      1  C   UNL     1       0.716  -0.417  -1.266  0.00  0.00    +0.106 A 
ATOM      2  C   UNL     1       0.826  -1.815  -1.433  0.00  0.00    +0.292 A 
ATOM      3  O   UNL     1       0.362  -2.583  -0.607  0.00  0.00    -0.264 OA
ATOM      4  N   UNL     1       1.460  -2.279  -2.534  0.00  0.00    -0.198 N 
ATOM      5  C   UNL     1       1.960  -1.377  -3.426  0.00  0.00    +0.253 A 
ATOM      6  N   UNL     1       1.824  -0.080  -3.213  0.00  0.00    -0.136 NA
ATOM      7  N   UNL     1       1.221   0.382  -2.177  0.00  0.00    -0.273 N 
ATOM      8  N   UNL     1       2.607  -1.818  -4.549  0.00  0.00    -0.204 N 
ATOM      9  H   UNL     1       2.643  -2.767  -4.747  0.00  0.00    +0.177 HD
ATOM     10  H   UNL     1       1.141   1.342  -2.063  0.00  0.00    +0.189 HD
ENDROOT
BRANCH   1  12
ATOM     11  C   UNL     1       0.037   1.680  -0.131  0.00  0.00    +0.017 C 
ATOM     12  C   UNL     1       0.019   0.152  -0.057  0.00  0.00    +0.009 C 
ATOM     13  C   UNL     1       0.743  -0.306   1.211  0.00  0.00    +0.017 C 
ATOM     14  C   UNL     1      -1.429  -0.341  -0.024  0.00  0.00    +0.017 C 
ENDBRANCH   1  12
BRANCH   4  15
ATOM     15  N   UNL     1       1.597  -3.621  -2.748  0.00  0.00    -0.293 N 
ATOM     16  H   UNL     1       2.015  -3.803  -3.648  0.00  0.00    +0.163 HD
ATOM     17  H   UNL     1       2.131  -4.052  -2.008  0.00  0.00    +0.163 HD
ENDBRANCH   4  15
BRANCH   8  18
ATOM     18  N   UNL     1       3.215  -0.899  -5.413  0.00  0.00    -0.188 NA
ATOM     19  C   UNL     1       3.829  -1.317  -6.478  0.00  0.00    +0.138 C 
BRANCH  19  20
ATOM     20  C   UNL     1       4.470  -0.349  -7.388  0.00  0.00    -0.005 A 
ATOM     21  C   UNL     1       4.423   1.018  -7.104  0.00  0.00    +0.010 A 
ATOM     22  C   UNL     1       5.025   1.917  -7.958  0.00  0.00    +0.016 A 
ATOM     23  C   UNL     1       5.673   1.468  -9.097  0.00  0.00    +0.018 A 
ATOM     24  C   UNL     1       5.722   0.115  -9.384  0.00  0.00    +0.016 A 
ATOM     25  C   UNL     1       5.130  -0.796  -8.535  0.00  0.00    +0.010 A 
ATOM     26 BR   UNL     1       6.494   2.709 -10.264  0.00  0.00    -0.050 Br
ENDBRANCH  19  20
ENDBRANCH   8  18
TORSDOF 4
