REMARK  Name = ZINC12902067
REMARK  5 active torsions:
REMARK  status: ('A' for Active; 'I' for Inactive)
REMARK    1  A    between atoms: C_1  and  C_2
REMARK    2  A    between atoms: C_13  and  C_15
REMARK    3  A    between atoms: C_15  and  C_16
REMARK    4  A    between atoms: C_23  and  O_26
REMARK    5  A    between atoms: N_29  and  C_32
REMARK                            x       y       z     vdW  Elec       q    Type
REMARK                         _______ _______ _______ _____ _____    ______ ____
ROOT
ATOM      1  C   UNL     1       6.576   0.546  -0.715  0.00  0.00    +0.044 C 
ATOM      2  C   UNL     1       5.255   0.564  -1.440  0.00  0.00    -0.050 A 
ATOM      3  C   UNL     1       5.029  -0.307  -2.490  0.00  0.00    +0.005 A 
ATOM      4  C   UNL     1       3.821  -0.296  -3.157  0.00  0.00    +0.024 A 
ATOM      5  C   UNL     1       2.819   0.594  -2.776  0.00  0.00    +0.036 A 
ATOM      6  C   UNL     1       3.058   1.465  -1.718  0.00  0.00    -0.027 A 
ATOM      7  C   UNL     1       4.264   1.450  -1.055  0.00  0.00    +0.008 A 
ATOM      8  C   UNL     1       1.802   2.276  -1.563  0.00  0.00    +0.050 C 
ATOM      9  C   UNL     1       1.199   2.116  -0.162  0.00  0.00    +0.088 C 
ATOM     10  C   UNL     1       0.614   3.516   0.175  0.00  0.00    +0.074 C 
ATOM     11  C   UNL     1       0.905   4.377  -1.073  0.00  0.00    -0.053 C 
ATOM     12  C   UNL     1      -0.873   3.259   0.263  0.00  0.00    +0.228 C 
ATOM     13  O   UNL     1      -1.715   4.095   0.513  0.00  0.00    -0.275 OA
ATOM     14  N   UNL     1      -1.117   1.966   0.018  0.00  0.00    -0.210 N 
ATOM     15  C   UNL     1      -0.025   1.233  -0.229  0.00  0.00    +0.229 C 
ATOM     16  O   UNL     1      -0.020   0.045  -0.473  0.00  0.00    -0.275 OA
ATOM     17  C   UNL     1       0.871   1.762  -2.626  0.00  0.00    +0.211 C 
ATOM     18  O   UNL     1      -0.258   2.146  -2.847  0.00  0.00    -0.277 OA
ATOM     19  N   UNL     1       1.534   0.792  -3.286  0.00  0.00    -0.286 N 
ATOM     20  H   UNL     1       1.162   0.291  -4.028  0.00  0.00    +0.155 HD
ATOM     21  N   UNL     1       2.037   3.701  -1.712  0.00  0.00    +0.394 N 
ATOM     22  H   UNL     1       2.083   3.951  -2.707  0.00  0.00    -0.083 HD
ATOM     23  H   UNL     1       2.915   3.967  -1.251  0.00  0.00    -0.083 HD
ENDROOT
BRANCH  14  24
ATOM     24  C   UNL     1      -2.410   1.424   0.022  0.00  0.00    +0.044 A 
ATOM     25  C   UNL     1      -3.324   1.799  -0.953  0.00  0.00    +0.024 A 
ATOM     26  C   UNL     1      -4.596   1.260  -0.949  0.00  0.00    +0.002 A 
ATOM     27  C   UNL     1      -4.962   0.355   0.030  0.00  0.00    +0.000 A 
ATOM     28  C   UNL     1      -4.054  -0.017   1.006  0.00  0.00    +0.002 A 
ATOM     29  C   UNL     1      -2.780   0.515   1.004  0.00  0.00    +0.024 A 
ENDBRANCH  14  24
BRANCH  11  30
ATOM     30  C   UNL     1       1.268   5.805  -0.661  0.00  0.00    +0.022 C 
BRANCH  30  31
ATOM     31  C   UNL     1       1.428   6.658  -1.893  0.00  0.00    -0.024 A 
ATOM     32  C   UNL     1       2.577   6.935  -2.528  0.00  0.00    +0.087 A 
ATOM     33  N   UNL     1       2.332   7.737  -3.609  0.00  0.00    -0.360 N 
ATOM     34  H   UNL     1       3.006   8.068  -4.223  0.00  0.00    +0.165 HD
ATOM     35  C   UNL     1       0.983   8.011  -3.692  0.00  0.00    +0.047 A 
ATOM     36  C   UNL     1       0.359   7.346  -2.621  0.00  0.00    +0.006 A 
ATOM     37  C   UNL     1      -1.024   7.444  -2.449  0.00  0.00    +0.055 A 
ATOM     38  C   UNL     1      -1.770   8.195  -3.335  0.00  0.00    +0.118 A 
ATOM     39  C   UNL     1      -1.149   8.851  -4.395  0.00  0.00    +0.047 A 
ATOM     40  C   UNL     1       0.213   8.762  -4.574  0.00  0.00    +0.030 A 
BRANCH  38  41
ATOM     41  O   UNL     1      -3.116   8.293  -3.173  0.00  0.00    -0.507 OA
ATOM     42  H   UNL     1      -3.392   9.035  -2.617  0.00  0.00    +0.292 HD
ENDBRANCH  38  41
ENDBRANCH  30  31
ENDBRANCH  11  30
TORSDOF 4
