REMARK  Name = ZINC39686652
REMARK  11 active torsions:
REMARK  status: ('A' for Active; 'I' for Inactive)
REMARK    1  A    between atoms: C_1  and  C_2
REMARK    2  A    between atoms: C_2  and  C_4
REMARK    3  A    between atoms: C_2  and  N_13
REMARK    4  A    between atoms: C_4  and  C_5
REMARK    5  A    between atoms: C_10  and  O_11
REMARK    6  A    between atoms: O_11  and  C_12
REMARK    7  A    between atoms: C_14  and  C_16
REMARK    8  A    between atoms: C_27  and  C_29
REMARK    9  A    between atoms: C_29  and  C_30
REMARK   10  A    between atoms: C_30  and  C_31
REMARK   11  A    between atoms: C_31  and  C_32
REMARK                            x       y       z     vdW  Elec       q    Type
REMARK                         _______ _______ _______ _____ _____    ______ ____
ROOT
ATOM      1  C   UNL     1      -3.465  -1.164  -1.134  0.00  0.00    +0.100 C 
ATOM      2  C   UNL     1      -4.361  -0.271  -0.248  0.00  0.00    +0.121 C 
ATOM      3  N   UNL     1      -4.986   0.686  -1.192  0.00  0.00    -0.300 N 
ATOM      4  C   UNL     1      -5.291  -0.128  -2.393  0.00  0.00    +0.115 C 
ATOM      5  C   UNL     1      -4.080  -1.071  -2.540  0.00  0.00    -0.004 C 
ATOM      6  C   UNL     1      -4.538  -2.449  -3.009  0.00  0.00    -0.010 C 
ATOM      7  C   UNL     1      -5.093  -2.341  -4.432  0.00  0.00    -0.082 C 
ATOM      8  N   UNL     1      -4.053  -1.817  -5.326  0.00  0.00    +0.379 N 
ATOM      9  C   UNL     1      -3.685  -0.455  -4.923  0.00  0.00    -0.082 C 
ATOM     10  C   UNL     1      -3.071  -0.483  -3.521  0.00  0.00    -0.010 C 
ATOM     11  C   UNL     1      -5.223   1.999  -1.002  0.00  0.00    +0.216 C 
ATOM     12  O   UNL     1      -5.747   2.654  -1.878  0.00  0.00    -0.276 OA
ATOM     13  H   UNL     1      -3.240  -2.412  -5.278  0.00  0.00    -0.086 HD
ATOM     14  H   UNL     1      -4.401  -1.804  -6.273  0.00  0.00    -0.086 HD
ENDROOT
BRANCH   1  16
ATOM     15  N   UNL     1      -1.018  -1.497  -1.290  0.00  0.00    -0.312 N 
ATOM     16  C   UNL     1      -2.051  -0.643  -1.145  0.00  0.00    +0.218 C 
ATOM     17  O   UNL     1      -1.842   0.546  -1.023  0.00  0.00    -0.275 OA
ATOM     18  H   UNL     1      -1.185  -2.447  -1.387  0.00  0.00    +0.149 HD
BRANCH  15  20
ATOM     19  C   UNL     1       0.861  -0.855   0.138  0.00  0.00    +0.028 C 
ATOM     20  C   UNL     1       0.356  -0.990  -1.300  0.00  0.00    +0.074 C 
BRANCH  20  21
ATOM     21  C   UNL     1       1.253  -1.964  -2.066  0.00  0.00    +0.060 C 
BRANCH  21  22
ATOM     22  C   UNL     1       0.832  -2.004  -3.512  0.00  0.00    -0.004 A 
ATOM     23  C   UNL     1      -0.046  -2.977  -3.950  0.00  0.00    +0.007 A 
ATOM     24  C   UNL     1      -0.432  -3.014  -5.277  0.00  0.00    +0.000 A 
ATOM     25  C   UNL     1       0.058  -2.079  -6.169  0.00  0.00    +0.004 A 
ATOM     26  C   UNL     1       0.936  -1.104  -5.736  0.00  0.00    +0.046 A 
ATOM     27  C   UNL     1       1.321  -1.061  -4.404  0.00  0.00    +0.123 A 
BRANCH  27  28
ATOM     28  O   UNL     1       2.181  -0.100  -3.974  0.00  0.00    -0.495 OA
ATOM     29  C   UNL     1       2.644   0.838  -4.948  0.00  0.00    +0.277 C 
ENDBRANCH  27  28
ENDBRANCH  21  22
ENDBRANCH  20  21
ENDBRANCH  15  20
ENDBRANCH   1  16
BRANCH  11  30
ATOM     30  C   UNL     1      -4.838   2.653   0.300  0.00  0.00    +0.096 C 
BRANCH  30  31
ATOM     31  C   UNL     1      -5.214   4.136   0.257  0.00  0.00    +0.014 C 
BRANCH  31  32
ATOM     32  C   UNL     1      -4.822   4.800   1.578  0.00  0.00    +0.035 C 
BRANCH  32  33
ATOM     33  C   UNL     1      -5.192   6.260   1.535  0.00  0.00    -0.047 A 
ATOM     34  C   UNL     1      -4.286   7.189   1.060  0.00  0.00    +0.003 A 
ATOM     35  C   UNL     1      -4.626   8.529   1.020  0.00  0.00    +0.000 A 
ATOM     36  C   UNL     1      -5.872   8.939   1.456  0.00  0.00    +0.000 A 
ATOM     37  C   UNL     1      -6.779   8.009   1.931  0.00  0.00    +0.000 A 
ATOM     38  C   UNL     1      -6.441   6.670   1.966  0.00  0.00    +0.003 A 
ENDBRANCH  32  33
ENDBRANCH  31  32
ENDBRANCH  30  31
ENDBRANCH  11  30
TORSDOF 9
