REMARK  Name = ZINC02999039
REMARK  5 active torsions:
REMARK  status: ('A' for Active; 'I' for Inactive)
REMARK    1  A    between atoms: C_1  and  C_2
REMARK    2  A    between atoms: C_2  and  C_27
REMARK    3  A    between atoms: C_15  and  N_16
REMARK    4  A    between atoms: N_16  and  C_17
REMARK    5  A    between atoms: C_21  and  O_23
REMARK                            x       y       z     vdW  Elec       q    Type
REMARK                         _______ _______ _______ _____ _____    ______ ____
ROOT
ATOM      1  C   UNL     1       7.212   3.094   6.842  0.00  0.00    +0.061 C 
ATOM      2  C   UNL     1       6.762   4.345   6.084  0.00  0.00    +0.134 C 
ATOM      3  C   UNL     1       7.564   4.467   4.816  0.00  0.00    +0.007 A 
ATOM      4  C   UNL     1       8.855   4.977   4.876  0.00  0.00    +0.009 A 
ATOM      5  C   UNL     1       9.623   5.074   3.739  0.00  0.00    +0.012 A 
ATOM      6  C   UNL     1       9.110   4.657   2.505  0.00  0.00    +0.018 A 
ATOM      7  C   UNL     1       9.916   4.745   1.284  0.00  0.00    +0.018 A 
ATOM      8  C   UNL     1       9.351   4.324   0.123  0.00  0.00    +0.092 A 
ATOM      9  C   UNL     1       8.031   3.827   0.132  0.00  0.00    +0.337 A 
ATOM     10  O   UNL     1       7.541   3.455  -0.919  0.00  0.00    -0.245 OA
ATOM     11  O   UNL     1       7.296   3.747   1.244  0.00  0.00    -0.422 OA
ATOM     12  C   UNL     1       7.805   4.146   2.426  0.00  0.00    +0.147 A 
ATOM     13  C   UNL     1       7.040   4.064   3.594  0.00  0.00    +0.040 A 
ATOM     14  C   UNL     1       5.645   3.541   3.544  0.00  0.00    +0.084 C 
ATOM     15  C   UNL     1       5.012   3.260   2.372  0.00  0.00    +0.087 C 
ATOM     16  C   UNL     1       4.995   3.354   4.861  0.00  0.00    +0.342 C 
ATOM     17  O   UNL     1       4.193   2.465   5.076  0.00  0.00    -0.245 OA
ATOM     18  O   UNL     1       5.364   4.248   5.815  0.00  0.00    -0.450 OA
ATOM     19  C   UNL     1       7.017   5.575   6.957  0.00  0.00    +0.061 C 
ENDROOT
BRANCH  15  20
ATOM     20  N   UNL     1       3.784   2.666   2.385  0.00  0.00    -0.320 N 
ATOM     21  H   UNL     1       3.305   2.413   3.342  0.00  0.00    +0.152 HD
BRANCH  20  22
ATOM     22  C   UNL     1       3.134   2.377   1.181  0.00  0.00    +0.034 A 
ATOM     23  C   UNL     1       3.738   2.696  -0.029  0.00  0.00    +0.023 A 
ATOM     24  C   UNL     1       3.096   2.410  -1.218  0.00  0.00    +0.005 A 
ATOM     25  C   UNL     1       1.852   1.808  -1.208  0.00  0.00    +0.045 A 
ATOM     26  C   UNL     1       1.244   1.489  -0.002  0.00  0.00    +0.119 A 
ATOM     27  C   UNL     1       1.882   1.778   1.194  0.00  0.00    +0.068 A 
BRANCH  26  28
ATOM     28  O   UNL     1       0.020   0.897   0.006  0.00  0.00    -0.507 OA
ATOM     29  H   UNL     1      -0.462   0.644   0.962  0.00  0.00    +0.292 HD
ENDBRANCH  26  28
ENDBRANCH  20  22
ENDBRANCH  15  20
TORSDOF 3
