REMARK  Name = ZINC44784420
REMARK  6 active torsions:
REMARK  status: ('A' for Active; 'I' for Inactive)
REMARK    1  A    between atoms: C_3  and  C_6
REMARK    2  A    between atoms: C_6  and  C_7
REMARK    3  A    between atoms: C_7  and  N_8
REMARK    4  A    between atoms: C_9  and  C_11
REMARK    5  A    between atoms: C_11  and  C_18
REMARK    6  A    between atoms: N_19  and  O_20
REMARK                            x       y       z     vdW  Elec       q    Type
REMARK                         _______ _______ _______ _____ _____    ______ ____
ROOT
ATOM      1  C   UNL     1       7.656   3.326   2.493  0.00  0.00    +0.105 C 
ATOM      2  C   UNL     1       8.563   2.412   1.715  0.00  0.00    +0.024 C 
ATOM      3  C   UNL     1       8.096   0.944   1.754  0.00  0.00    +0.001 C 
ATOM      4  C   UNL     1       7.609   0.510   3.150  0.00  0.00    +0.000 C 
ATOM      5  C   UNL     1       8.489   1.028   4.254  0.00  0.00    +0.000 C 
ATOM      6  C   UNL     1       7.893   2.353   4.774  0.00  0.00    +0.001 C 
ATOM      7  C   UNL     1       8.223   3.483   3.918  0.00  0.00    +0.024 C 
ENDROOT
BRANCH   1   8
ATOM      8  C   UNL     1       7.593   4.674   1.822  0.00  0.00    +0.147 C 
ATOM      9  N   UNL     1       8.682   5.323   1.572  0.00  0.00    -0.076 NA
ATOM     10  N   UNL     1       6.375   5.215   1.475  0.00  0.00    -0.343 N 
ATOM     11  H   UNL     1       5.554   4.763   1.728  0.00  0.00    +0.144 HD
ATOM     12  H   UNL     1       6.337   6.047   0.979  0.00  0.00    +0.144 HD
BRANCH   9  13
ATOM     13  O   UNL     1       9.926   4.819   2.024  0.00  0.00    -0.408 OA
ATOM     14  H   UNL     1      10.683   5.372   1.789  0.00  0.00    +0.328 HD
ENDBRANCH   9  13
ENDBRANCH   1   8
BRANCH   1  16
ATOM     15  N   UNL     1       5.449   3.054   3.576  0.00  0.00    -0.314 N 
ATOM     16  C   UNL     1       6.274   2.730   2.561  0.00  0.00    +0.226 C 
ATOM     17  O   UNL     1       5.904   1.958   1.702  0.00  0.00    -0.275 OA
ATOM     18  H   UNL     1       5.767   3.618   4.298  0.00  0.00    +0.149 HD
BRANCH  15  19
ATOM     19  C   UNL     1       4.072   2.555   3.589  0.00  0.00    +0.109 C 
BRANCH  19  20
ATOM     20  C   UNL     1       3.356   3.066   4.841  0.00  0.00    +0.061 C 
BRANCH  20  23
ATOM     21  C   UNL     1       0.099   1.139   5.282  0.00  0.00    +0.008 A 
ATOM     22  C   UNL     1       1.451   1.407   5.390  0.00  0.00    +0.011 A 
ATOM     23  C   UNL     1       1.939   2.552   4.854  0.00  0.00    -0.009 A 
ATOM     24  S   UNL     1       0.468   3.295   4.168  0.00  0.00    -0.102 S 
ATOM     25  C   UNL     1      -0.698   2.029   4.643  0.00  0.00    +0.045 A 
ENDBRANCH  20  23
ENDBRANCH  19  20
ENDBRANCH  15  19
ENDBRANCH   1  16
TORSDOF 6
