REMARK  Name = ZINC06196970
REMARK  12 active torsions:
REMARK  status: ('A' for Active; 'I' for Inactive)
REMARK    1  A    between atoms: C_1  and  C_2
REMARK    2  A    between atoms: C_2  and  O_3
REMARK    3  A    between atoms: O_3  and  C_4
REMARK    4  A    between atoms: C_11  and  C_16
REMARK    5  A    between atoms: C_16  and  C_18
REMARK    6  A    between atoms: C_16  and  N_71
REMARK    7  A    between atoms: N_22  and  C_23
REMARK    8  A    between atoms: C_23  and  C_24
REMARK    9  A    between atoms: C_32  and  C_35
REMARK   10  A    between atoms: C_35  and  O_37
REMARK   11  A    between atoms: O_37  and  C_38
REMARK   12  A    between atoms: C_38  and  C_39
REMARK                            x       y       z     vdW  Elec       q    Type
REMARK                         _______ _______ _______ _____ _____    ______ ____
ROOT
ATOM      1  C   UNL     1       2.936  -6.255  -5.079  0.00  0.00    +0.039 C 
ENDROOT
BRANCH   1   9
ATOM      2  C   UNL     1       0.777  -1.811  -1.336  0.00  0.00    +0.121 A 
ATOM      3  C   UNL     1       0.249  -2.669  -0.374  0.00  0.00    +0.047 A 
ATOM      4  C   UNL     1       0.342  -4.034  -0.525  0.00  0.00    +0.030 A 
ATOM      5  C   UNL     1       0.978  -4.569  -1.641  0.00  0.00    +0.049 A 
ATOM      6  C   UNL     1       1.518  -3.705  -2.612  0.00  0.00    +0.002 A 
ATOM      7  C   UNL     1       1.412  -2.320  -2.451  0.00  0.00    +0.055 A 
ATOM      8  C   UNL     1       2.184  -4.281  -3.782  0.00  0.00    +0.017 A 
ATOM      9  C   UNL     1       2.257  -5.631  -3.888  0.00  0.00    +0.011 A 
ATOM     10  C   UNL     1       1.699  -6.453  -2.885  0.00  0.00    +0.251 A 
ATOM     11  O   UNL     1       1.776  -7.664  -3.000  0.00  0.00    -0.268 OA
ATOM     12  N   UNL     1       1.085  -5.934  -1.808  0.00  0.00    -0.322 N 
ATOM     13  H   UNL     1       0.701  -6.547  -1.117  0.00  0.00    +0.169 HD
BRANCH   2  14
ATOM     14  O   UNL     1       0.671  -0.465  -1.174  0.00  0.00    -0.492 OA
BRANCH  14  16
ATOM     15  C   UNL     1      -0.019   1.526   0.010  0.00  0.00    +0.048 C 
ATOM     16  C   UNL     1       0.002  -0.004   0.002  0.00  0.00    +0.225 C 
ENDBRANCH  14  16
ENDBRANCH   2  14
ENDBRANCH   1   9
BRANCH   1  22
ATOM     17  C   UNL     1       4.941  -6.480  -3.741  0.00  0.00    -0.077 C 
ATOM     18  C   UNL     1       5.934  -7.492  -3.167  0.00  0.00    -0.004 C 
ATOM     19  C   UNL     1       6.677  -8.180  -4.316  0.00  0.00    +0.094 C 
ATOM     20  C   UNL     1       5.659  -8.851  -5.241  0.00  0.00    -0.004 C 
ATOM     21  C   UNL     1       4.673  -7.800  -5.756  0.00  0.00    -0.077 C 
ATOM     22  N   UNL     1       3.974  -7.193  -4.603  0.00  0.00    +0.389 N 
ATOM     23  H   UNL     1       3.526  -7.937  -4.056  0.00  0.00    -0.080 HD
BRANCH  19  24
ATOM     24  C   UNL     1       7.615  -9.220  -3.760  0.00  0.00    +0.310 C 
ATOM     25  O   UNL     1       7.484 -10.380  -4.071  0.00  0.00    -0.251 OA
BRANCH  24  26
ATOM     26  O   UNL     1       8.596  -8.858  -2.919  0.00  0.00    -0.465 OA
BRANCH  26  27
ATOM     27  C   UNL     1       9.462  -9.913  -2.423  0.00  0.00    +0.229 C 
ATOM     28  C   UNL     1      10.511  -9.312  -1.485  0.00  0.00    +0.048 C 
ENDBRANCH  26  27
ENDBRANCH  24  26
ENDBRANCH  19  24
ENDBRANCH   1  22
BRANCH   1  29
ATOM     29  C   UNL     1       1.923  -7.021  -5.891  0.00  0.00    +0.143 A 
ATOM     30  N   UNL     1       1.399  -8.185  -5.591  0.00  0.00    -0.115 NA
ATOM     31  N   UNL     1       0.576  -8.504  -6.530  0.00  0.00    -0.023 NA
ATOM     32  N   UNL     1       0.567  -7.578  -7.424  0.00  0.00    -0.044 NA
ATOM     33  N   UNL     1       1.384  -6.646  -7.066  0.00  0.00    -0.228 N 
BRANCH  33  34
ATOM     34  C   UNL     1       1.673  -5.412  -7.800  0.00  0.00    +0.178 C 
BRANCH  34  35
ATOM     35  C   UNL     1       2.842  -5.649  -8.758  0.00  0.00    +0.140 C 
ATOM     36  C   UNL     1       3.227  -4.325  -9.452  0.00  0.00    +0.035 C 
ATOM     37  C   UNL     1       3.542  -4.791 -10.900  0.00  0.00    +0.031 C 
ATOM     38  C   UNL     1       2.519  -5.943 -11.067  0.00  0.00    +0.160 C 
ATOM     39  O   UNL     1       2.453  -6.576  -9.779  0.00  0.00    -0.375 OA
ENDBRANCH  34  35
ENDBRANCH  33  34
ENDBRANCH   1  29
TORSDOF 10
