REMARK  Name = ZINC61882092
REMARK  4 active torsions:
REMARK  status: ('A' for Active; 'I' for Inactive)
REMARK    1  A    between atoms: C_4  and  S_9
REMARK    2  A    between atoms: C_6  and  N_7
REMARK    3  A    between atoms: S_9  and  N_12
REMARK    4  A    between atoms: C_17  and  C_19
REMARK                            x       y       z     vdW  Elec       q    Type
REMARK                         _______ _______ _______ _____ _____    ______ ____
ROOT
ATOM      1  S   UNL     1       4.017  -0.846  -0.052  0.00  0.00    +0.063 S 
ATOM      2  O   UNL     1       4.201   0.500   0.365  0.00  0.00    -0.153 OA
ATOM      3  O   UNL     1       2.888  -1.261  -0.809  0.00  0.00    -0.153 OA
ENDROOT
BRANCH   1   7
ATOM      4  C   UNL     1       7.678  -1.968  -2.477  0.00  0.00    +0.044 A 
ATOM      5  C   UNL     1       6.413  -2.261  -2.953  0.00  0.00    +0.045 A 
ATOM      6  C   UNL     1       5.297  -1.918  -2.211  0.00  0.00    +0.049 A 
ATOM      7  C   UNL     1       5.442  -1.281  -0.992  0.00  0.00    +0.123 A 
ATOM      8  C   UNL     1       6.703  -0.985  -0.512  0.00  0.00    +0.065 A 
ATOM      9  C   UNL     1       7.827  -1.329  -1.254  0.00  0.00    +0.042 A 
ATOM     10 BR   UNL     1       6.899  -0.112   1.155  0.00  0.00    -0.046 Br
ATOM     11 CL   UNL     1       6.226  -3.061  -4.483  0.00  0.00    -0.083 Cl
BRANCH   9  12
ATOM     12  N   UNL     1       9.103  -1.031  -0.770  0.00  0.00    -0.357 N 
ATOM     13  H   UNL     1       9.887  -1.272  -1.289  0.00  0.00    +0.142 HD
ATOM     14  H   UNL     1       9.206  -0.585   0.085  0.00  0.00    +0.142 HD
ENDBRANCH   9  12
ENDBRANCH   1   7
BRANCH   1  15
ATOM     15  N   UNL     1       4.034  -1.773   1.320  0.00  0.00    -0.165 NA
ATOM     16  C   UNL     1       4.554  -1.232   2.583  0.00  0.00    +0.110 C 
ATOM     17  C   UNL     1       5.625  -2.185   3.123  0.00  0.00    +0.017 C 
ATOM     18  C   UNL     1       5.039  -3.593   3.238  0.00  0.00    +0.003 C 
ATOM     19  C   UNL     1       4.611  -4.083   1.853  0.00  0.00    +0.030 C 
ATOM     20  C   UNL     1       3.523  -3.151   1.299  0.00  0.00    +0.165 C 
BRANCH  20  21
ATOM     21  C   UNL     1       3.189  -3.544  -0.117  0.00  0.00    +0.229 C 
ATOM     22  O   UNL     1       4.066  -3.599  -0.953  0.00  0.00    -0.274 OA
ATOM     23  N   UNL     1       1.917  -3.835  -0.454  0.00  0.00    -0.328 N 
ATOM     24  H   UNL     1       1.216  -3.792   0.215  0.00  0.00    +0.145 HD
ATOM     25  H   UNL     1       1.703  -4.089  -1.365  0.00  0.00    +0.145 HD
ENDBRANCH  20  21
ENDBRANCH   1  15
TORSDOF 4
