REMARK  Name = ZINC67465408
REMARK  6 active torsions:
REMARK  status: ('A' for Active; 'I' for Inactive)
REMARK    1  A    between atoms: C_2  and  C_9
REMARK    2  A    between atoms: N_11  and  C_12
REMARK    3  A    between atoms: C_12  and  C_13
REMARK    4  A    between atoms: N_15  and  N_16
REMARK    5  A    between atoms: N_19  and  C_20
REMARK    6  A    between atoms: C_20  and  C_21
REMARK                            x       y       z     vdW  Elec       q    Type
REMARK                         _______ _______ _______ _____ _____    ______ ____
ROOT
ATOM      1  C   UNL     1       3.733   6.233  -0.001  0.00  0.00    +0.246 C 
ATOM      2  O   UNL     1       4.662   5.454  -0.014  0.00  0.00    -0.273 OA
ATOM      3  N   UNL     1       3.967   7.561   0.004  0.00  0.00    -0.232 N 
ATOM      4  H   UNL     1       3.224   8.184   0.014  0.00  0.00    +0.173 HD
ENDROOT
BRANCH   3   5
ATOM      5  N   UNL     1       5.284   8.040  -0.006  0.00  0.00    -0.218 N 
ATOM      6  C   UNL     1       5.517   9.367  -0.002  0.00  0.00    +0.316 C 
ATOM      7  O   UNL     1       6.660   9.783  -0.011  0.00  0.00    -0.251 OA
ATOM      8  N   UNL     1       4.485  10.233   0.012  0.00  0.00    -0.290 N 
ATOM      9  H   UNL     1       6.027   7.416  -0.017  0.00  0.00    +0.174 HD
ATOM     10  H   UNL     1       3.574   9.901   0.019  0.00  0.00    +0.151 HD
BRANCH   8  11
ATOM     11  C   UNL     1       4.739  11.676   0.017  0.00  0.00    +0.219 C 
BRANCH  11  12
ATOM     12  C   UNL     1       3.407  12.429   0.033  0.00  0.00    +0.405 C 
ATOM     13  F   UNL     1       2.687  12.078   1.181  0.00  0.00    -0.169 F 
ATOM     14  F   UNL     1       3.650  13.806   0.038  0.00  0.00    -0.169 F 
ATOM     15  F   UNL     1       2.666  12.089  -1.104  0.00  0.00    -0.169 F 
ENDBRANCH  11  12
ENDBRANCH   8  11
ENDBRANCH   3   5
BRANCH   1  16
ATOM     16  C   UNL     1       2.317   5.718   0.010  0.00  0.00    +0.202 C 
BRANCH  16  19
ATOM     17  C   UNL     1       1.170   3.568   0.010  0.00  0.00    +0.245 C 
ATOM     18  O   UNL     1       0.112   4.166   0.022  0.00  0.00    -0.270 OA
ATOM     19  N   UNL     1       2.331   4.253   0.002  0.00  0.00    -0.303 N 
ATOM     20  H   UNL     1       3.175   3.776  -0.008  0.00  0.00    +0.150 HD
BRANCH  17  22
ATOM     21  C   UNL     1      -0.017   1.378   0.010  0.00  0.00    +0.051 A 
ATOM     22  C   UNL     1       1.184   2.089   0.002  0.00  0.00    +0.042 A 
ATOM     23  C   UNL     1       2.397   1.400  -0.013  0.00  0.00    +0.051 A 
ATOM     24  C   UNL     1       2.404   0.018  -0.021  0.00  0.00    +0.127 A 
ATOM     25  C   UNL     1       1.210  -0.683  -0.014  0.00  0.00    +0.076 A 
ATOM     26  C   UNL     1       0.002  -0.004   0.002  0.00  0.00    +0.127 A 
ATOM     27  F   UNL     1      -1.159  -0.694   0.010  0.00  0.00    -0.205 F 
ATOM     28  F   UNL     1       3.578  -0.650  -0.036  0.00  0.00    -0.205 F 
ENDBRANCH  17  22
ENDBRANCH  16  19
ENDBRANCH   1  16
TORSDOF 6
