REMARK  Name = ZINC20745951
REMARK  9 active torsions:
REMARK  status: ('A' for Active; 'I' for Inactive)
REMARK    1  A    between atoms: C_1  and  O_2
REMARK    2  A    between atoms: O_2  and  C_3
REMARK    3  A    between atoms: C_3  and  C_5
REMARK    4  A    between atoms: C_5  and  C_7
REMARK    5  A    between atoms: C_5  and  N_11
REMARK    6  A    between atoms: C_7  and  C_8
REMARK    7  A    between atoms: C_8  and  S_9
REMARK    8  A    between atoms: S_9  and  C_10
REMARK    9  A    between atoms: C_23  and  C_25
REMARK                            x       y       z     vdW  Elec       q    Type
REMARK                         _______ _______ _______ _____ _____    ______ ____
ROOT
ATOM      1  N   UNL     1      -2.714  -2.392   2.023  0.00  0.00    -0.286 N 
ATOM      2  C   UNL     1      -3.437  -2.785   0.956  0.00  0.00    +0.304 C 
ATOM      3  O   UNL     1      -2.971  -2.692  -0.163  0.00  0.00    -0.253 OA
ATOM      4  N   UNL     1      -4.678  -3.283   1.129  0.00  0.00    -0.273 N 
ATOM      5  C   UNL     1      -5.439  -3.824  -0.007  0.00  0.00    +0.116 C 
ATOM      6  C   UNL     1      -5.674  -5.323   0.212  0.00  0.00    +0.076 C 
ATOM      7  C   UNL     1      -6.123  -5.543   1.635  0.00  0.00    +0.066 A 
ATOM      8  C   UNL     1      -5.957  -4.649   2.634  0.00  0.00    +0.064 A 
ATOM      9  N   UNL     1      -6.481  -5.201   3.761  0.00  0.00    -0.346 N 
ATOM     10  H   UNL     1      -6.508  -4.797   4.643  0.00  0.00    +0.167 HD
ATOM     11  C   UNL     1      -6.957  -6.420   3.419  0.00  0.00    +0.197 A 
ATOM     12  N   UNL     1      -6.738  -6.615   2.144  0.00  0.00    -0.240 NA
ATOM     13  C   UNL     1      -5.305  -3.304   2.463  0.00  0.00    +0.159 C 
ATOM     14  H   UNL     1      -3.112  -2.398   2.908  0.00  0.00    +0.151 HD
ENDROOT
BRANCH  13  15
ATOM     15  C   UNL     1      -6.346  -2.218   2.558  0.00  0.00    +0.017 A 
ATOM     16  C   UNL     1      -7.597  -2.503   3.070  0.00  0.00    +0.047 A 
ATOM     17  C   UNL     1      -8.553  -1.505   3.158  0.00  0.00    +0.124 A 
ATOM     18  C   UNL     1      -8.255  -0.222   2.733  0.00  0.00    +0.041 A 
ATOM     19  C   UNL     1      -7.003   0.064   2.221  0.00  0.00    +0.041 A 
ATOM     20  C   UNL     1      -6.046  -0.933   2.139  0.00  0.00    +0.129 A 
ATOM     21  F   UNL     1      -4.820  -0.653   1.643  0.00  0.00    -0.205 F 
ATOM     22  F   UNL     1      -9.777  -1.784   3.657  0.00  0.00    -0.205 F 
ENDBRANCH  13  15
BRANCH   1  23
ATOM     23  C   UNL     1      -1.327  -1.955   1.847  0.00  0.00    +0.184 C 
BRANCH  23  24
ATOM     24  C   UNL     1      -0.417  -3.156   1.854  0.00  0.00    +0.327 C 
ATOM     25  O   UNL     1      -0.879  -4.263   1.992  0.00  0.00    -0.249 OA
BRANCH  24  27
ATOM     26  C   UNL     1       1.710  -4.177   1.724  0.00  0.00    +0.280 C 
ATOM     27  O   UNL     1       0.908  -2.995   1.707  0.00  0.00    -0.467 OA
ENDBRANCH  24  27
ENDBRANCH  23  24
BRANCH  23  28
ATOM     28  C   UNL     1      -0.940  -1.014   2.990  0.00  0.00    +0.044 C 
BRANCH  28  29
ATOM     29  C   UNL     1      -1.780   0.262   2.907  0.00  0.00    +0.071 C 
BRANCH  29  30
ATOM     30  S   UNL     1      -1.321   1.377   4.262  0.00  0.00    -0.164 S 
ATOM     31  C   UNL     1      -2.393   2.821   4.024  0.00  0.00    +0.084 C 
ENDBRANCH  29  30
ENDBRANCH  28  29
ENDBRANCH  23  28
ENDBRANCH   1  23
TORSDOF 7
