REMARK  Name = ZINC38546583
REMARK  7 active torsions:
REMARK  status: ('A' for Active; 'I' for Inactive)
REMARK    1  A    between atoms: C_1  and  C_2
REMARK    2  A    between atoms: C_2  and  N_3
REMARK    3  A    between atoms: N_6  and  C_9
REMARK    4  A    between atoms: C_9  and  C_11
REMARK    5  A    between atoms: C_9  and  C_18
REMARK    6  A    between atoms: C_22  and  N_23
REMARK    7  A    between atoms: C_24  and  C_26
REMARK                            x       y       z     vdW  Elec       q    Type
REMARK                         _______ _______ _______ _____ _____    ______ ____
ROOT
ATOM      1  C   UNL     1      -4.703  -4.134  -1.004  0.00  0.00    +0.006 A 
ATOM      2  C   UNL     1      -3.649  -4.780  -1.651  0.00  0.00    -0.030 A 
ATOM      3  C   UNL     1      -3.582  -6.130  -1.508  0.00  0.00    -0.005 A 
ATOM      4  S   UNL     1      -4.970  -6.519  -0.476  0.00  0.00    -0.078 S 
ATOM      5  C   UNL     1      -5.591  -4.857  -0.271  0.00  0.00    +0.078 A 
ATOM      6  C   UNL     1      -2.566  -7.059  -2.091  0.00  0.00    +0.043 C 
ATOM      7  C   UNL     1      -1.801  -6.308  -3.191  0.00  0.00    +0.005 C 
ATOM      8  C   UNL     1      -1.380  -4.939  -2.650  0.00  0.00    +0.005 C 
ATOM      9  C   UNL     1      -2.607  -4.041  -2.487  0.00  0.00    +0.036 C 
ENDROOT
BRANCH   5  10
ATOM     10  N   UNL     1      -6.701  -4.415   0.453  0.00  0.00    -0.273 N 
ATOM     11  C   UNL     1      -7.466  -5.301   1.121  0.00  0.00    +0.284 C 
ATOM     12  O   UNL     1      -7.189  -6.486   1.094  0.00  0.00    -0.266 OA
ATOM     13  H   UNL     1      -6.922  -3.471   0.474  0.00  0.00    +0.156 HD
BRANCH  11  14
ATOM     14  C   UNL     1      -8.631  -4.837   1.881  0.00  0.00    +0.189 A 
ATOM     15  C   UNL     1      -9.483  -5.623   2.603  0.00  0.00    +0.054 A 
ATOM     16  C   UNL     1     -10.445  -4.768   3.161  0.00  0.00    +0.042 A 
ATOM     17  C   UNL     1     -10.143  -3.513   2.760  0.00  0.00    +0.196 A 
ATOM     18  O   UNL     1      -9.047  -3.559   1.993  0.00  0.00    -0.458 OA
ENDBRANCH  11  14
ENDBRANCH   5  10
BRANCH   1  19
ATOM     19  C   UNL     1      -4.853  -2.639  -1.111  0.00  0.00    +0.122 C 
BRANCH  19  23
ATOM     20  N   UNL     1      -1.736  -0.294   0.520  0.00  0.00    +0.381 N 
ATOM     21  C   UNL     1      -2.273   0.088  -0.792  0.00  0.00    -0.063 C 
ATOM     22  C   UNL     1      -3.658  -0.536  -0.978  0.00  0.00    +0.067 C 
ATOM     23  N   UNL     1      -3.551  -1.998  -0.881  0.00  0.00    -0.295 NA
ATOM     24  C   UNL     1      -2.991  -2.395   0.418  0.00  0.00    +0.067 C 
ATOM     25  C   UNL     1      -1.611  -1.756   0.593  0.00  0.00    -0.063 C 
ATOM     26  H   UNL     1      -2.360   0.026   1.245  0.00  0.00    -0.082 HD
BRANCH  20  28
ATOM     27  C   UNL     1      -0.561   1.841   0.754  0.00  0.00    -0.017 C 
ATOM     28  C   UNL     1      -0.414   0.319   0.706  0.00  0.00    -0.082 C 
ENDBRANCH  20  28
ENDBRANCH  19  23
BRANCH  19  29
ATOM     29  C   UNL     1      -5.352  -2.281  -2.487  0.00  0.00    +0.009 A 
ATOM     30  C   UNL     1      -4.456  -1.921  -3.476  0.00  0.00    +0.008 A 
ATOM     31  C   UNL     1      -4.914  -1.593  -4.738  0.00  0.00    +0.000 A 
ATOM     32  C   UNL     1      -6.269  -1.625  -5.013  0.00  0.00    +0.003 A 
ATOM     33  C   UNL     1      -7.166  -1.986  -4.027  0.00  0.00    +0.039 A 
ATOM     34  C   UNL     1      -6.708  -2.319  -2.763  0.00  0.00    +0.128 A 
ATOM     35  F   UNL     1      -7.585  -2.676  -1.799  0.00  0.00    -0.205 F 
ENDBRANCH  19  29
ENDBRANCH   1  19
TORSDOF 6
