REMARK  Name = ZINC63177758
REMARK  8 active torsions:
REMARK  status: ('A' for Active; 'I' for Inactive)
REMARK    1  A    between atoms: C_1  and  C_2
REMARK    2  A    between atoms: C_2  and  C_3
REMARK    3  A    between atoms: C_3  and  N_4
REMARK    4  A    between atoms: N_4  and  S_5
REMARK    5  A    between atoms: S_5  and  C_8
REMARK    6  A    between atoms: C_13  and  N_14
REMARK    7  A    between atoms: N_14  and  C_15
REMARK    8  A    between atoms: C_20  and  N_22
REMARK                            x       y       z     vdW  Elec       q    Type
REMARK                         _______ _______ _______ _____ _____    ______ ____
ROOT
ATOM      1  C   UNL     1       1.181  -2.509   3.741  0.00  0.00    +0.126 A 
ATOM      2  C   UNL     1       0.797  -3.536   4.581  0.00  0.00    +0.030 A 
ATOM      3  C   UNL     1       0.314  -3.254   5.845  0.00  0.00    +0.002 A 
ATOM      4  C   UNL     1       0.214  -1.942   6.273  0.00  0.00    +0.002 A 
ATOM      5  C   UNL     1       0.596  -0.911   5.438  0.00  0.00    +0.025 A 
ATOM      6  C   UNL     1       1.086  -1.192   4.169  0.00  0.00    +0.054 A 
ENDROOT
BRANCH   1   7
ATOM      7  S   UNL     1       1.795  -2.871   2.129  0.00  0.00    +0.060 S 
ATOM      8  O   UNL     1       1.077  -2.043   1.225  0.00  0.00    -0.153 OA
ATOM      9  O   UNL     1       1.819  -4.287   2.012  0.00  0.00    -0.153 OA
BRANCH   7  10
ATOM     10  N   UNL     1       3.372  -2.366   2.082  0.00  0.00    -0.190 NA
ATOM     11  H   UNL     1       3.633  -1.645   1.488  0.00  0.00    +0.148 HD
BRANCH  10  12
ATOM     12  C   UNL     1       4.373  -3.008   2.938  0.00  0.00    +0.105 C 
BRANCH  12  14
ATOM     13  C   UNL     1       6.820  -3.317   3.337  0.00  0.00    +0.005 C 
ATOM     14  C   UNL     1       5.774  -2.647   2.443  0.00  0.00    +0.013 C 
ENDBRANCH  12  14
ENDBRANCH  10  12
ENDBRANCH   7  10
ENDBRANCH   1   7
BRANCH   6  15
ATOM     15  N   UNL     1       1.478  -0.151   3.324  0.00  0.00    -0.341 N 
ATOM     16  H   UNL     1       1.888  -0.350   2.468  0.00  0.00    +0.146 HD
BRANCH  15  17
ATOM     17  C   UNL     1       1.270   1.241   3.731  0.00  0.00    +0.056 C 
ATOM     18  C   UNL     1      -0.126   1.741   3.284  0.00  0.00    +0.020 C 
ATOM     19  C   UNL     1       0.027   3.274   3.209  0.00  0.00    +0.000 C 
ATOM     20  C   UNL     1       1.526   3.557   3.008  0.00  0.00    -0.014 C 
ATOM     21  C   UNL     1       2.235   2.185   2.972  0.00  0.00    -0.055 C 
BRANCH  21  22
ATOM     22  N   UNL     1       3.532   2.254   3.658  0.00  0.00    +0.381 N 
ATOM     23  H   UNL     1       3.940   1.332   3.699  0.00  0.00    -0.090 HD
ATOM     24  H   UNL     1       4.148   2.872   3.151  0.00  0.00    -0.090 HD
ATOM     25  H   UNL     1       3.399   2.605   4.595  0.00  0.00    -0.090 HD
ENDBRANCH  21  22
ENDBRANCH  15  17
ENDBRANCH   6  15
TORSDOF 7
