REMARK  Name = ZINC39481845
REMARK  11 active torsions:
REMARK  status: ('A' for Active; 'I' for Inactive)
REMARK    1  A    between atoms: C_1  and  C_2
REMARK    2  A    between atoms: C_2  and  C_3
REMARK    3  A    between atoms: C_2  and  C_4
REMARK    4  A    between atoms: C_4  and  C_5
REMARK    5  A    between atoms: C_8  and  N_27
REMARK    6  A    between atoms: C_9  and  N_11
REMARK    7  A    between atoms: C_15  and  S_18
REMARK    8  A    between atoms: S_18  and  C_21
REMARK    9  A    between atoms: N_27  and  S_28
REMARK   10  A    between atoms: S_28  and  C_31
REMARK   11  A    between atoms: C_36  and  O_37
REMARK                            x       y       z     vdW  Elec       q    Type
REMARK                         _______ _______ _______ _____ _____    ______ ____
ROOT
ATOM      1  C   UNL     1      -0.184  -2.380   0.056  0.00  0.00    -0.045 A 
ATOM      2  C   UNL     1      -0.476  -2.828  -1.219  0.00  0.00    +0.005 A 
ATOM      3  C   UNL     1      -0.788  -4.157  -1.435  0.00  0.00    +0.026 A 
ATOM      4  C   UNL     1      -0.809  -5.046  -0.371  0.00  0.00    +0.069 A 
ATOM      5  C   UNL     1      -0.514  -4.595   0.915  0.00  0.00    +0.053 A 
ATOM      6  C   UNL     1      -0.198  -3.261   1.122  0.00  0.00    +0.028 A 
ENDROOT
BRANCH   5   7
ATOM      7  N   UNL     1      -0.534  -5.487   1.994  0.00  0.00    -0.324 N 
ATOM      8  C   UNL     1       0.679  -6.220   2.390  0.00  0.00    +0.120 C 
ATOM      9  C   UNL     1       0.336  -7.710   2.490  0.00  0.00    +0.101 C 
ATOM     10  N   UNL     1      -0.816  -7.886   3.385  0.00  0.00    -0.292 NA
ATOM     11  C   UNL     1      -2.013  -7.227   2.847  0.00  0.00    +0.220 C 
ATOM     12  C   UNL     1      -1.765  -5.712   2.766  0.00  0.00    +0.147 C 
ATOM     13  H   UNL     1      -0.990  -8.863   3.563  0.00  0.00    +0.124 HD
BRANCH  11  14
ATOM     14  S   UNL     1      -3.424  -7.550   3.941  0.00  0.00    +0.014 S 
ATOM     15  O   UNL     1      -3.094  -7.208   5.280  0.00  0.00    -0.168 OA
ATOM     16  O   UNL     1      -4.623  -7.072   3.347  0.00  0.00    -0.168 OA
BRANCH  14  17
ATOM     17  C   UNL     1      -3.595  -9.303   3.954  0.00  0.00    +0.090 A 
ATOM     18  C   UNL     1      -4.400  -9.926   3.018  0.00  0.00    +0.027 A 
ATOM     19  C   UNL     1      -4.534 -11.302   3.027  0.00  0.00    +0.002 A 
ATOM     20  C   UNL     1      -3.864 -12.055   3.973  0.00  0.00    +0.000 A 
ATOM     21  C   UNL     1      -3.058 -11.432   4.908  0.00  0.00    +0.002 A 
ATOM     22  C   UNL     1      -2.921 -10.057   4.896  0.00  0.00    +0.027 A 
ENDBRANCH  14  17
ENDBRANCH  11  14
ENDBRANCH   5   7
BRANCH   4  23
ATOM     23  N   UNL     1      -1.125  -6.393  -0.587  0.00  0.00    -0.214 N 
ATOM     24  H   UNL     1      -1.625  -6.887   0.081  0.00  0.00    +0.174 HD
BRANCH  23  25
ATOM     25  S   UNL     1      -0.644  -7.143  -1.983  0.00  0.00    +0.076 S 
ATOM     26  O   UNL     1       0.718  -6.793  -2.184  0.00  0.00    -0.150 OA
ATOM     27  O   UNL     1      -1.078  -8.492  -1.890  0.00  0.00    -0.150 OA
BRANCH  25  28
ATOM     28  C   UNL     1      -1.552  -6.412  -3.305  0.00  0.00    +0.150 A 
ATOM     29  C   UNL     1      -0.888  -5.718  -4.299  0.00  0.00    +0.032 A 
ATOM     30  C   UNL     1      -1.600  -5.145  -5.336  0.00  0.00    +0.002 A 
ATOM     31  C   UNL     1      -2.977  -5.265  -5.383  0.00  0.00    +0.004 A 
ATOM     32  C   UNL     1      -3.644  -5.958  -4.393  0.00  0.00    +0.047 A 
ATOM     33  C   UNL     1      -2.932  -6.539  -3.353  0.00  0.00    +0.143 A 
BRANCH  33  34
ATOM     34  O   UNL     1      -3.587  -7.227  -2.381  0.00  0.00    -0.505 OA
ATOM     35  H   UNL     1      -3.877  -6.679  -1.639  0.00  0.00    +0.292 HD
ENDBRANCH  33  34
ENDBRANCH  25  28
ENDBRANCH  23  25
ENDBRANCH   4  23
BRANCH   1  36
ATOM     36  C   UNL     1       0.155  -0.930   0.284  0.00  0.00    +0.038 C 
BRANCH  36  38
ATOM     37  C   UNL     1       1.995   0.760   0.245  0.00  0.00    +0.007 C 
ATOM     38  C   UNL     1       1.665  -0.730   0.138  0.00  0.00    -0.013 C 
ATOM     39  C   UNL     1       2.390  -1.494   1.247  0.00  0.00    +0.007 C 
ENDBRANCH  36  38
ENDBRANCH   1  36
TORSDOF 9
