REMARK  Name = ZINC63625138
REMARK  7 active torsions:
REMARK  status: ('A' for Active; 'I' for Inactive)
REMARK    1  A    between atoms: C_1  and  C_2
REMARK    2  A    between atoms: C_2  and  C_3
REMARK    3  A    between atoms: N_5  and  C_6
REMARK    4  A    between atoms: C_11  and  N_16
REMARK    5  A    between atoms: C_17  and  C_19
REMARK    6  A    between atoms: C_19  and  C_20
REMARK    7  A    between atoms: C_20  and  C_21
REMARK                            x       y       z     vdW  Elec       q    Type
REMARK                         _______ _______ _______ _____ _____    ______ ____
ROOT
ATOM      1  N   UNL     1       0.931  -8.074  -4.638  0.00  0.00    -0.285 N 
ATOM      2  C   UNL     1       0.242  -8.815  -5.529  0.00  0.00    +0.217 C 
ATOM      3  O   UNL     1      -0.464  -8.271  -6.351  0.00  0.00    -0.275 OA
ATOM      4  H   UNL     1       1.547  -8.504  -4.023  0.00  0.00    +0.155 HD
ENDROOT
BRANCH   1   9
ATOM      5  C   UNL     1       0.481  -2.426  -2.257  0.00  0.00    +0.224 C 
ATOM      6  N   UNL     1       0.680  -3.877  -2.136  0.00  0.00    -0.316 N 
ATOM      7  C   UNL     1       0.642  -4.632  -3.307  0.00  0.00    +0.044 A 
ATOM      8  C   UNL     1       0.812  -6.026  -3.386  0.00  0.00    +0.047 A 
ATOM      9  C   UNL     1       0.758  -6.684  -4.598  0.00  0.00    +0.035 A 
ATOM     10  C   UNL     1       0.534  -5.989  -5.779  0.00  0.00    +0.024 A 
ATOM     11  C   UNL     1       0.365  -4.616  -5.725  0.00  0.00    +0.018 A 
ATOM     12  C   UNL     1       0.419  -3.963  -4.514  0.00  0.00    +0.032 A 
ATOM     13  S   UNL     1       0.251  -2.248  -4.071  0.00  0.00    -0.082 S 
ATOM     14  H   UNL     1       0.832  -4.293  -1.273  0.00  0.00    +0.149 HD
BRANCH   5  17
ATOM     15  C   UNL     1      -0.943  -0.684  -1.321  0.00  0.00    +0.215 C 
ATOM     16  O   UNL     1      -0.156   0.141  -1.737  0.00  0.00    -0.276 OA
ATOM     17  N   UNL     1      -0.716  -1.996  -1.529  0.00  0.00    -0.288 N 
ATOM     18  H   UNL     1      -1.345  -2.655  -1.197  0.00  0.00    +0.151 HD
BRANCH  15  20
ATOM     19  C   UNL     1      -2.191   1.286  -0.476  0.00  0.00    +0.013 C 
ATOM     20  C   UNL     1      -2.174  -0.241  -0.573  0.00  0.00    +0.092 C 
ENDBRANCH  15  20
ENDBRANCH   5  17
ENDBRANCH   1   9
BRANCH   2  21
ATOM     21  C   UNL     1       0.350 -10.317  -5.503  0.00  0.00    +0.100 C 
BRANCH  21  22
ATOM     22  C   UNL     1      -0.524 -10.910  -6.610  0.00  0.00    +0.056 C 
BRANCH  22  23
ATOM     23  C   UNL     1      -0.415 -12.436  -6.584  0.00  0.00    +0.174 C 
ATOM     24  N   UNL     1       0.965 -12.847  -6.871  0.00  0.00    -0.363 N 
ATOM     25  C   UNL     1       0.939 -13.573  -7.952  0.00  0.00    +0.060 A 
ATOM     26  C   UNL     1       1.988 -14.258  -8.721  0.00  0.00    +0.027 A 
ATOM     27  C   UNL     1       1.655 -14.952  -9.827  0.00  0.00    +0.002 A 
ATOM     28  C   UNL     1       0.330 -15.055 -10.288  0.00  0.00    +0.002 A 
ATOM     29  C   UNL     1      -0.706 -14.466  -9.659  0.00  0.00    +0.027 A 
ATOM     30  C   UNL     1      -0.463 -13.682  -8.440  0.00  0.00    +0.060 A 
ATOM     31  N   UNL     1      -1.250 -13.019  -7.642  0.00  0.00    -0.363 N 
ATOM     32  H   UNL     1       1.752 -12.620  -6.352  0.00  0.00    +0.162 HD
ATOM     33  H   UNL     1      -2.211 -12.928  -7.730  0.00  0.00    +0.162 HD
ENDBRANCH  22  23
ENDBRANCH  21  22
ENDBRANCH   2  21
TORSDOF 6
