REMARK  Name = ZINC20426801
REMARK  7 active torsions:
REMARK  status: ('A' for Active; 'I' for Inactive)
REMARK    1  A    between atoms: C_1  and  C_2
REMARK    2  A    between atoms: C_6  and  C_7
REMARK    3  A    between atoms: N_8  and  N_9
REMARK    4  A    between atoms: C_10  and  C_12
REMARK    5  A    between atoms: N_17  and  C_19
REMARK    6  A    between atoms: C_19  and  C_20
REMARK    7  A    between atoms: N_22  and  C_23
REMARK                            x       y       z     vdW  Elec       q    Type
REMARK                         _______ _______ _______ _____ _____    ______ ____
ROOT
ATOM      1  C   UNL     1      -7.116   4.264   1.681  0.00  0.00    +0.060 C 
ATOM      2  C   UNL     1      -7.335   5.088   0.409  0.00  0.00    +0.009 C 
ATOM      3  C   UNL     1      -7.453   4.142  -0.789  0.00  0.00    -0.018 C 
ATOM      4  C   UNL     1      -6.189   3.285  -0.883  0.00  0.00    -0.078 C 
ATOM      5  N   UNL     1      -6.024   2.516   0.357  0.00  0.00    +0.386 N 
ATOM      6  C   UNL     1      -5.861   3.403   1.515  0.00  0.00    -0.065 C 
ATOM      7  H   UNL     1      -6.941   1.928   0.511  0.00  0.00    -0.081 HD
ENDROOT
BRANCH   1   9
ATOM      8  N   UNL     1      -7.923   6.049   3.192  0.00  0.00    -0.207 N 
ATOM      9  C   UNL     1      -6.939   5.190   2.857  0.00  0.00    +0.233 C 
ATOM     10  O   UNL     1      -5.912   5.162   3.502  0.00  0.00    -0.274 OA
ATOM     11  H   UNL     1      -8.854   6.074   2.607  0.00  0.00    +0.177 HD
BRANCH   8  13
ATOM     12  C   UNL     1      -8.707   7.738   4.608  0.00  0.00    +0.145 C 
ATOM     13  N   UNL     1      -7.758   6.909   4.285  0.00  0.00    -0.187 NA
BRANCH  12  19
ATOM     14  C   UNL     1     -10.759   9.807   5.621  0.00  0.00    +0.045 C 
ATOM     15  C   UNL     1      -9.411   9.585   6.257  0.00  0.00    -0.035 A 
ATOM     16  C   UNL     1      -9.020  10.318   7.354  0.00  0.00    +0.011 A 
ATOM     17  C   UNL     1      -7.797  10.093   7.902  0.00  0.00    +0.046 A 
ATOM     18  S   UNL     1      -7.146   8.797   6.862  0.00  0.00    -0.095 S 
ATOM     19  C   UNL     1      -8.535   8.639   5.752  0.00  0.00    +0.035 A 
ENDBRANCH  12  19
ENDBRANCH   8  13
ENDBRANCH   1   9
BRANCH   5  20
ATOM     20  C   UNL     1      -4.898   1.579   0.249  0.00  0.00    +0.019 C 
BRANCH  20  21
ATOM     21  C   UNL     1      -3.610   2.352   0.134  0.00  0.00    +0.201 C 
ATOM     22  O   UNL     1      -3.628   3.565   0.141  0.00  0.00    -0.278 OA
ATOM     23  N   UNL     1      -2.438   1.697   0.023  0.00  0.00    -0.286 N 
ATOM     24  H   UNL     1      -2.427   0.600  -0.058  0.00  0.00    +0.155 HD
BRANCH  23  25
ATOM     25  C   UNL     1      -1.234   2.412   0.010  0.00  0.00    +0.053 A 
ATOM     26  C   UNL     1      -1.175   3.663  -0.589  0.00  0.00    +0.044 A 
ATOM     27  C   UNL     1       0.016   4.364  -0.605  0.00  0.00    +0.043 A 
ATOM     28  C   UNL     1       1.148   3.822  -0.020  0.00  0.00    +0.021 A 
ATOM     29  C   UNL     1       1.090   2.579   0.582  0.00  0.00    +0.023 A 
ATOM     30  C   UNL     1      -0.098   1.873   0.601  0.00  0.00    +0.062 A 
ATOM     31 CL   UNL     1      -0.169   0.311   1.356  0.00  0.00    -0.082 Cl
ATOM     32 CL   UNL     1       0.093   5.926  -1.359  0.00  0.00    -0.083 Cl
ENDBRANCH  23  25
ENDBRANCH  20  21
ENDBRANCH   5  20
TORSDOF 6
