REMARK  Name = ZINC39354323
REMARK  10 active torsions:
REMARK  status: ('A' for Active; 'I' for Inactive)
REMARK    1  A    between atoms: C_1  and  C_2
REMARK    2  A    between atoms: C_6  and  C_33
REMARK    3  A    between atoms: C_7  and  O_8
REMARK    4  A    between atoms: O_8  and  C_9
REMARK    5  A    between atoms: C_9  and  C_10
REMARK    6  A    between atoms: C_13  and  S_19
REMARK    7  A    between atoms: N_15  and  C_16
REMARK    8  A    between atoms: C_16  and  C_17
REMARK    9  A    between atoms: S_19  and  C_20
REMARK   10  A    between atoms: C_20  and  C_21
REMARK                            x       y       z     vdW  Elec       q    Type
REMARK                         _______ _______ _______ _____ _____    ______ ____
ROOT
ATOM      1  C   UNL     1      -1.046   1.011   4.254  0.00  0.00    +0.156 C 
ATOM      2  N   UNL     1       0.103   1.313   4.737  0.00  0.00    -0.170 NA
ATOM      3  N   UNL     1      -0.013   2.000   5.952  0.00  0.00    -0.238 N 
ATOM      4  C   UNL     1      -1.457   2.116   6.220  0.00  0.00    +0.237 C 
ATOM      5  N   UNL     1      -2.082   1.451   5.063  0.00  0.00    -0.283 N 
ATOM      6  H   UNL     1       0.711   2.331   6.506  0.00  0.00    +0.171 HD
ENDROOT
BRANCH   1   7
ATOM      7  C   UNL     1      -1.246   0.270   2.957  0.00  0.00    +0.302 C 
BRANCH   7   8
ATOM      8  O   UNL     1       0.025  -0.033   2.381  0.00  0.00    -0.484 OA
BRANCH   8  15
ATOM      9  C   UNL     1      -0.018   1.503   0.010  0.00  0.00    +0.047 C 
ATOM     10  C   UNL     1       0.002  -0.004   0.002  0.00  0.00    -0.009 A 
ATOM     11  C   UNL     1       0.006  -0.689  -1.198  0.00  0.00    +0.007 A 
ATOM     12  C   UNL     1       0.024  -2.071  -1.206  0.00  0.00    +0.001 A 
ATOM     13  C   UNL     1       0.040  -2.772  -0.014  0.00  0.00    +0.007 A 
ATOM     14  C   UNL     1       0.036  -2.092   1.188  0.00  0.00    -0.009 A 
ATOM     15  C   UNL     1       0.023  -0.705   1.199  0.00  0.00    +0.127 A 
ATOM     16  C   UNL     1       0.052  -2.856   2.487  0.00  0.00    +0.047 C 
ENDBRANCH   8  15
ENDBRANCH   7   8
ENDBRANCH   1   7
BRANCH   5  17
ATOM     17  C   UNL     1      -3.517   1.286   4.818  0.00  0.00    +0.135 C 
BRANCH  17  18
ATOM     18  C   UNL     1      -3.987  -0.006   5.435  0.00  0.00    -0.016 C 
ATOM     19  C   UNL     1      -4.982  -0.002   6.287  0.00  0.00    +0.005 C 
ENDBRANCH  17  18
ENDBRANCH   5  17
BRANCH   4  20
ATOM     20  S   UNL     1      -1.953   3.859   6.295  0.00  0.00    -0.110 S 
BRANCH  20  21
ATOM     21  C   UNL     1      -1.480   4.520   4.673  0.00  0.00    +0.146 C 
BRANCH  21  22
ATOM     22  C   UNL     1      -1.842   5.981   4.602  0.00  0.00    +0.120 A 
ATOM     23  N   UNL     1      -1.570   6.657   3.455  0.00  0.00    -0.310 N 
ATOM     24  H   UNL     1      -1.153   6.194   2.712  0.00  0.00    +0.170 HD
ATOM     25  C   UNL     1      -1.876   7.971   3.340  0.00  0.00    +0.259 A 
ATOM     26  O   UNL     1      -1.638   8.588   2.318  0.00  0.00    -0.267 OA
ATOM     27  C   UNL     1      -2.507   8.622   4.497  0.00  0.00    +0.065 A 
ATOM     28  C   UNL     1      -2.861   9.970   4.482  0.00  0.00    +0.015 A 
ATOM     29  C   UNL     1      -3.449  10.530   5.595  0.00  0.00    +0.001 A 
ATOM     30  C   UNL     1      -3.691   9.763   6.727  0.00  0.00    +0.002 A 
ATOM     31  C   UNL     1      -3.349   8.430   6.763  0.00  0.00    +0.028 A 
ATOM     32  C   UNL     1      -2.751   7.840   5.647  0.00  0.00    +0.078 A 
ATOM     33  N   UNL     1      -2.403   6.529   5.637  0.00  0.00    -0.233 NA
ENDBRANCH  21  22
ENDBRANCH  20  21
ENDBRANCH   4  20
TORSDOF 8
