REMARK  Name = ZINC12477455
REMARK  14 active torsions:
REMARK  status: ('A' for Active; 'I' for Inactive)
REMARK    1  A    between atoms: C_1  and  C_2
REMARK    2  A    between atoms: C_5  and  C_8
REMARK    3  A    between atoms: N_11  and  C_13
REMARK    4  A    between atoms: C_13  and  C_14
REMARK    5  A    between atoms: N_16  and  C_17
REMARK    6  A    between atoms: N_16  and  C_24
REMARK    7  A    between atoms: C_17  and  C_18
REMARK    8  A    between atoms: C_24  and  C_26
REMARK    9  A    between atoms: C_24  and  C_33
REMARK   10  A    between atoms: C_29  and  O_32
REMARK   11  A    between atoms: N_35  and  C_36
REMARK   12  A    between atoms: C_36  and  C_37
REMARK   13  A    between atoms: C_36  and  C_38
REMARK   14  A    between atoms: C_36  and  C_39
REMARK                            x       y       z     vdW  Elec       q    Type
REMARK                         _______ _______ _______ _____ _____    ______ ____
ROOT
ATOM      1  C   UNL     1      -3.111   0.301   1.762  0.00  0.00    +0.240 C 
ATOM      2  O   UNL     1      -2.016  -0.220   1.718  0.00  0.00    -0.273 OA
ATOM      3  N   UNL     1      -3.389   1.354   0.969  0.00  0.00    -0.280 N 
ENDROOT
BRANCH   1   4
ATOM      4  C   UNL     1      -4.160  -0.230   2.705  0.00  0.00    +0.264 C 
BRANCH   4   8
ATOM      5  C   UNL     1      -2.921  -3.121   4.304  0.00  0.00    +0.205 A 
ATOM      6  N   UNL     1      -2.600  -2.167   5.188  0.00  0.00    -0.108 NA
ATOM      7  N   UNL     1      -3.010  -1.043   4.705  0.00  0.00    -0.045 NA
ATOM      8  N   UNL     1      -3.568  -1.258   3.565  0.00  0.00    -0.154 N 
ATOM      9  N   UNL     1      -3.530  -2.519   3.302  0.00  0.00    -0.130 NA
BRANCH   5  14
ATOM     10  C   UNL     1      -1.866  -8.763   4.796  0.00  0.00    +0.044 C 
ATOM     11  C   UNL     1      -2.142  -7.287   4.667  0.00  0.00    -0.050 A 
ATOM     12  C   UNL     1      -1.746  -6.421   5.671  0.00  0.00    +0.004 A 
ATOM     13  C   UNL     1      -1.996  -5.069   5.558  0.00  0.00    +0.012 A 
ATOM     14  C   UNL     1      -2.649  -4.575   4.430  0.00  0.00    +0.023 A 
ATOM     15  C   UNL     1      -3.050  -5.452   3.425  0.00  0.00    +0.012 A 
ATOM     16  C   UNL     1      -2.791  -6.802   3.546  0.00  0.00    +0.004 A 
ENDBRANCH   5  14
ENDBRANCH   4   8
ENDBRANCH   1   4
BRANCH   3  17
ATOM     17  C   UNL     1      -4.704   1.996   1.037  0.00  0.00    +0.144 C 
BRANCH  17  18
ATOM     18  C   UNL     1      -5.615   1.383   0.005  0.00  0.00    -0.030 A 
ATOM     19  C   UNL     1      -5.362   1.573  -1.341  0.00  0.00    +0.005 A 
ATOM     20  C   UNL     1      -6.195   1.007  -2.288  0.00  0.00    +0.000 A 
ATOM     21  C   UNL     1      -7.288   0.260  -1.889  0.00  0.00    +0.000 A 
ATOM     22  C   UNL     1      -7.544   0.074  -0.543  0.00  0.00    +0.000 A 
ATOM     23  C   UNL     1      -6.708   0.636   0.404  0.00  0.00    +0.005 A 
ENDBRANCH  17  18
ENDBRANCH   3  17
BRANCH   3  24
ATOM     24  C   UNL     1      -2.375   1.858   0.038  0.00  0.00    +0.193 C 
BRANCH  24  25
ATOM     25  C   UNL     1      -1.302   2.583   0.809  0.00  0.00    -0.018 A 
ATOM     26  C   UNL     1       0.031   2.335   0.535  0.00  0.00    +0.009 A 
ATOM     27  C   UNL     1       1.016   3.003   1.236  0.00  0.00    +0.046 A 
ATOM     28  C   UNL     1       0.669   3.918   2.219  0.00  0.00    +0.117 A 
ATOM     29  C   UNL     1      -0.669   4.160   2.496  0.00  0.00    +0.046 A 
ATOM     30  C   UNL     1      -1.651   3.490   1.792  0.00  0.00    +0.009 A 
BRANCH  28  31
ATOM     31  O   UNL     1       1.637   4.576   2.909  0.00  0.00    -0.507 OA
ATOM     32  H   UNL     1       1.909   5.412   2.506  0.00  0.00    +0.292 HD
ENDBRANCH  28  31
ENDBRANCH  24  25
BRANCH  24  33
ATOM     33  C   UNL     1      -3.019   2.807  -0.940  0.00  0.00    +0.238 C 
ATOM     34  O   UNL     1      -3.928   3.525  -0.580  0.00  0.00    -0.273 OA
ATOM     35  N   UNL     1      -2.584   2.858  -2.214  0.00  0.00    -0.309 N 
ATOM     36  H   UNL     1      -1.928   2.216  -2.529  0.00  0.00    +0.149 HD
BRANCH  35  37
ATOM     37  C   UNL     1      -3.102   3.882  -3.124  0.00  0.00    +0.026 C 
ATOM     38  C   UNL     1      -2.947   5.262  -2.481  0.00  0.00    +0.031 C 
ATOM     39  C   UNL     1      -2.318   3.842  -4.438  0.00  0.00    +0.031 C 
ATOM     40  C   UNL     1      -4.582   3.614  -3.405  0.00  0.00    +0.031 C 
ENDBRANCH  35  37
ENDBRANCH  24  33
ENDBRANCH   3  24
TORSDOF 10
