REMARK  Name = ZINC04537740
REMARK  6 active torsions:
REMARK  status: ('A' for Active; 'I' for Inactive)
REMARK    1  A    between atoms: C_1  and  C_2
REMARK    2  A    between atoms: C_14  and  C_16
REMARK    3  A    between atoms: C_16  and  S_17
REMARK    4  A    between atoms: S_17  and  C_18
REMARK    5  A    between atoms: C_21  and  C_24
REMARK    6  A    between atoms: N_22  and  N_23
REMARK                            x       y       z     vdW  Elec       q    Type
REMARK                         _______ _______ _______ _____ _____    ______ ____
ROOT
ATOM      1  C   UNL     1       1.280   1.980   0.001  0.00  0.00    +0.173 C 
ENDROOT
BRANCH   1  14
ATOM      2  C   UNL     1      -4.061   1.658  -3.462  0.00  0.00    +0.019 C 
ATOM      3  C   UNL     1      -3.354   2.096  -2.177  0.00  0.00    +0.050 C 
ATOM      4  C   UNL     1      -2.944   0.866  -1.384  0.00  0.00    +0.033 C 
ATOM      5  C   UNL     1      -2.466   1.132   0.020  0.00  0.00    +0.115 C 
ATOM      6  N   UNL     1      -1.191   1.867   0.018  0.00  0.00    -0.270 N 
ATOM      7  C   UNL     1      -1.230   3.264   0.031  0.00  0.00    +0.050 A 
ATOM      8  C   UNL     1      -0.925   3.954   1.195  0.00  0.00    +0.024 A 
ATOM      9  C   UNL     1      -1.013   5.333   1.223  0.00  0.00    +0.002 A 
ATOM     10  C   UNL     1      -1.401   6.042   0.100  0.00  0.00    +0.001 A 
ATOM     11  C   UNL     1      -1.685   5.367  -1.077  0.00  0.00    +0.016 A 
ATOM     12  C   UNL     1      -1.582   3.992  -1.105  0.00  0.00    +0.030 A 
ATOM     13  S   UNL     1      -1.890   3.084  -2.602  0.00  0.00    -0.120 S 
ATOM     14  C   UNL     1      -0.014   1.209   0.009  0.00  0.00    +0.230 C 
ATOM     15  O   UNL     1       0.002  -0.004   0.002  0.00  0.00    -0.274 OA
ENDBRANCH   1  14
BRANCH   1  16
ATOM     16  S   UNL     1       2.672   0.823  -0.019  0.00  0.00    -0.075 S 
BRANCH  16  17
ATOM     17  C   UNL     1       4.017   1.961  -0.026  0.00  0.00    +0.209 A 
ATOM     18  N   UNL     1       3.928   3.272  -0.024  0.00  0.00    -0.120 NA
ATOM     19  N   UNL     1       5.101   3.796  -0.026  0.00  0.00    -0.123 NA
ATOM     20  C   UNL     1       6.014   2.849  -0.040  0.00  0.00    +0.217 A 
ATOM     21  N   UNL     1       5.346   1.645  -0.040  0.00  0.00    -0.221 N 
BRANCH  20  22
ATOM     22  C   UNL     1       7.473   3.041  -0.053  0.00  0.00    +0.173 A 
ATOM     23  C   UNL     1       8.125   4.202  -0.344  0.00  0.00    +0.053 A 
ATOM     24  C   UNL     1       9.502   3.932  -0.234  0.00  0.00    +0.042 A 
ATOM     25  C   UNL     1       9.625   2.633   0.106  0.00  0.00    +0.196 A 
ATOM     26  O   UNL     1       8.398   2.098   0.214  0.00  0.00    -0.460 OA
ENDBRANCH  20  22
BRANCH  21  27
ATOM     27  N   UNL     1       5.897   0.395  -0.052  0.00  0.00    -0.294 N 
ATOM     28  H   UNL     1       6.035   0.069  -0.997  0.00  0.00    +0.163 HD
ATOM     29  H   UNL     1       6.763   0.376   0.466  0.00  0.00    +0.163 HD
ENDBRANCH  21  27
ENDBRANCH  16  17
ENDBRANCH   1  16
TORSDOF 5
