REMARK  Name = ZINC09099314
REMARK  11 active torsions:
REMARK  status: ('A' for Active; 'I' for Inactive)
REMARK    1  A    between atoms: C_1  and  C_2
REMARK    2  A    between atoms: C_4  and  C_34
REMARK    3  A    between atoms: C_5  and  N_9
REMARK    4  A    between atoms: C_6  and  C_8
REMARK    5  A    between atoms: C_10  and  C_12
REMARK    6  A    between atoms: C_12  and  N_13
REMARK    7  A    between atoms: C_14  and  C_16
REMARK    8  A    between atoms: C_16  and  S_17
REMARK    9  A    between atoms: S_17  and  C_18
REMARK   10  A    between atoms: C_21  and  C_29
REMARK   11  A    between atoms: C_22  and  C_24
REMARK                            x       y       z     vdW  Elec       q    Type
REMARK                         _______ _______ _______ _____ _____    ______ ____
ROOT
ATOM      1  N   UNL     1      -4.442  12.112   1.710  0.00  0.00    -0.306 N 
ATOM      2  C   UNL     1      -3.634  11.252   2.360  0.00  0.00    +0.224 C 
ATOM      3  O   UNL     1      -2.497  11.575   2.631  0.00  0.00    -0.275 OA
ATOM      4  H   UNL     1      -5.352  11.854   1.493  0.00  0.00    +0.149 HD
ENDROOT
BRANCH   1   5
ATOM      5  C   UNL     1      -3.947  13.438   1.329  0.00  0.00    +0.200 C 
BRANCH   5   7
ATOM      6  N   UNL     1      -4.809  15.449   0.176  0.00  0.00    -0.284 N 
ATOM      7  C   UNL     1      -5.038  14.197   0.620  0.00  0.00    +0.234 C 
ATOM      8  O   UNL     1      -6.123  13.682   0.448  0.00  0.00    -0.274 OA
ATOM      9  H   UNL     1      -3.959  15.880   0.359  0.00  0.00    +0.155 HD
BRANCH   6  14
ATOM     10  C   UNL     1      -8.808  18.194  -2.766  0.00  0.00    +0.044 C 
ATOM     11  C   UNL     1      -7.745  17.465  -1.985  0.00  0.00    -0.050 A 
ATOM     12  C   UNL     1      -7.167  18.064  -0.881  0.00  0.00    +0.008 A 
ATOM     13  C   UNL     1      -6.193  17.399  -0.163  0.00  0.00    -0.029 A 
ATOM     14  C   UNL     1      -5.795  16.126  -0.550  0.00  0.00    +0.039 A 
ATOM     15  C   UNL     1      -6.375  15.528  -1.661  0.00  0.00    -0.029 A 
ATOM     16  C   UNL     1      -7.351  16.197  -2.373  0.00  0.00    +0.008 A 
ATOM     17  C   UNL     1      -5.942  14.149  -2.088  0.00  0.00    +0.045 C 
ATOM     18  C   UNL     1      -5.564  18.053   1.040  0.00  0.00    +0.045 C 
ENDBRANCH   6  14
ENDBRANCH   5   7
ENDBRANCH   1   5
BRANCH   2  19
ATOM     19  C   UNL     1      -4.144   9.889   2.751  0.00  0.00    +0.173 C 
BRANCH  19  20
ATOM     20  S   UNL     1      -2.833   8.977   3.604  0.00  0.00    -0.079 S 
BRANCH  20  21
ATOM     21  C   UNL     1      -3.678   7.467   3.936  0.00  0.00    +0.168 A 
ATOM     22  N   UNL     1      -3.146   6.392   4.585  0.00  0.00    -0.332 N 
ATOM     23  H   UNL     1      -2.220   6.320   4.954  0.00  0.00    +0.168 HD
ATOM     24  C   UNL     1      -4.130   5.418   4.636  0.00  0.00    +0.082 A 
ATOM     25  C   UNL     1      -5.243   5.958   4.011  0.00  0.00    +0.105 A 
ATOM     26  N   UNL     1      -4.919   7.203   3.604  0.00  0.00    -0.221 NA
BRANCH  25  27
ATOM     27  C   UNL     1      -6.546   5.292   3.825  0.00  0.00    +0.040 A 
ATOM     28  C   UNL     1      -7.805   5.834   3.850  0.00  0.00    +0.018 A 
ATOM     29  C   UNL     1      -8.886   5.005   3.643  0.00  0.00    +0.008 A 
ATOM     30  C   UNL     1      -8.674   3.681   3.434  0.00  0.00    +0.046 A 
ATOM     31  S   UNL     1      -6.894   3.568   3.517  0.00  0.00    -0.095 S 
ENDBRANCH  25  27
BRANCH  24  32
ATOM     32  C   UNL     1      -4.017   4.083   5.239  0.00  0.00    +0.038 A 
ATOM     33  C   UNL     1      -2.994   3.159   5.126  0.00  0.00    +0.017 A 
ATOM     34  C   UNL     1      -3.120   1.960   5.793  0.00  0.00    +0.008 A 
ATOM     35  C   UNL     1      -4.233   1.725   6.533  0.00  0.00    +0.046 A 
ATOM     36  S   UNL     1      -5.169   3.227   6.301  0.00  0.00    -0.095 S 
ENDBRANCH  24  32
ENDBRANCH  20  21
ENDBRANCH  19  20
ENDBRANCH   2  19
TORSDOF 8
