REMARK  Name = ZINC09726187
REMARK  6 active torsions:
REMARK  status: ('A' for Active; 'I' for Inactive)
REMARK    1  A    between atoms: C_2  and  C_3
REMARK    2  A    between atoms: C_3  and  N_4
REMARK    3  A    between atoms: C_8  and  S_27
REMARK    4  A    between atoms: N_13  and  C_14
REMARK    5  A    between atoms: C_14  and  C_16
REMARK    6  A    between atoms: S_27  and  N_30
REMARK                            x       y       z     vdW  Elec       q    Type
REMARK                         _______ _______ _______ _____ _____    ______ ____
ROOT
ATOM      1  N   UNL     1      -0.016   1.355   0.009  0.00  0.00    -0.310 N 
ATOM      2  C   UNL     1       1.170   2.065   0.002  0.00  0.00    +0.059 A 
ATOM      3  C   UNL     1       1.352   3.457   0.008  0.00  0.00    +0.029 A 
ATOM      4  C   UNL     1       2.615   4.000  -0.002  0.00  0.00    +0.030 A 
ATOM      5  C   UNL     1       3.742   3.196  -0.017  0.00  0.00    +0.106 A 
ATOM      6  C   UNL     1       3.592   1.821  -0.023  0.00  0.00    +0.045 A 
ATOM      7  C   UNL     1       2.330   1.276  -0.013  0.00  0.00    +0.041 A 
ATOM      8  S   UNL     1       1.695  -0.381  -0.016  0.00  0.00    -0.052 S 
ATOM      9  C   UNL     1       0.002  -0.004   0.002  0.00  0.00    +0.167 A 
ATOM     10  N   UNL     1      -1.031  -0.844   0.008  0.00  0.00    -0.153 NA
ENDROOT
BRANCH   5  11
ATOM     11  S   UNL     1       5.350   3.917  -0.029  0.00  0.00    +0.056 S 
ATOM     12  O   UNL     1       5.217   5.216   0.530  0.00  0.00    -0.153 OA
ATOM     13  O   UNL     1       6.236   2.943   0.508  0.00  0.00    -0.153 OA
BRANCH  11  14
ATOM     14  N   UNL     1       5.781   4.125  -1.614  0.00  0.00    -0.204 NA
ATOM     15  H   UNL     1       6.372   4.853  -1.864  0.00  0.00    +0.144 HD
ATOM     16  H   UNL     1       5.443   3.520  -2.292  0.00  0.00    +0.144 HD
ENDBRANCH  11  14
ENDBRANCH   5  11
BRANCH  10  17
ATOM     17  C   UNL     1      -0.821  -2.156  -0.001  0.00  0.00    +0.283 C 
ATOM     18  O   UNL     1       0.315  -2.590  -0.015  0.00  0.00    -0.269 OA
BRANCH  17  19
ATOM     19  C   UNL     1      -1.990  -3.106   0.006  0.00  0.00    +0.298 C 
ATOM     20  C   UNL     1      -2.782  -2.962  -1.301  0.00  0.00    +0.283 C 
ATOM     21  O   UNL     1      -3.875  -3.887  -1.267  0.00  0.00    -0.484 OA
ATOM     22  C   UNL     1      -3.590  -5.156  -0.866  0.00  0.00    +0.162 A 
ATOM     23  C   UNL     1      -4.488  -6.176  -1.146  0.00  0.00    +0.049 A 
ATOM     24  C   UNL     1      -4.214  -7.469  -0.742  0.00  0.00    +0.004 A 
ATOM     25  C   UNL     1      -3.046  -7.750  -0.059  0.00  0.00    +0.004 A 
ATOM     26  C   UNL     1      -2.146  -6.738   0.222  0.00  0.00    +0.049 A 
ATOM     27  C   UNL     1      -2.414  -5.439  -0.182  0.00  0.00    +0.163 A 
ATOM     28  O   UNL     1      -1.516  -4.454   0.097  0.00  0.00    -0.472 OA
ENDBRANCH  17  19
ENDBRANCH  10  17
BRANCH   1  29
ATOM     29  C   UNL     1      -1.296   2.069   0.019  0.00  0.00    +0.212 C 
BRANCH  29  31
ATOM     30  C   UNL     1      -3.125   0.619  -1.226  0.00  0.00    +0.005 C 
ATOM     31  C   UNL     1      -2.313   1.262  -0.673  0.00  0.00    -0.084 C 
ENDBRANCH  29  31
ENDBRANCH   1  29
TORSDOF 6
