REMARK  Name = ZINC64664396
REMARK  6 active torsions:
REMARK  status: ('A' for Active; 'I' for Inactive)
REMARK    1  A    between atoms: C_1  and  C_2
REMARK    2  A    between atoms: C_5  and  N_9
REMARK    3  A    between atoms: C_7  and  C_8
REMARK    4  A    between atoms: C_10  and  N_26
REMARK    5  A    between atoms: C_11  and  C_14
REMARK    6  A    between atoms: C_16  and  C_19
REMARK                            x       y       z     vdW  Elec       q    Type
REMARK                         _______ _______ _______ _____ _____    ______ ____
ROOT
ATOM      1  N   UNL     1       0.059  -4.173  -0.021  0.00  0.00    -0.198 N 
ATOM      2  C   UNL     1      -0.558  -4.991  -0.921  0.00  0.00    +0.150 A 
ATOM      3  C   UNL     1      -0.265  -6.287  -0.534  0.00  0.00    +0.159 A 
ATOM      4  N   UNL     1       0.505  -6.232   0.566  0.00  0.00    -0.125 NA
ATOM      5  N   UNL     1       0.720  -5.006   0.892  0.00  0.00    -0.058 NA
ENDROOT
BRANCH   1  10
ATOM      6  C   UNL     1      -0.018   1.503   0.010  0.00  0.00    +0.044 C 
ATOM      7  C   UNL     1       0.002  -0.004   0.002  0.00  0.00    -0.047 A 
ATOM      8  C   UNL     1       0.006  -0.688  -1.200  0.00  0.00    +0.006 A 
ATOM      9  C   UNL     1       0.025  -2.068  -1.211  0.00  0.00    +0.028 A 
ATOM     10  C   UNL     1       0.040  -2.771  -0.013  0.00  0.00    +0.069 A 
ATOM     11  C   UNL     1       0.037  -2.082   1.192  0.00  0.00    +0.031 A 
ATOM     12  C   UNL     1       0.023  -0.700   1.196  0.00  0.00    -0.046 A 
ATOM     13  C   UNL     1       0.025   0.048   2.504  0.00  0.00    +0.044 C 
ENDBRANCH   1  10
BRANCH   3  14
ATOM     14  C   UNL     1      -0.719  -7.516  -1.212  0.00  0.00    +0.132 A 
ATOM     15  N   UNL     1      -0.484  -8.782  -0.898  0.00  0.00    -0.237 NA
ATOM     16  C   UNL     1      -0.976  -9.770  -1.625  0.00  0.00    +0.080 A 
ATOM     17  C   UNL     1      -1.742  -9.481  -2.722  0.00  0.00    +0.075 A 
ATOM     18  S   UNL     1      -1.738  -7.694  -2.669  0.00  0.00    -0.073 S 
BRANCH  16  19
ATOM     19  C   UNL     1      -0.700 -11.180  -1.256  0.00  0.00    +0.019 A 
ATOM     20  C   UNL     1      -1.216 -12.220  -2.029  0.00  0.00    +0.011 A 
ATOM     21  C   UNL     1      -0.956 -13.529  -1.680  0.00  0.00    +0.001 A 
ATOM     22  C   UNL     1      -0.186 -13.812  -0.566  0.00  0.00    +0.001 A 
ATOM     23  C   UNL     1       0.328 -12.786   0.205  0.00  0.00    +0.020 A 
ATOM     24  C   UNL     1       0.080 -11.471  -0.138  0.00  0.00    +0.050 A 
ATOM     25 CL   UNL     1       0.733 -10.183   0.827  0.00  0.00    -0.083 Cl
ENDBRANCH  16  19
ENDBRANCH   3  14
BRANCH   2  26
ATOM     26  N   UNL     1      -1.326  -4.602  -2.008  0.00  0.00    -0.341 N 
ATOM     27  H   UNL     1      -1.469  -3.659  -2.189  0.00  0.00    +0.144 HD
ATOM     28  H   UNL     1      -1.721  -5.272  -2.588  0.00  0.00    +0.144 HD
ENDBRANCH   2  26
TORSDOF 4
