REMARK  Name = ZINC09455809
REMARK  5 active torsions:
REMARK  status: ('A' for Active; 'I' for Inactive)
REMARK    1  A    between atoms: C_3  and  C_7
REMARK    2  A    between atoms: C_13  and  C_14
REMARK    3  A    between atoms: C_17  and  O_21
REMARK    4  A    between atoms: O_21  and  C_22
REMARK    5  A    between atoms: C_22  and  C_23
REMARK                            x       y       z     vdW  Elec       q    Type
REMARK                         _______ _______ _______ _____ _____    ______ ____
ROOT
ATOM      1  C   UNL     1       4.287   2.953  -1.797  0.00  0.00    +0.131 C 
ATOM      2  N   UNL     1       5.174   2.240  -1.145  0.00  0.00    -0.164 NA
ATOM      3  N   UNL     1       6.499   2.619  -1.104  0.00  0.00    -0.152 N 
ATOM      4  C   UNL     1       7.549   1.882  -0.515  0.00  0.00    +0.153 C 
ATOM      5  N   UNL     1       7.495   0.593  -0.312  0.00  0.00    -0.283 NA
ATOM      6  C   UNL     1       8.726   2.720  -0.148  0.00  0.00    +0.081 C 
ATOM      7  C   UNL     1       9.507   2.433   0.949  0.00  0.00    +0.024 C 
ATOM      8  C   UNL     1       9.010   3.881  -1.028  0.00  0.00    +0.273 C 
ATOM      9  O   UNL     1      10.137   4.343  -1.113  0.00  0.00    -0.268 OA
ATOM     10  N   UNL     1       7.989   4.408  -1.732  0.00  0.00    -0.152 NA
ATOM     11  C   UNL     1       6.824   3.811  -1.717  0.00  0.00    +0.181 C 
ATOM     12  S   UNL     1       5.279   4.295  -2.439  0.00  0.00    -0.033 S 
ATOM     13  H   UNL     1       6.704   0.094  -0.570  0.00  0.00    +0.188 HD
ENDROOT
BRANCH   7  14
ATOM     14  C   UNL     1      10.534   3.382   1.384  0.00  0.00    -0.023 A 
ATOM     15  C   UNL     1      10.301   4.761   1.298  0.00  0.00    +0.011 A 
ATOM     16  C   UNL     1      11.261   5.644   1.705  0.00  0.00    +0.048 A 
ATOM     17  C   UNL     1      12.472   5.180   2.206  0.00  0.00    +0.139 A 
ATOM     18  C   UNL     1      12.716   3.812   2.297  0.00  0.00    +0.083 A 
ATOM     19  C   UNL     1      11.754   2.913   1.895  0.00  0.00    +0.031 A 
ATOM     20 CL   UNL     1      14.231   3.240   2.924  0.00  0.00    -0.080 Cl
BRANCH  17  21
ATOM     21  O   UNL     1      13.420   6.064   2.608  0.00  0.00    -0.486 OA
BRANCH  21  22
ATOM     22  C   UNL     1      13.105   7.452   2.487  0.00  0.00    +0.264 C 
BRANCH  22  23
ATOM     23  C   UNL     1      14.268   8.275   2.978  0.00  0.00    -0.010 A 
ATOM     24  C   UNL     1      14.344   8.640   4.309  0.00  0.00    +0.008 A 
ATOM     25  C   UNL     1      15.411   9.395   4.759  0.00  0.00    +0.020 A 
ATOM     26  C   UNL     1      16.402   9.786   3.877  0.00  0.00    +0.041 A 
ATOM     27  C   UNL     1      16.326   9.421   2.545  0.00  0.00    +0.020 A 
ATOM     28  C   UNL     1      15.262   8.661   2.097  0.00  0.00    +0.008 A 
ATOM     29 CL   UNL     1      17.742  10.735   4.442  0.00  0.00    -0.084 Cl
ENDBRANCH  22  23
ENDBRANCH  21  22
ENDBRANCH  17  21
ENDBRANCH   7  14
BRANCH   1  32
ATOM     30  C   UNL     1       0.697   3.313  -2.833  0.00  0.00    +0.020 A 
ATOM     31  C   UNL     1       2.047   3.588  -2.708  0.00  0.00    +0.013 A 
ATOM     32  C   UNL     1       2.838   2.707  -1.963  0.00  0.00    +0.027 A 
ATOM     33  C   UNL     1       2.237   1.591  -1.380  0.00  0.00    +0.121 A 
ATOM     34  N   UNL     1       0.947   1.371  -1.528  0.00  0.00    -0.263 NA
ATOM     35  C   UNL     1       0.177   2.185  -2.224  0.00  0.00    +0.111 A 
ENDBRANCH   1  32
TORSDOF 5
