REMARK  Name = ZINC02440665
REMARK  12 active torsions:
REMARK  status: ('A' for Active; 'I' for Inactive)
REMARK    1  A    between atoms: C_1  and  C_2
REMARK    2  A    between atoms: C_2  and  C_33
REMARK    3  A    between atoms: C_6  and  N_25
REMARK    4  A    between atoms: C_12  and  N_18
REMARK    5  A    between atoms: C_14  and  S_16
REMARK    6  A    between atoms: S_16  and  C_17
REMARK    7  A    between atoms: N_18  and  C_19
REMARK    8  A    between atoms: C_19  and  C_20
REMARK    9  A    between atoms: C_20  and  O_21
REMARK   10  A    between atoms: O_21  and  C_22
REMARK   11  A    between atoms: C_22  and  C_23
REMARK   12  A    between atoms: C_23  and  O_24
REMARK                            x       y       z     vdW  Elec       q    Type
REMARK                         _______ _______ _______ _____ _____    ______ ____
ROOT
ATOM      1  C   UNL     1       4.830  -2.942  -0.210  0.00  0.00    +0.041 C 
ATOM      2  C   UNL     1       3.557  -2.181   0.163  0.00  0.00    +0.068 C 
ATOM      3  C   UNL     1       3.720  -0.700  -0.187  0.00  0.00    +0.070 C 
ATOM      4  C   UNL     1       2.388  -0.006  -0.090  0.00  0.00    -0.024 A 
ATOM      5  C   UNL     1       1.216  -0.695  -0.076  0.00  0.00    +0.020 A 
ATOM      6  C   UNL     1       0.002  -0.004   0.002  0.00  0.00    +0.105 A 
ATOM      7  C   UNL     1       1.103   2.015   0.063  0.00  0.00    +0.089 A 
ATOM      8  C   UNL     1       2.368   1.408  -0.017  0.00  0.00    +0.036 A 
ATOM      9  C   UNL     1       3.524   2.324  -0.015  0.00  0.00    +0.094 A 
ATOM     10  C   UNL     1       3.224   3.688   0.070  0.00  0.00    +0.080 A 
ATOM     11  S   UNL     1       1.454   3.754   0.143  0.00  0.00    -0.066 S 
ATOM     12  C   UNL     1       4.230   4.643   0.081  0.00  0.00    +0.138 A 
ATOM     13  N   UNL     1       5.495   4.232   0.007  0.00  0.00    -0.206 NA
ATOM     14  C   UNL     1       5.768   2.936  -0.075  0.00  0.00    +0.190 A 
ATOM     15  N   UNL     1       4.836   2.006  -0.087  0.00  0.00    -0.221 NA
ATOM     16  C   UNL     1       1.188  -2.201  -0.136  0.00  0.00    +0.199 C 
ATOM     17  O   UNL     1       2.449  -2.701  -0.580  0.00  0.00    -0.369 OA
ATOM     18  C   UNL     1       3.287  -2.329   1.662  0.00  0.00    +0.041 C 
ATOM     19  N   UNL     1      -0.081   1.355   0.072  0.00  0.00    -0.337 N 
ATOM     20  H   UNL     1      -0.981   1.845   0.129  0.00  0.00    +0.168 HD
ENDROOT
BRANCH   6  21
ATOM     21  N   UNL     1      -1.194  -0.710   0.010  0.00  0.00    -0.312 N 
ATOM     22  C   UNL     1      -2.022  -0.356  -1.152  0.00  0.00    +0.134 C 
ATOM     23  C   UNL     1      -3.300  -1.198  -1.137  0.00  0.00    +0.178 C 
ATOM     24  O   UNL     1      -3.986  -0.990   0.101  0.00  0.00    -0.377 OA
ATOM     25  C   UNL     1      -3.209  -1.325   1.254  0.00  0.00    +0.178 C 
ATOM     26  C   UNL     1      -1.930  -0.484   1.262  0.00  0.00    +0.134 C 
ENDBRANCH   6  21
BRANCH  14  27
ATOM     27  S   UNL     1       7.455   2.437  -0.171  0.00  0.00    -0.089 S 
ATOM     28  C   UNL     1       8.265   4.055  -0.116  0.00  0.00    +0.093 C 
ENDBRANCH  14  27
BRANCH  12  29
ATOM     29  N   UNL     1       3.926   5.993   0.166  0.00  0.00    -0.326 N 
ATOM     30  H   UNL     1       3.001   6.280   0.219  0.00  0.00    +0.148 HD
BRANCH  29  31
ATOM     31  C   UNL     1       5.003   6.987   0.176  0.00  0.00    +0.131 C 
BRANCH  31  32
ATOM     32  C   UNL     1       4.401   8.390   0.277  0.00  0.00    +0.178 C 
BRANCH  32  33
ATOM     33  O   UNL     1       3.740   8.536   1.535  0.00  0.00    -0.376 OA
BRANCH  33  34
ATOM     34  C   UNL     1       3.139   9.818   1.731  0.00  0.00    +0.187 C 
BRANCH  34  35
ATOM     35  C   UNL     1       2.465   9.860   3.104  0.00  0.00    +0.184 C 
BRANCH  35  36
ATOM     36  O   UNL     1       3.457   9.747   4.126  0.00  0.00    -0.393 OA
ATOM     37  H   UNL     1       3.100   9.766   5.025  0.00  0.00    +0.209 HD
ENDBRANCH  35  36
ENDBRANCH  34  35
ENDBRANCH  33  34
ENDBRANCH  32  33
ENDBRANCH  31  32
ENDBRANCH  29  31
ENDBRANCH  12  29
TORSDOF 9
