REMARK  Name = ZINC21712573
REMARK  9 active torsions:
REMARK  status: ('A' for Active; 'I' for Inactive)
REMARK    1  A    between atoms: C_1  and  C_2
REMARK    2  A    between atoms: C_2  and  C_3
REMARK    3  A    between atoms: C_2  and  N_4
REMARK    4  A    between atoms: C_5  and  C_7
REMARK    5  A    between atoms: C_13  and  C_15
REMARK    6  A    between atoms: C_18  and  N_21
REMARK    7  A    between atoms: N_21  and  S_22
REMARK    8  A    between atoms: S_22  and  C_25
REMARK    9  A    between atoms: C_28  and  C_31
REMARK                            x       y       z     vdW  Elec       q    Type
REMARK                         _______ _______ _______ _____ _____    ______ ____
ROOT
ATOM      1  C   UNL     1       3.807  -0.888  -1.115  0.00  0.00    +0.037 A 
ATOM      2  C   UNL     1       4.568  -0.751   0.049  0.00  0.00    +0.015 A 
ATOM      3  C   UNL     1       5.756  -1.433   0.177  0.00  0.00    +0.025 A 
ATOM      4  C   UNL     1       6.206  -2.251  -0.856  0.00  0.00    +0.048 A 
ATOM      5  C   UNL     1       5.453  -2.385  -2.019  0.00  0.00    +0.025 A 
ATOM      6  C   UNL     1       4.261  -1.710  -2.151  0.00  0.00    +0.015 A 
ENDROOT
BRANCH   1  12
ATOM      7  C   UNL     1       0.790   1.310  -0.208  0.00  0.00    +0.162 C 
ATOM      8  C   UNL     1       0.538   1.789   1.237  0.00  0.00    +0.033 C 
ATOM      9  C   UNL     1       1.286   0.723   2.087  0.00  0.00    +0.021 C 
ATOM     10  C   UNL     1       2.511   0.413   1.191  0.00  0.00    +0.109 C 
ATOM     11  N   UNL     1       1.992   0.464  -0.188  0.00  0.00    -0.286 N 
ATOM     12  C   UNL     1       2.530  -0.163  -1.253  0.00  0.00    +0.247 C 
ATOM     13  O   UNL     1       1.962  -0.130  -2.328  0.00  0.00    -0.270 OA
BRANCH   7  15
ATOM     14  N   UNL     1      -1.603   1.092  -0.795  0.00  0.00    -0.311 N 
ATOM     15  C   UNL     1      -0.391   0.511  -0.697  0.00  0.00    +0.234 C 
ATOM     16  O   UNL     1      -0.249  -0.653  -1.006  0.00  0.00    -0.274 OA
ATOM     17  H   UNL     1      -1.732   2.148  -0.514  0.00  0.00    +0.149 HD
BRANCH  14  19
ATOM     18  C   UNL     1      -3.374  -0.449  -0.106  0.00  0.00    +0.027 C 
ATOM     19  C   UNL     1      -2.750   0.317  -1.275  0.00  0.00    +0.067 C 
ATOM     20  C   UNL     1      -3.790   1.265  -1.877  0.00  0.00    +0.027 C 
ENDBRANCH  14  19
ENDBRANCH   7  15
ENDBRANCH   1  12
BRANCH   4  21
ATOM     21  N   UNL     1       7.409  -2.935  -0.726  0.00  0.00    -0.216 N 
ATOM     22  H   UNL     1       7.482  -3.795  -0.044  0.00  0.00    +0.174 HD
BRANCH  21  23
ATOM     23  S   UNL     1       8.734  -2.454  -1.596  0.00  0.00    +0.072 S 
ATOM     24  O   UNL     1       9.795  -3.327  -1.235  0.00  0.00    -0.150 OA
ATOM     25  O   UNL     1       8.301  -2.295  -2.940  0.00  0.00    -0.150 OA
BRANCH  23  26
ATOM     26  C   UNL     1       9.182  -0.851  -1.018  0.00  0.00    +0.109 A 
ATOM     27  C   UNL     1       8.575   0.271  -1.550  0.00  0.00    +0.029 A 
ATOM     28  C   UNL     1       8.923   1.528  -1.094  0.00  0.00    +0.006 A 
ATOM     29  C   UNL     1       9.887   1.665  -0.112  0.00  0.00    -0.044 A 
ATOM     30  C   UNL     1      10.498   0.543   0.417  0.00  0.00    +0.006 A 
ATOM     31  C   UNL     1      10.146  -0.714  -0.036  0.00  0.00    +0.029 A 
BRANCH  29  32
ATOM     32  C   UNL     1      10.270   3.036   0.382  0.00  0.00    +0.019 C 
ATOM     33  C   UNL     1       9.040   3.728   0.972  0.00  0.00    +0.008 C 
ATOM     34  C   UNL     1       9.429   5.120   1.473  0.00  0.00    +0.001 C 
ATOM     35  C   UNL     1       9.971   5.949   0.307  0.00  0.00    +0.000 C 
ATOM     36  C   UNL     1      11.201   5.257  -0.283  0.00  0.00    +0.001 C 
ATOM     37  C   UNL     1      10.812   3.865  -0.784  0.00  0.00    +0.008 C 
ENDBRANCH  29  32
ENDBRANCH  23  26
ENDBRANCH  21  23
ENDBRANCH   4  21
TORSDOF 7
