REMARK  Name = ZINC36505024
REMARK  11 active torsions:
REMARK  status: ('A' for Active; 'I' for Inactive)
REMARK    1  A    between atoms: C_1  and  C_2
REMARK    2  A    between atoms: C_2  and  C_4
REMARK    3  A    between atoms: N_6  and  C_7
REMARK    4  A    between atoms: N_6  and  C_13
REMARK    5  A    between atoms: C_7  and  C_8
REMARK    6  A    between atoms: C_13  and  C_15
REMARK    7  A    between atoms: C_13  and  C_24
REMARK    8  A    between atoms: C_16  and  O_23
REMARK    9  A    between atoms: C_18  and  O_22
REMARK   10  A    between atoms: C_20  and  O_21
REMARK   11  A    between atoms: N_26  and  C_27
REMARK                            x       y       z     vdW  Elec       q    Type
REMARK                         _______ _______ _______ _____ _____    ______ ____
ROOT
ATOM      1  C   UNL     1      -0.348   1.452  -2.829  0.00  0.00    +0.200 C 
ENDROOT
BRANCH   1   2
ATOM      2  C   UNL     1       0.694   2.151  -1.995  0.00  0.00    +0.065 A 
ATOM      3  C   UNL     1       1.146   1.570  -0.820  0.00  0.00    +0.129 A 
ATOM      4  C   UNL     1       2.105   2.214  -0.053  0.00  0.00    +0.091 A 
ATOM      5  C   UNL     1       2.612   3.439  -0.460  0.00  0.00    +0.124 A 
ATOM      6  C   UNL     1       2.160   4.019  -1.635  0.00  0.00    +0.091 A 
ATOM      7  C   UNL     1       1.204   3.374  -2.405  0.00  0.00    +0.129 A 
BRANCH   7   8
ATOM      8  O   UNL     1       0.765   3.941  -3.559  0.00  0.00    -0.506 OA
ATOM      9  H   UNL     1       0.000   4.521  -3.446  0.00  0.00    +0.292 HD
ENDBRANCH   7   8
BRANCH   5  10
ATOM     10  O   UNL     1       3.551   4.070   0.293  0.00  0.00    -0.507 OA
ATOM     11  H   UNL     1       4.461   3.839   0.061  0.00  0.00    +0.292 HD
ENDBRANCH   5  10
BRANCH   3  12
ATOM     12  O   UNL     1       0.650   0.370  -0.421  0.00  0.00    -0.506 OA
ATOM     13  H   UNL     1       1.202  -0.386  -0.666  0.00  0.00    +0.292 HD
ENDBRANCH   3  12
ENDBRANCH   1   2
BRANCH   1  14
ATOM     14  C   UNL     1      -1.682   2.125  -2.635  0.00  0.00    +0.239 C 
ATOM     15  O   UNL     1      -2.404   1.788  -1.720  0.00  0.00    -0.273 OA
ATOM     16  N   UNL     1      -2.074   3.101  -3.478  0.00  0.00    -0.311 N 
ATOM     17  H   UNL     1      -1.497   3.370  -4.210  0.00  0.00    +0.149 HD
BRANCH  16  18
ATOM     18  C   UNL     1      -3.371   3.756  -3.289  0.00  0.00    +0.073 C 
ATOM     19  C   UNL     1      -4.463   2.930  -3.972  0.00  0.00    +0.022 C 
ATOM     20  C   UNL     1      -5.817   3.613  -3.774  0.00  0.00    +0.002 C 
ATOM     21  C   UNL     1      -5.777   5.013  -4.390  0.00  0.00    +0.000 C 
ATOM     22  C   UNL     1      -4.684   5.839  -3.708  0.00  0.00    +0.002 C 
ATOM     23  C   UNL     1      -3.330   5.155  -3.905  0.00  0.00    +0.022 C 
ENDBRANCH  16  18
ENDBRANCH   1  14
BRANCH   1  26
ATOM     24  C   UNL     1       0.652  -0.734  -2.433  0.00  0.00    +0.243 C 
ATOM     25  O   UNL     1       0.558  -1.917  -2.165  0.00  0.00    -0.270 OA
ATOM     26  N   UNL     1      -0.444   0.050  -2.416  0.00  0.00    -0.275 N 
BRANCH  24  28
ATOM     27  C   UNL     1       2.131   0.627  -4.050  0.00  0.00    +0.048 C 
ATOM     28  C   UNL     1       1.962  -0.160  -2.775  0.00  0.00    +0.004 C 
ATOM     29  C   UNL     1       2.998  -0.334  -1.960  0.00  0.00    +0.017 C 
ENDBRANCH  24  28
BRANCH  26  30
ATOM     30  C   UNL     1      -1.731  -0.501  -1.984  0.00  0.00    +0.183 C 
BRANCH  30  31
ATOM     31  C   UNL     1      -1.677  -0.809  -0.510  0.00  0.00    +0.122 A 
ATOM     32  C   UNL     1      -2.014   0.033   0.483  0.00  0.00    +0.046 A 
ATOM     33  C   UNL     1      -1.812  -0.663   1.697  0.00  0.00    +0.041 A 
ATOM     34  C   UNL     1      -1.363  -1.889   1.373  0.00  0.00    +0.195 A 
ATOM     35  O   UNL     1      -1.289  -1.974   0.035  0.00  0.00    -0.466 OA
ENDBRANCH  30  31
ENDBRANCH  26  30
ENDBRANCH   1  26
TORSDOF 10
