REMARK  Name = ZINC09443573
REMARK  10 active torsions:
REMARK  status: ('A' for Active; 'I' for Inactive)
REMARK    1  A    between atoms: C_1  and  C_2
REMARK    2  A    between atoms: C_3  and  C_28
REMARK    3  A    between atoms: C_4  and  C_10
REMARK    4  A    between atoms: C_13  and  O_16
REMARK    5  A    between atoms: O_16  and  C_17
REMARK    6  A    between atoms: C_17  and  C_18
REMARK    7  A    between atoms: C_21  and  C_24
REMARK    8  A    between atoms: C_24  and  O_26
REMARK    9  A    between atoms: O_26  and  C_27
REMARK   10  A    between atoms: C_28  and  C_30
REMARK                            x       y       z     vdW  Elec       q    Type
REMARK                         _______ _______ _______ _____ _____    ______ ____
ROOT
ATOM      1  C   UNL     1       0.845  -1.847  -0.130  0.00  0.00    +0.061 C 
ATOM      2  C   UNL     1       1.178  -0.388   0.047  0.00  0.00    +0.018 C 
ATOM      3  C   UNL     1       2.474  -0.003   0.091  0.00  0.00    +0.041 C 
ATOM      4  C   UNL     1       2.763   1.474   0.270  0.00  0.00    +0.140 C 
ATOM      5  N   UNL     1       1.602   2.373   0.382  0.00  0.00    -0.288 N 
ATOM      6  C   UNL     1       0.367   1.837   0.319  0.00  0.00    +0.304 C 
ATOM      7  O   UNL     1      -0.597   2.572   0.405  0.00  0.00    -0.252 OA
ATOM      8  N   UNL     1       0.168   0.523   0.159  0.00  0.00    -0.273 N 
ATOM      9  H   UNL     1       1.724   3.328   0.498  0.00  0.00    +0.151 HD
ATOM     10  H   UNL     1      -0.746   0.200   0.121  0.00  0.00    +0.156 HD
ENDROOT
BRANCH   4  11
ATOM     11  C   UNL     1       3.598   1.636   1.515  0.00  0.00    -0.022 A 
ATOM     12  C   UNL     1       3.011   1.505   2.760  0.00  0.00    +0.009 A 
ATOM     13  C   UNL     1       3.775   1.648   3.903  0.00  0.00    +0.046 A 
ATOM     14  C   UNL     1       5.128   1.934   3.800  0.00  0.00    +0.121 A 
ATOM     15  C   UNL     1       5.713   2.071   2.549  0.00  0.00    +0.046 A 
ATOM     16  C   UNL     1       4.946   1.921   1.410  0.00  0.00    +0.009 A 
BRANCH  14  17
ATOM     17  O   UNL     1       5.880   2.081   4.922  0.00  0.00    -0.487 OA
BRANCH  17  18
ATOM     18  C   UNL     1       5.212   1.927   6.176  0.00  0.00    +0.264 C 
BRANCH  18  19
ATOM     19  C   UNL     1       6.198   2.124   7.298  0.00  0.00    -0.010 A 
ATOM     20  C   UNL     1       6.892   1.038   7.803  0.00  0.00    +0.008 A 
ATOM     21  C   UNL     1       7.800   1.212   8.827  0.00  0.00    +0.015 A 
ATOM     22  C   UNL     1       8.009   2.485   9.362  0.00  0.00    +0.059 A 
ATOM     23  C   UNL     1       7.301   3.575   8.851  0.00  0.00    +0.015 A 
ATOM     24  C   UNL     1       6.401   3.388   7.823  0.00  0.00    +0.008 A 
BRANCH  22  25
ATOM     25  C   UNL     1       8.976   2.677  10.462  0.00  0.00    +0.339 C 
ATOM     26  O   UNL     1       9.156   3.786  10.925  0.00  0.00    -0.245 OA
BRANCH  25  27
ATOM     27  O   UNL     1       9.657   1.624  10.953  0.00  0.00    -0.464 OA
ATOM     28  C   UNL     1      10.590   1.887  12.033  0.00  0.00    +0.280 C 
ENDBRANCH  25  27
ENDBRANCH  22  25
ENDBRANCH  18  19
ENDBRANCH  17  18
ENDBRANCH  14  17
ENDBRANCH   4  11
BRANCH   3  29
ATOM     29  C   UNL     1       3.522  -0.945  -0.025  0.00  0.00    +0.193 C 
ATOM     30  O   UNL     1       3.680  -1.790   0.837  0.00  0.00    -0.287 OA
BRANCH  29  31
ATOM     31  C   UNL     1       4.427  -0.904  -1.196  0.00  0.00    +0.022 A 
ATOM     32  C   UNL     1       4.175  -0.020  -2.245  0.00  0.00    +0.012 A 
ATOM     33  C   UNL     1       5.025   0.017  -3.332  0.00  0.00    +0.001 A 
ATOM     34  C   UNL     1       6.119  -0.829  -3.386  0.00  0.00    +0.000 A 
ATOM     35  C   UNL     1       6.372  -1.711  -2.351  0.00  0.00    +0.001 A 
ATOM     36  C   UNL     1       5.532  -1.754  -1.257  0.00  0.00    +0.012 A 
ENDBRANCH  29  31
ENDBRANCH   3  29
TORSDOF 8
