REMARK  Name = ZINC39691223
REMARK  9 active torsions:
REMARK  status: ('A' for Active; 'I' for Inactive)
REMARK    1  A    between atoms: C_1  and  C_2
REMARK    2  A    between atoms: C_7  and  C_8
REMARK    3  A    between atoms: C_8  and  C_9
REMARK    4  A    between atoms: C_9  and  N_10
REMARK    5  A    between atoms: C_11  and  C_13
REMARK    6  A    between atoms: C_24  and  C_26
REMARK    7  A    between atoms: C_27  and  C_37
REMARK    8  A    between atoms: C_30  and  C_31
REMARK    9  A    between atoms: C_33  and  C_36
REMARK                            x       y       z     vdW  Elec       q    Type
REMARK                         _______ _______ _______ _____ _____    ______ ____
ROOT
ATOM      1  C   UNL     1      -2.571   2.266   6.027  0.00  0.00    +0.100 C 
ATOM      2  C   UNL     1      -1.717   3.548   5.913  0.00  0.00    +0.121 C 
ATOM      3  N   UNL     1      -2.690   4.619   5.590  0.00  0.00    -0.296 N 
ATOM      4  C   UNL     1      -3.878   4.299   6.419  0.00  0.00    +0.115 C 
ATOM      5  C   UNL     1      -3.988   2.763   6.362  0.00  0.00    -0.004 C 
ATOM      6  C   UNL     1      -4.433   2.215   7.715  0.00  0.00    -0.010 C 
ATOM      7  C   UNL     1      -5.866   2.675   8.000  0.00  0.00    -0.082 C 
ATOM      8  N   UNL     1      -6.757   2.194   6.937  0.00  0.00    +0.379 N 
ATOM      9  C   UNL     1      -6.378   2.799   5.654  0.00  0.00    -0.082 C 
ATOM     10  C   UNL     1      -4.967   2.344   5.270  0.00  0.00    -0.010 C 
ATOM     11  C   UNL     1      -2.531   5.650   4.737  0.00  0.00    +0.252 C 
ATOM     12  O   UNL     1      -3.431   6.453   4.580  0.00  0.00    -0.270 OA
ATOM     13  H   UNL     1      -6.685   1.190   6.868  0.00  0.00    -0.086 HD
ATOM     14  H   UNL     1      -7.708   2.446   7.158  0.00  0.00    -0.086 HD
ENDROOT
BRANCH  11  15
ATOM     15  C   UNL     1      -1.268   5.804   3.996  0.00  0.00    +0.108 A 
ATOM     16  C   UNL     1      -0.970   5.259   2.722  0.00  0.00    +0.093 A 
ATOM     17  N   UNL     1       0.239   5.613   2.403  0.00  0.00    -0.082 NA
ATOM     18  O   UNL     1       0.778   6.399   3.449  0.00  0.00    -0.352 OA
ATOM     19  C   UNL     1      -0.151   6.513   4.412  0.00  0.00    +0.201 A 
ATOM     20  C   UNL     1      -1.895   4.416   1.882  0.00  0.00    +0.070 C 
BRANCH  19  21
ATOM     21  C   UNL     1      -0.008   7.256   5.682  0.00  0.00    +0.152 A 
ATOM     22  C   UNL     1       1.133   7.985   6.101  0.00  0.00    +0.079 A 
ATOM     23  C   UNL     1       0.869   8.515   7.308  0.00  0.00    +0.135 A 
ATOM     24  O   UNL     1      -0.374   8.156   7.663  0.00  0.00    -0.359 OA
ATOM     25  N   UNL     1      -0.918   7.364   6.623  0.00  0.00    -0.075 NA
ATOM     26  C   UNL     1       1.809   9.366   8.123  0.00  0.00    +0.089 C 
ENDBRANCH  19  21
ENDBRANCH  11  15
BRANCH   1  28
ATOM     27  N   UNL     1      -2.819   0.194   4.698  0.00  0.00    -0.315 N 
ATOM     28  C   UNL     1      -2.574   1.519   4.718  0.00  0.00    +0.218 C 
ATOM     29  O   UNL     1      -2.355   2.111   3.682  0.00  0.00    -0.275 OA
ATOM     30  H   UNL     1      -2.994  -0.279   5.526  0.00  0.00    +0.149 HD
BRANCH  27  31
ATOM     31  C   UNL     1      -2.821  -0.531   3.425  0.00  0.00    +0.109 C 
BRANCH  31  32
ATOM     32  C   UNL     1      -3.123  -2.009   3.681  0.00  0.00    +0.054 C 
BRANCH  32  39
ATOM     33  C   UNL     1      -0.642  -2.994   2.575  0.00  0.00    +0.044 C 
ATOM     34  C   UNL     1      -1.939  -3.227   1.843  0.00  0.00    -0.047 A 
ATOM     35  C   UNL     1      -1.942  -3.917   0.645  0.00  0.00    +0.003 A 
ATOM     36  C   UNL     1      -3.131  -4.130  -0.027  0.00  0.00    +0.000 A 
ATOM     37  C   UNL     1      -4.317  -3.655   0.500  0.00  0.00    +0.000 A 
ATOM     38  C   UNL     1      -4.314  -2.966   1.698  0.00  0.00    +0.004 A 
ATOM     39  C   UNL     1      -3.126  -2.756   2.372  0.00  0.00    -0.043 A 
ENDBRANCH  32  39
ENDBRANCH  31  32
ENDBRANCH  27  31
ENDBRANCH   1  28
TORSDOF 6
