REMARK  Name = ZINC16671985
REMARK  1 active torsions:
REMARK  status: ('A' for Active; 'I' for Inactive)
REMARK    1  A    between atoms: C_7  and  C_9
REMARK                            x       y       z     vdW  Elec       q    Type
REMARK                         _______ _______ _______ _____ _____    ______ ____
ROOT
ATOM      1  C   UNL     1       3.865   6.682  -2.552  0.00  0.00    +0.120 A 
ATOM      2  C   UNL     1       2.711   6.981  -3.197  0.00  0.00    +0.068 A 
ATOM      3  S   UNL     1       1.663   5.645  -2.638  0.00  0.00    -0.061 S 
ATOM      4  C   UNL     1       2.829   4.853  -1.624  0.00  0.00    +0.164 A 
ATOM      5  N   UNL     1       3.894   5.616  -1.776  0.00  0.00    -0.233 NA
ATOM      6  N   UNL     1       2.681   3.704  -0.855  0.00  0.00    -0.264 N 
ATOM      7  C   UNL     1       1.499   3.057  -0.832  0.00  0.00    +0.222 C 
ATOM      8  O   UNL     1       0.565   3.477  -1.481  0.00  0.00    -0.275 OA
ATOM      9  H   UNL     1       3.428   3.368  -0.336  0.00  0.00    +0.157 HD
ENDROOT
BRANCH   7  10
ATOM     10  C   UNL     1       1.338   1.817  -0.001  0.00  0.00    +0.082 C 
ATOM     11  C   UNL     1       0.432   1.858   1.231  0.00  0.00    +0.005 C 
ATOM     12  C   UNL     1      -0.013   1.103   0.008  0.00  0.00    +0.005 C 
ATOM     13  C   UNL     1      -1.214   1.731  -0.639  0.00  0.00    +0.008 C 
ATOM     14  C   UNL     1      -2.596   1.328  -0.163  0.00  0.00    +0.027 C 
ATOM     15  C   UNL     1      -2.371   0.692   1.222  0.00  0.00    -0.031 C 
ATOM     16  C   UNL     1      -1.980   1.391   2.296  0.00  0.00    -0.031 C 
ATOM     17  C   UNL     1      -1.715   2.907   2.264  0.00  0.00    +0.027 C 
ATOM     18  C   UNL     1      -0.418   3.068   1.498  0.00  0.00    +0.008 C 
ENDBRANCH   7  10
TORSDOF 1
