REMARK  Name = ZINC10002564
REMARK  9 active torsions:
REMARK  status: ('A' for Active; 'I' for Inactive)
REMARK    1  A    between atoms: C_1  and  C_2
REMARK    2  A    between atoms: C_2  and  C_3
REMARK    3  A    between atoms: C_2  and  C_4
REMARK    4  A    between atoms: C_4  and  C_6
REMARK    5  A    between atoms: C_4  and  N_20
REMARK    6  A    between atoms: N_8  and  N_9
REMARK    7  A    between atoms: C_10  and  C_11
REMARK    8  A    between atoms: C_14  and  O_18
REMARK    9  A    between atoms: C_21  and  C_23
REMARK                            x       y       z     vdW  Elec       q    Type
REMARK                         _______ _______ _______ _____ _____    ______ ____
ROOT
ATOM      1  C   UNL     1       3.834   1.879  -0.299  0.00  0.00    +0.253 C 
ATOM      2  O   UNL     1       3.549   2.966  -0.756  0.00  0.00    -0.272 OA
ATOM      3  N   UNL     1       5.111   1.448  -0.333  0.00  0.00    -0.205 N 
ATOM      4  H   UNL     1       5.353   0.612   0.096  0.00  0.00    +0.177 HD
ENDROOT
BRANCH   3   5
ATOM      5  N   UNL     1       6.089   2.207  -0.989  0.00  0.00    -0.188 NA
ATOM      6  C   UNL     1       7.318   1.792  -1.022  0.00  0.00    +0.138 C 
BRANCH   6   7
ATOM      7  C   UNL     1       8.348   2.591  -1.712  0.00  0.00    -0.003 A 
ATOM      8  C   UNL     1       8.001   3.792  -2.336  0.00  0.00    +0.028 A 
ATOM      9  C   UNL     1       8.968   4.539  -2.975  0.00  0.00    +0.061 A 
ATOM     10  C   UNL     1      10.283   4.093  -3.010  0.00  0.00    +0.145 A 
ATOM     11  C   UNL     1      10.632   2.896  -2.395  0.00  0.00    +0.061 A 
ATOM     12  C   UNL     1       9.672   2.146  -1.749  0.00  0.00    +0.028 A 
ATOM     13 BR   UNL     1      12.424   2.296  -2.445  0.00  0.00    -0.046 Br
ATOM     14 BR   UNL     1       8.501   6.168  -3.814  0.00  0.00    -0.046 Br
BRANCH  10  15
ATOM     15  O   UNL     1      11.232   4.828  -3.646  0.00  0.00    -0.505 OA
ATOM     16  H   UNL     1      11.339   4.607  -4.581  0.00  0.00    +0.292 HD
ENDBRANCH  10  15
ENDBRANCH   6   7
ENDBRANCH   3   5
BRANCH   1  17
ATOM     17  C   UNL     1       2.762   1.010   0.306  0.00  0.00    +0.163 C 
BRANCH  17  18
ATOM     18  N   UNL     1       1.447   1.467  -0.151  0.00  0.00    -0.300 N 
ATOM     19  C   UNL     1       0.408   0.609  -0.181  0.00  0.00    +0.247 C 
ATOM     20  O   UNL     1       0.562  -0.544   0.172  0.00  0.00    -0.270 OA
ATOM     21  H   UNL     1       1.325   2.388  -0.432  0.00  0.00    +0.150 HD
BRANCH  19  22
ATOM     22  C   UNL     1      -0.915   1.069  -0.647  0.00  0.00    +0.072 A 
ATOM     23  C   UNL     1      -1.097   2.394  -1.048  0.00  0.00    +0.016 A 
ATOM     24  C   UNL     1      -2.334   2.815  -1.487  0.00  0.00    +0.001 A 
ATOM     25  C   UNL     1      -3.400   1.931  -1.522  0.00  0.00    +0.003 A 
ATOM     26  C   UNL     1      -3.231   0.619  -1.123  0.00  0.00    +0.039 A 
ATOM     27  C   UNL     1      -1.994   0.180  -0.685  0.00  0.00    +0.135 A 
ATOM     28  F   UNL     1      -1.830  -1.103  -0.294  0.00  0.00    -0.205 F 
ENDBRANCH  19  22
ENDBRANCH  17  18
BRANCH  17  30
ATOM     29  C   UNL     1       2.505   2.531   2.272  0.00  0.00    +0.009 C 
ATOM     30  C   UNL     1       2.832   1.102   1.832  0.00  0.00    +0.012 C 
ATOM     31  C   UNL     1       1.819   0.135   2.448  0.00  0.00    +0.009 C 
ENDBRANCH  17  30
ENDBRANCH   1  17
TORSDOF 7
