REMARK  Name = ZINC53795624
REMARK  8 active torsions:
REMARK  status: ('A' for Active; 'I' for Inactive)
REMARK    1  A    between atoms: C_1  and  C_2
REMARK    2  A    between atoms: C_6  and  C_8
REMARK    3  A    between atoms: C_8  and  C_14
REMARK    4  A    between atoms: C_14  and  N_15
REMARK    5  A    between atoms: C_16  and  C_18
REMARK    6  A    between atoms: C_18  and  S_19
REMARK    7  A    between atoms: S_19  and  C_20
REMARK    8  A    between atoms: N_24  and  C_25
REMARK                            x       y       z     vdW  Elec       q    Type
REMARK                         _______ _______ _______ _____ _____    ______ ____
ROOT
ATOM      1  N   UNL     1      -1.384  -0.883   3.176  0.00  0.00    -0.314 N 
ATOM      2  C   UNL     1      -2.229  -0.288   4.041  0.00  0.00    +0.223 C 
ATOM      3  O   UNL     1      -3.077  -0.944   4.609  0.00  0.00    -0.275 OA
ATOM      4  H   UNL     1      -0.707  -0.359   2.721  0.00  0.00    +0.149 HD
ENDROOT
BRANCH   1   5
ATOM      5  C   UNL     1      -1.489  -2.322   2.923  0.00  0.00    +0.115 C 
BRANCH   5   6
ATOM      6  C   UNL     1      -0.352  -2.761   1.997  0.00  0.00    +0.011 C 
ATOM      7  C   UNL     1       0.992  -2.481   2.672  0.00  0.00    +0.013 C 
ATOM      8  C   UNL     1       1.075  -3.260   3.987  0.00  0.00    +0.001 C 
ATOM      9  C   UNL     1       0.950  -4.758   3.701  0.00  0.00    +0.000 C 
ATOM     10  C   UNL     1      -0.394  -5.038   3.026  0.00  0.00    +0.001 C 
ATOM     11  C   UNL     1      -0.477  -4.259   1.712  0.00  0.00    +0.013 C 
BRANCH   6  17
ATOM     12  C   UNL     1       1.635   0.489  -1.247  0.00  0.00    +0.044 C 
ATOM     13  C   UNL     1       0.516  -0.439  -0.849  0.00  0.00    -0.050 A 
ATOM     14  C   UNL     1      -0.585  -0.586  -1.672  0.00  0.00    +0.003 A 
ATOM     15  C   UNL     1      -1.611  -1.438  -1.307  0.00  0.00    +0.001 A 
ATOM     16  C   UNL     1      -1.536  -2.142  -0.119  0.00  0.00    +0.004 A 
ATOM     17  C   UNL     1      -0.434  -1.994   0.703  0.00  0.00    -0.039 A 
ATOM     18  C   UNL     1       0.594  -1.146   0.336  0.00  0.00    +0.007 A 
ENDBRANCH   6  17
ENDBRANCH   5   6
ENDBRANCH   1   5
BRANCH   2  19
ATOM     19  C   UNL     1      -2.122   1.193   4.301  0.00  0.00    +0.173 C 
BRANCH  19  20
ATOM     20  S   UNL     1      -3.387   1.689   5.502  0.00  0.00    -0.077 S 
BRANCH  20  21
ATOM     21  C   UNL     1      -3.133   3.422   5.698  0.00  0.00    +0.194 A 
ATOM     22  N   UNL     1      -2.225   4.141   5.085  0.00  0.00    -0.121 NA
ATOM     23  N   UNL     1      -2.360   5.467   5.517  0.00  0.00    -0.113 NA
ATOM     24  C   UNL     1      -3.345   5.514   6.380  0.00  0.00    +0.215 A 
ATOM     25  N   UNL     1      -3.852   4.253   6.511  0.00  0.00    -0.288 N 
ATOM     26  N   UNL     1      -3.797   6.648   7.042  0.00  0.00    -0.328 N 
ATOM     27  H   UNL     1      -3.327   7.490   6.938  0.00  0.00    +0.145 HD
ATOM     28  H   UNL     1      -4.583   6.599   7.608  0.00  0.00    +0.145 HD
BRANCH  25  29
ATOM     29  C   UNL     1      -4.969   3.859   7.373  0.00  0.00    +0.093 C 
ATOM     30  C   UNL     1      -5.115   2.372   7.705  0.00  0.00    +0.027 C 
ATOM     31  C   UNL     1      -6.097   3.041   6.740  0.00  0.00    +0.027 C 
ENDBRANCH  25  29
ENDBRANCH  20  21
ENDBRANCH  19  20
ENDBRANCH   2  19
TORSDOF 7
