REMARK  Name = ZINC65265984
REMARK  5 active torsions:
REMARK  status: ('A' for Active; 'I' for Inactive)
REMARK    1  A    between atoms: C_1  and  C_2
REMARK    2  A    between atoms: C_2  and  C_3
REMARK    3  A    between atoms: C_2  and  C_4
REMARK    4  A    between atoms: C_2  and  N_5
REMARK    5  A    between atoms: C_21  and  C_23
REMARK                            x       y       z     vdW  Elec       q    Type
REMARK                         _______ _______ _______ _____ _____    ______ ____
ROOT
ATOM      1  N   UNL     1       0.195  -0.914  -1.022  0.00  0.00    -0.370 N 
ATOM      2  C   UNL     1       1.417  -1.320  -1.144  0.00  0.00    +0.095 C 
ATOM      3  N   UNL     1       2.384  -0.985  -0.227  0.00  0.00    -0.303 N 
ATOM      4  C   UNL     1       2.602  -1.827   0.859  0.00  0.00    +0.037 A 
ATOM      5  C   UNL     1       2.739  -1.294   2.133  0.00  0.00    +0.023 A 
ATOM      6  C   UNL     1       2.969  -2.124   3.212  0.00  0.00    +0.002 A 
ATOM      7  C   UNL     1       3.063  -3.490   3.010  0.00  0.00    +0.000 A 
ATOM      8  C   UNL     1       2.921  -4.019   1.746  0.00  0.00    +0.007 A 
ATOM      9  C   UNL     1       2.681  -3.197   0.648  0.00  0.00    -0.012 A 
ATOM     10  C   UNL     1       2.505  -3.877  -0.685  0.00  0.00    +0.119 C 
ATOM     11  N   UNL     1       2.950  -3.043  -1.810  0.00  0.00    -0.299 NA
ATOM     12  C   UNL     1       1.849  -2.180  -2.282  0.00  0.00    +0.091 C 
ATOM     13  C   UNL     1       2.301  -1.349  -3.494  0.00  0.00    +0.050 C 
ATOM     14  C   UNL     1       2.071  -2.316  -4.678  0.00  0.00    +0.110 C 
ATOM     15  N   UNL     1       1.098  -3.327  -4.234  0.00  0.00    -0.294 N 
ATOM     16  C   UNL     1       0.696  -3.023  -2.846  0.00  0.00    +0.138 C 
ATOM     17  C   UNL     1       0.647  -4.360  -4.973  0.00  0.00    +0.265 C 
ATOM     18  O   UNL     1      -0.161  -5.136  -4.503  0.00  0.00    -0.268 OA
ATOM     19  H   UNL     1      -0.494  -1.269  -1.606  0.00  0.00    +0.161 HD
ATOM     20  H   UNL     1       3.759  -2.496  -1.557  0.00  0.00    +0.123 HD
ATOM     21  H   UNL     1       2.907  -0.175  -0.336  0.00  0.00    +0.153 HD
ENDROOT
BRANCH  17  22
ATOM     22  C   UNL     1       1.136  -4.548  -6.359  0.00  0.00    +0.126 A 
ATOM     23  C   UNL     1       0.662  -5.614  -7.120  0.00  0.00    +0.033 A 
ATOM     24  C   UNL     1       1.129  -5.778  -8.415  0.00  0.00    +0.004 A 
ATOM     25  C   UNL     1       2.054  -4.869  -8.903  0.00  0.00    +0.020 A 
ATOM     26  C   UNL     1       2.482  -3.831  -8.090  0.00  0.00    +0.111 A 
ATOM     27  N   UNL     1       2.018  -3.696  -6.867  0.00  0.00    -0.250 NA
ENDBRANCH  17  22
BRANCH   1  29
ATOM     28  C   UNL     1       0.765   1.300  -0.154  0.00  0.00    +0.033 C 
ATOM     29  C   UNL     1      -0.148   0.082  -0.004  0.00  0.00    +0.031 C 
ATOM     30  C   UNL     1       0.037  -0.527   1.387  0.00  0.00    +0.033 C 
ATOM     31  C   UNL     1      -1.605   0.512  -0.183  0.00  0.00    +0.033 C 
ENDBRANCH   1  29
TORSDOF 2
