REMARK  Name = ZINC60041160
REMARK  11 active torsions:
REMARK  status: ('A' for Active; 'I' for Inactive)
REMARK    1  A    between atoms: C_1  and  C_2
REMARK    2  A    between atoms: C_2  and  C_3
REMARK    3  A    between atoms: C_3  and  C_4
REMARK    4  A    between atoms: C_4  and  N_5
REMARK    5  A    between atoms: C_6  and  C_8
REMARK    6  A    between atoms: C_12  and  C_33
REMARK    7  A    between atoms: N_14  and  C_16
REMARK    8  A    between atoms: C_16  and  C_17
REMARK    9  A    between atoms: N_19  and  C_20
REMARK   10  A    between atoms: C_20  and  C_22
REMARK   11  A    between atoms: C_20  and  C_23
REMARK                            x       y       z     vdW  Elec       q    Type
REMARK                         _______ _______ _______ _____ _____    ______ ____
ROOT
ATOM      1  C   UNL     1      -3.616  -7.904   1.156  0.00  0.00    +0.019 C 
ENDROOT
BRANCH   1   6
ATOM      2  C   UNL     1      -4.429  -4.420   0.021  0.00  0.00    +0.058 C 
ATOM      3  C   UNL     1      -5.146  -3.929   1.281  0.00  0.00    +0.009 C 
ATOM      4  C   UNL     1      -4.442  -4.504   2.514  0.00  0.00    -0.015 C 
ATOM      5  C   UNL     1      -4.422  -6.031   2.417  0.00  0.00    -0.071 C 
ATOM      6  N   UNL     1      -3.700  -6.438   1.205  0.00  0.00    +0.388 N 
ATOM      7  C   UNL     1      -4.409  -5.950   0.014  0.00  0.00    -0.065 C 
ATOM      8  C   UNL     1      -3.720  -6.611   3.646  0.00  0.00    -0.013 C 
ATOM      9  H   UNL     1      -2.769  -6.050   1.223  0.00  0.00    -0.081 HD
BRANCH   2  11
ATOM     10  N   UNL     1      -2.787  -2.571   0.015  0.00  0.00    -0.315 N 
ATOM     11  C   UNL     1      -3.015  -3.899   0.010  0.00  0.00    +0.214 C 
ATOM     12  O   UNL     1      -2.083  -4.674  -0.003  0.00  0.00    -0.276 OA
ATOM     13  H   UNL     1      -3.533  -1.950   0.025  0.00  0.00    +0.149 HD
BRANCH  10  14
ATOM     14  C   UNL     1      -1.413  -2.063   0.004  0.00  0.00    +0.104 C 
BRANCH  14  15
ATOM     15  C   UNL     1      -1.433  -0.534   0.013  0.00  0.00    +0.018 C 
BRANCH  15  17
ATOM     16  C   UNL     1      -0.019   1.526   0.010  0.00  0.00    +0.004 C 
ATOM     17  C   UNL     1       0.002  -0.004   0.002  0.00  0.00    -0.002 C 
ENDBRANCH  15  17
ENDBRANCH  14  15
ENDBRANCH  10  14
ENDBRANCH   2  11
ENDBRANCH   1   6
BRANCH   1  18
ATOM     18  C   UNL     1      -2.771  -8.320  -0.021  0.00  0.00    +0.197 C 
ATOM     19  O   UNL     1      -2.287  -7.478  -0.747  0.00  0.00    -0.278 OA
ATOM     20  N   UNL     1      -2.554  -9.627  -0.266  0.00  0.00    -0.310 N 
ATOM     21  H   UNL     1      -2.941 -10.300   0.315  0.00  0.00    +0.149 HD
BRANCH  20  22
ATOM     22  C   UNL     1      -1.732 -10.031  -1.409  0.00  0.00    +0.100 C 
ATOM     23  C   UNL     1      -0.256 -10.011  -1.010  0.00  0.00    +0.033 C 
BRANCH  22  24
ATOM     24  C   UNL     1      -2.118 -11.424  -1.838  0.00  0.00    -0.027 A 
ATOM     25  C   UNL     1      -2.404 -12.385  -0.870  0.00  0.00    +0.006 A 
ATOM     26  C   UNL     1      -2.755 -13.652  -1.223  0.00  0.00    +0.009 A 
ATOM     27  C   UNL     1      -2.831 -13.999  -2.583  0.00  0.00    -0.018 A 
ATOM     28  C   UNL     1      -3.191 -15.296  -2.986  0.00  0.00    +0.008 A 
ATOM     29  C   UNL     1      -3.255 -15.596  -4.312  0.00  0.00    +0.001 A 
ATOM     30  C   UNL     1      -2.969 -14.634  -5.279  0.00  0.00    +0.001 A 
ATOM     31  C   UNL     1      -2.618 -13.368  -4.926  0.00  0.00    +0.008 A 
ATOM     32  C   UNL     1      -2.541 -13.021  -3.567  0.00  0.00    -0.018 A 
ATOM     33  C   UNL     1      -2.187 -11.722  -3.164  0.00  0.00    +0.014 A 
ENDBRANCH  22  24
ENDBRANCH  20  22
ENDBRANCH   1  18
TORSDOF 8
