REMARK  Name = ZINC08869010
REMARK  11 active torsions:
REMARK  status: ('A' for Active; 'I' for Inactive)
REMARK    1  A    between atoms: C_1  and  C_2
REMARK    2  A    between atoms: N_11  and  C_12
REMARK    3  A    between atoms: C_12  and  C_13
REMARK    4  A    between atoms: C_13  and  N_64
REMARK    5  A    between atoms: C_14  and  N_64
REMARK    6  A    between atoms: C_15  and  N_64
REMARK    7  A    between atoms: C_16  and  C_18
REMARK    8  A    between atoms: N_23  and  S_24
REMARK    9  A    between atoms: S_24  and  C_27
REMARK   10  A    between atoms: C_30  and  O_33
REMARK   11  A    between atoms: O_33  and  C_34
REMARK                            x       y       z     vdW  Elec       q    Type
REMARK                         _______ _______ _______ _____ _____    ______ ____
ROOT
ATOM      1  C   UNL     1      -1.356   3.905  12.619  0.00  0.00    +0.044 C 
ATOM      2  C   UNL     1      -1.745   3.691  11.179  0.00  0.00    -0.049 A 
ATOM      3  C   UNL     1      -0.825   3.183  10.273  0.00  0.00    +0.005 A 
ATOM      4  C   UNL     1      -1.152   2.978   8.958  0.00  0.00    +0.029 A 
ATOM      5  C   UNL     1      -2.449   3.282   8.481  0.00  0.00    +0.080 A 
ATOM      6  C   UNL     1      -3.359   3.797   9.432  0.00  0.00    +0.041 A 
ATOM      7  C   UNL     1      -3.023   3.994  10.748  0.00  0.00    +0.020 A 
ATOM      8  S   UNL     1      -4.825   4.039   8.459  0.00  0.00    -0.052 S 
ATOM      9  C   UNL     1      -4.161   3.461   6.904  0.00  0.00    +0.168 A 
ATOM     10  N   UNL     1      -2.929   3.142   7.227  0.00  0.00    -0.224 NA
ATOM     11  N   UNL     1      -4.786   3.372   5.671  0.00  0.00    -0.251 N 
ATOM     12  C   UNL     1      -6.105   3.631   5.564  0.00  0.00    +0.240 C 
ATOM     13  O   UNL     1      -6.669   3.474   4.502  0.00  0.00    -0.273 OA
ENDROOT
BRANCH  12  14
ATOM     14  C   UNL     1      -6.877   4.118   6.763  0.00  0.00    +0.166 C 
ATOM     15  C   UNL     1      -6.557   5.605   7.025  0.00  0.00    +0.031 C 
ATOM     16  C   UNL     1      -7.739   6.340   6.339  0.00  0.00    +0.019 C 
ATOM     17  C   UNL     1      -8.912   5.366   6.613  0.00  0.00    +0.110 C 
ATOM     18  N   UNL     1      -8.320   4.021   6.501  0.00  0.00    -0.165 NA
BRANCH  18  19
ATOM     19  S   UNL     1      -9.144   2.631   6.140  0.00  0.00    +0.062 S 
ATOM     20  O   UNL     1     -10.315   3.024   5.437  0.00  0.00    -0.153 OA
ATOM     21  O   UNL     1      -8.194   1.726   5.592  0.00  0.00    -0.153 OA
BRANCH  19  22
ATOM     22  C   UNL     1      -9.683   1.933   7.665  0.00  0.00    +0.106 A 
ATOM     23  C   UNL     1      -8.876   1.031   8.335  0.00  0.00    +0.032 A 
ATOM     24  C   UNL     1      -9.294   0.487   9.534  0.00  0.00    +0.047 A 
ATOM     25  C   UNL     1     -10.529   0.837  10.060  0.00  0.00    +0.120 A 
ATOM     26  C   UNL     1     -11.339   1.737   9.384  0.00  0.00    +0.047 A 
ATOM     27  C   UNL     1     -10.914   2.283   8.188  0.00  0.00    +0.032 A 
BRANCH  25  28
ATOM     28  O   UNL     1     -10.944   0.299  11.237  0.00  0.00    -0.495 OA
ATOM     29  C   UNL     1     -10.059  -0.621  11.878  0.00  0.00    +0.277 C 
ENDBRANCH  25  28
ENDBRANCH  19  22
ENDBRANCH  18  19
ENDBRANCH  12  14
BRANCH  11  30
ATOM     30  C   UNL     1      -4.015   2.995   4.483  0.00  0.00    +0.097 C 
BRANCH  30  31
ATOM     31  C   UNL     1      -4.058   1.476   4.308  0.00  0.00    -0.060 C 
BRANCH  31  34
ATOM     32  C   UNL     1      -3.013  -0.371   3.143  0.00  0.00    -0.097 C 
ATOM     33  C   UNL     1      -3.698   1.601   1.917  0.00  0.00    -0.097 C 
ATOM     34  N   UNL     1      -3.158   1.099   3.198  0.00  0.00    +0.377 N 
ATOM     35  H   UNL     1      -2.236   1.519   3.359  0.00  0.00    -0.083 HD
ENDBRANCH  31  34
ENDBRANCH  30  31
ENDBRANCH  11  30
TORSDOF 7
