REMARK  Name = ZINC12880899
REMARK  9 active torsions:
REMARK  status: ('A' for Active; 'I' for Inactive)
REMARK    1  A    between atoms: C_1  and  C_2
REMARK    2  A    between atoms: C_2  and  C_3
REMARK    3  A    between atoms: C_14  and  C_16
REMARK    4  A    between atoms: C_16  and  C_17
REMARK    5  A    between atoms: C_17  and  S_18
REMARK    6  A    between atoms: S_18  and  C_19
REMARK    7  A    between atoms: N_22  and  C_25
REMARK    8  A    between atoms: C_25  and  C_26
REMARK    9  A    between atoms: C_26  and  C_27
REMARK                            x       y       z     vdW  Elec       q    Type
REMARK                         _______ _______ _______ _____ _____    ______ ____
ROOT
ATOM      1  C   UNL     1      -5.385   8.783  -0.396  0.00  0.00    -0.047 A 
ATOM      2  C   UNL     1      -6.348   7.951  -0.938  0.00  0.00    +0.005 A 
ATOM      3  C   UNL     1      -6.371   6.610  -0.616  0.00  0.00    +0.024 A 
ATOM      4  C   UNL     1      -5.424   6.083   0.259  0.00  0.00    +0.036 A 
ATOM      5  C   UNL     1      -4.459   6.929   0.797  0.00  0.00    -0.027 A 
ATOM      6  C   UNL     1      -4.439   8.267   0.473  0.00  0.00    +0.008 A 
ATOM      7  C   UNL     1      -3.604   6.066   1.681  0.00  0.00    +0.050 C 
ATOM      8  C   UNL     1      -3.609   6.566   3.131  0.00  0.00    +0.088 C 
ATOM      9  C   UNL     1      -2.166   6.288   3.647  0.00  0.00    +0.073 C 
ATOM     10  C   UNL     1      -1.441   5.632   2.453  0.00  0.00    -0.057 C 
ATOM     11  C   UNL     1      -1.603   7.672   3.875  0.00  0.00    +0.224 C 
ATOM     12  O   UNL     1      -0.483   7.917   4.269  0.00  0.00    -0.275 OA
ATOM     13  N   UNL     1      -2.533   8.586   3.573  0.00  0.00    -0.241 N 
ATOM     14  C   UNL     1      -3.698   8.075   3.147  0.00  0.00    +0.225 C 
ATOM     15  O   UNL     1      -4.671   8.723   2.825  0.00  0.00    -0.275 OA
ATOM     16  C   UNL     1      -4.195   4.687   1.573  0.00  0.00    +0.211 C 
ATOM     17  O   UNL     1      -3.803   3.685   2.133  0.00  0.00    -0.277 OA
ATOM     18  N   UNL     1      -5.243   4.781   0.732  0.00  0.00    -0.286 N 
ATOM     19  H   UNL     1      -5.806   4.032   0.483  0.00  0.00    +0.155 HD
ATOM     20  N   UNL     1      -2.206   6.074   1.284  0.00  0.00    +0.394 N 
ATOM     21  H   UNL     1      -1.920   7.021   1.010  0.00  0.00    -0.083 HD
ATOM     22  H   UNL     1      -2.057   5.430   0.498  0.00  0.00    -0.083 HD
ENDROOT
BRANCH   1  24
ATOM     23  C   UNL     1      -4.487  10.461  -1.986  0.00  0.00    +0.009 C 
ATOM     24  C   UNL     1      -5.365  10.247  -0.751  0.00  0.00    +0.032 C 
ENDBRANCH   1  24
BRANCH  10  25
ATOM     25  C   UNL     1      -1.492   4.108   2.571  0.00  0.00    -0.004 C 
BRANCH  25  26
ATOM     26  C   UNL     1      -0.253   3.612   3.320  0.00  0.00    +0.067 C 
BRANCH  26  27
ATOM     27  S   UNL     1      -0.313   1.805   3.460  0.00  0.00    -0.164 S 
ATOM     28  C   UNL     1       1.205   1.384   4.359  0.00  0.00    +0.084 C 
ENDBRANCH  26  27
ENDBRANCH  25  26
ENDBRANCH  10  25
BRANCH  13  29
ATOM     29  C   UNL     1      -2.298  10.026   3.695  0.00  0.00    +0.121 C 
BRANCH  29  30
ATOM     30  C   UNL     1      -1.738  10.565   2.377  0.00  0.00    +0.054 C 
BRANCH  30  31
ATOM     31  C   UNL     1      -1.496  12.047   2.503  0.00  0.00    -0.046 A 
ATOM     32  C   UNL     1      -2.495  12.942   2.170  0.00  0.00    +0.004 A 
ATOM     33  C   UNL     1      -2.275  14.301   2.289  0.00  0.00    +0.000 A 
ATOM     34  C   UNL     1      -1.051  14.766   2.732  0.00  0.00    +0.000 A 
ATOM     35  C   UNL     1      -0.049  13.872   3.061  0.00  0.00    +0.000 A 
ATOM     36  C   UNL     1      -0.271  12.512   2.945  0.00  0.00    +0.004 A 
ENDBRANCH  30  31
ENDBRANCH  29  30
ENDBRANCH  13  29
TORSDOF 7
