REMARK  Name = ZINC37205475
REMARK  4 active torsions:
REMARK  status: ('A' for Active; 'I' for Inactive)
REMARK    1  A    between atoms: C_3  and  S_9
REMARK    2  A    between atoms: C_4  and  N_8
REMARK    3  A    between atoms: S_9  and  C_10
REMARK    4  A    between atoms: C_10  and  C_11
REMARK                            x       y       z     vdW  Elec       q    Type
REMARK                         _______ _______ _______ _____ _____    ______ ____
ROOT
ATOM      1  C   UNL     1       3.367   4.058  -0.009  0.00  0.00    +0.150 C 
ENDROOT
BRANCH   1   2
ATOM      2  C   UNL     1       4.581   4.951  -0.017  0.00  0.00    +0.146 A 
ATOM      3  N   UNL     1       5.126   5.331   1.125  0.00  0.00    -0.199 NA
ATOM      4  C   UNL     1       6.199   6.120   1.123  0.00  0.00    +0.217 A 
ATOM      5  N   UNL     1       6.721   6.524  -0.030  0.00  0.00    -0.181 NA
ATOM      6  C   UNL     1       6.170   6.140  -1.176  0.00  0.00    +0.217 A 
ATOM      7  N   UNL     1       5.101   5.347  -1.165  0.00  0.00    -0.199 NA
ATOM      8  N   UNL     1       6.709   6.557  -2.376  0.00  0.00    -0.327 N 
ATOM      9  N   UNL     1       6.767   6.517   2.316  0.00  0.00    -0.327 N 
ATOM     10  H   UNL     1       7.490   7.132  -2.383  0.00  0.00    +0.145 HD
ATOM     11  H   UNL     1       6.306   6.276  -3.212  0.00  0.00    +0.145 HD
ATOM     12  H   UNL     1       6.385   6.221   3.157  0.00  0.00    +0.145 HD
ATOM     13  H   UNL     1       7.548   7.091   2.314  0.00  0.00    +0.145 HD
ENDBRANCH   1   2
BRANCH   1  14
ATOM     14  S   UNL     1       3.894   2.322  -0.023  0.00  0.00    -0.116 S 
BRANCH  14  17
ATOM     15  C   UNL     1      -0.017   1.379   0.010  0.00  0.00    +0.016 A 
ATOM     16  C   UNL     1       1.169   2.090   0.002  0.00  0.00    +0.017 A 
ATOM     17  C   UNL     1       2.382   1.417  -0.013  0.00  0.00    +0.029 A 
ATOM     18  C   UNL     1       2.401   0.022  -0.021  0.00  0.00    +0.039 A 
ATOM     19  C   UNL     1       1.208  -0.684  -0.013  0.00  0.00    +0.039 A 
ATOM     20  C   UNL     1       0.002  -0.004   0.002  0.00  0.00    +0.020 A 
ATOM     21 BR   UNL     1      -1.624  -0.969   0.013  0.00  0.00    -0.050 Br
BRANCH  18  22
ATOM     22  N   UNL     1       3.621  -0.663  -0.036  0.00  0.00    -0.357 N 
ATOM     23  H   UNL     1       4.455  -0.168  -0.042  0.00  0.00    +0.142 HD
ATOM     24  H   UNL     1       3.633  -1.633  -0.042  0.00  0.00    +0.142 HD
ENDBRANCH  18  22
ENDBRANCH  14  17
ENDBRANCH   1  14
TORSDOF 4
