REMARK  Name = ZINC12296537
REMARK  7 active torsions:
REMARK  status: ('A' for Active; 'I' for Inactive)
REMARK    1  A    between atoms: C_7  and  C_11
REMARK    2  A    between atoms: C_11  and  C_12
REMARK    3  A    between atoms: C_12  and  N_13
REMARK    4  A    between atoms: C_14  and  C_16
REMARK    5  A    between atoms: C_16  and  C_17
REMARK    6  A    between atoms: C_17  and  C_18
REMARK    7  A    between atoms: C_18  and  N_19
REMARK                            x       y       z     vdW  Elec       q    Type
REMARK                         _______ _______ _______ _____ _____    ______ ____
ROOT
ATOM      1  C   UNL     1       4.622   9.812   2.568  0.00  0.00    +0.106 C 
ENDROOT
BRANCH   1   2
ATOM      2  N   UNL     1       3.828   8.931   1.708  0.00  0.00    -0.299 N 
ATOM      3  C   UNL     1       4.398   7.847   1.145  0.00  0.00    +0.303 C 
ATOM      4  O   UNL     1       5.543   7.549   1.423  0.00  0.00    -0.253 OA
ATOM      5  N   UNL     1       3.697   7.093   0.276  0.00  0.00    -0.280 N 
ATOM      6  C   UNL     1       4.335   5.974  -0.435  0.00  0.00    +0.114 C 
ATOM      7  C   UNL     1       3.672   4.662   0.003  0.00  0.00    +0.056 C 
ATOM      8  C   UNL     1       2.177   4.850   0.010  0.00  0.00    -0.016 A 
ATOM      9  C   UNL     1       1.147   3.816   0.013  0.00  0.00    +0.005 A 
ATOM     10  C   UNL     1       1.168   2.419   0.003  0.00  0.00    +0.030 A 
ATOM     11  C   UNL     1      -0.007   1.722   0.012  0.00  0.00    +0.042 A 
ATOM     12  C   UNL     1      -1.225   2.391   0.026  0.00  0.00    +0.022 A 
ATOM     13  C   UNL     1      -1.268   3.768   0.041  0.00  0.00    +0.027 A 
ATOM     14  C   UNL     1      -0.085   4.498   0.031  0.00  0.00    +0.047 A 
ATOM     15  N   UNL     1       0.196   5.847   0.035  0.00  0.00    -0.356 N 
ATOM     16  H   UNL     1      -0.468   6.554   0.045  0.00  0.00    +0.166 HD
ATOM     17  C   UNL     1       1.547   6.041   0.021  0.00  0.00    +0.038 A 
ATOM     18  C   UNL     1       2.274   7.368   0.013  0.00  0.00    +0.162 C 
ATOM     19 CL   UNL     1       0.021  -0.014  -0.001  0.00  0.00    -0.084 Cl
ATOM     20  H   UNL     1       2.893   9.128   1.543  0.00  0.00    +0.150 HD
ENDBRANCH   1   2
BRANCH   1  21
ATOM     21  C   UNL     1       3.743  10.958   3.074  0.00  0.00    +0.028 C 
BRANCH  21  22
ATOM     22  C   UNL     1       4.571  11.878   3.972  0.00  0.00    +0.097 C 
BRANCH  22  24
ATOM     23  N   UNL     1       4.226  13.947   5.283  0.00  0.00    -0.315 N 
ATOM     24  C   UNL     1       3.706  13.007   4.470  0.00  0.00    +0.213 C 
ATOM     25  O   UNL     1       2.541  13.069   4.139  0.00  0.00    -0.276 OA
ATOM     26  H   UNL     1       5.158  13.898   5.548  0.00  0.00    +0.149 HD
BRANCH  23  27
ATOM     27  C   UNL     1       3.385  15.044   5.768  0.00  0.00    +0.109 C 
BRANCH  27  28
ATOM     28  C   UNL     1       4.213  15.965   6.666  0.00  0.00    +0.056 C 
BRANCH  28  35
ATOM     29  C   UNL     1       1.269  16.390  10.288  0.00  0.00    +0.001 A 
ATOM     30  C   UNL     1       0.675  17.643  10.359  0.00  0.00    +0.002 A 
ATOM     31  C   UNL     1       0.969  18.613   9.426  0.00  0.00    +0.026 A 
ATOM     32  C   UNL     1       1.869  18.337   8.402  0.00  0.00    +0.047 A 
ATOM     33  C   UNL     1       2.467  17.065   8.335  0.00  0.00    +0.003 A 
ATOM     34  C   UNL     1       2.155  16.097   9.290  0.00  0.00    +0.010 A 
ATOM     35  C   UNL     1       3.347  17.093   7.164  0.00  0.00    -0.021 A 
ATOM     36  C   UNL     1       3.241  18.317   6.622  0.00  0.00    +0.087 A 
ATOM     37  N   UNL     1       2.358  19.072   7.345  0.00  0.00    -0.360 N 
ATOM     38  H   UNL     1       2.116  19.989   7.146  0.00  0.00    +0.165 HD
ENDBRANCH  28  35
ENDBRANCH  27  28
ENDBRANCH  23  27
ENDBRANCH  22  24
ENDBRANCH  21  22
ENDBRANCH   1  21
TORSDOF 7
