REMARK  Name = ZINC39404329
REMARK  15 active torsions:
REMARK  status: ('A' for Active; 'I' for Inactive)
REMARK    1  A    between atoms: C_1  and  C_2
REMARK    2  A    between atoms: C_2  and  O_3
REMARK    3  A    between atoms: O_3  and  C_4
REMARK    4  A    between atoms: C_7  and  C_10
REMARK    5  A    between atoms: N_11  and  N_12
REMARK    6  A    between atoms: C_15  and  S_19
REMARK    7  A    between atoms: S_19  and  C_20
REMARK    8  A    between atoms: C_20  and  C_21
REMARK    9  A    between atoms: N_23  and  C_24
REMARK   10  A    between atoms: C_26  and  C_39
REMARK   11  A    between atoms: C_28  and  C_38
REMARK   12  A    between atoms: C_30  and  C_33
REMARK   13  A    between atoms: C_33  and  O_35
REMARK   14  A    between atoms: O_35  and  C_36
REMARK   15  A    between atoms: C_36  and  C_37
REMARK                            x       y       z     vdW  Elec       q    Type
REMARK                         _______ _______ _______ _____ _____    ______ ____
ROOT
ATOM      1  N   UNL     1       1.506  -8.500  -2.779  0.00  0.00    -0.206 N 
ATOM      2  C   UNL     1       2.113  -9.146  -3.833  0.00  0.00    +0.231 C 
ATOM      3  N   UNL     1       2.072 -10.434  -4.032  0.00  0.00    -0.324 N 
ATOM      4  C   UNL     1       2.850 -10.657  -5.264  0.00  0.00    +0.283 C 
ATOM      5  N   UNL     1       3.285  -9.306  -5.652  0.00  0.00    -0.148 NA
ATOM      6  N   UNL     1       2.831  -8.521  -4.811  0.00  0.00    -0.116 NA
ATOM      7  H   UNL     1       1.009  -9.009  -2.119  0.00  0.00    +0.177 HD
ATOM      8  H   UNL     1       1.625 -11.101  -3.488  0.00  0.00    +0.165 HD
ENDROOT
BRANCH   1  10
ATOM      9  C   UNL     1       1.033  -6.499  -1.664  0.00  0.00    +0.138 C 
ATOM     10  N   UNL     1       1.605  -7.108  -2.658  0.00  0.00    -0.188 NA
BRANCH   9  14
ATOM     11  C   UNL     1       1.337  -2.281  -1.300  0.00  0.00    +0.121 A 
ATOM     12  C   UNL     1       0.625  -3.008  -0.355  0.00  0.00    +0.046 A 
ATOM     13  C   UNL     1       0.524  -4.377  -0.469  0.00  0.00    +0.013 A 
ATOM     14  C   UNL     1       1.138  -5.034  -1.538  0.00  0.00    -0.005 A 
ATOM     15  C   UNL     1       1.853  -4.299  -2.487  0.00  0.00    +0.013 A 
ATOM     16  C   UNL     1       1.945  -2.929  -2.367  0.00  0.00    +0.046 A 
BRANCH  11  17
ATOM     17  O   UNL     1       1.434  -0.931  -1.183  0.00  0.00    -0.492 OA
BRANCH  17  19
ATOM     18  C   UNL     1       1.004   1.186  -0.099  0.00  0.00    +0.048 C 
ATOM     19  C   UNL     1       0.785  -0.328  -0.061  0.00  0.00    +0.225 C 
ENDBRANCH  17  19
ENDBRANCH  11  17
ENDBRANCH   9  14
ENDBRANCH   1  10
BRANCH   4  20
ATOM     20  S   UNL     1       1.806 -11.390  -6.554  0.00  0.00    -0.102 S 
BRANCH  20  21
ATOM     21  C   UNL     1       0.493 -10.164  -6.805  0.00  0.00    +0.168 C 
BRANCH  21  22
ATOM     22  C   UNL     1      -0.456 -10.656  -7.867  0.00  0.00    +0.224 C 
ATOM     23  O   UNL     1      -0.266 -11.727  -8.402  0.00  0.00    -0.275 OA
ATOM     24  N   UNL     1      -1.517  -9.904  -8.223  0.00  0.00    -0.302 N 
ATOM     25  H   UNL     1      -1.669  -9.047  -7.795  0.00  0.00    +0.150 HD
BRANCH  24  26
ATOM     26  C   UNL     1      -2.440 -10.382  -9.255  0.00  0.00    +0.149 C 
ATOM     27  C   UNL     1      -3.918 -10.088  -8.868  0.00  0.00    +0.126 C 
ATOM     28  C   UNL     1      -4.761 -10.100 -10.154  0.00  0.00    +0.029 C 
ATOM     29  C   UNL     1      -4.069  -9.249 -11.246  0.00  0.00    +0.161 C 
ATOM     30  S   UNL     1      -2.290  -9.385 -10.797  0.00  0.00    -0.122 S 
ATOM     31  C   UNL     1      -4.910 -11.539 -10.650  0.00  0.00    +0.010 C 
BRANCH  29  32
ATOM     32  C   UNL     1      -4.323  -9.828 -12.614  0.00  0.00    +0.321 C 
ATOM     33  O   UNL     1      -5.334  -9.543 -13.212  0.00  0.00    -0.250 OA
BRANCH  32  34
ATOM     34  O   UNL     1      -3.427 -10.659 -13.169  0.00  0.00    -0.464 OA
BRANCH  34  35
ATOM     35  C   UNL     1      -3.733 -11.170 -14.468  0.00  0.00    +0.229 C 
ATOM     36  C   UNL     1      -2.604 -12.092 -14.932  0.00  0.00    +0.048 C 
ENDBRANCH  34  35
ENDBRANCH  32  34
ENDBRANCH  29  32
BRANCH  27  37
ATOM     37  C   UNL     1      -4.406 -11.126  -7.945  0.00  0.00    +0.069 C 
ATOM     38  N   UNL     1      -4.782 -11.926  -7.232  0.00  0.00    -0.196 NA
ENDBRANCH  27  37
ENDBRANCH  24  26
ENDBRANCH  21  22
ENDBRANCH  20  21
ENDBRANCH   4  20
TORSDOF 12
