REMARK  Name = ZINC63479830
REMARK  4 active torsions:
REMARK  status: ('A' for Active; 'I' for Inactive)
REMARK    1  A    between atoms: C_1  and  C_2
REMARK    2  A    between atoms: C_5  and  N_8
REMARK    3  A    between atoms: C_13  and  C_30
REMARK    4  A    between atoms: C_30  and  C_31
REMARK                            x       y       z     vdW  Elec       q    Type
REMARK                         _______ _______ _______ _____ _____    ______ ____
ROOT
ATOM      1  N   UNL     1       0.059  -4.172  -0.021  0.00  0.00    -0.210 N 
ATOM      2  C   UNL     1      -0.030  -4.891  -1.146  0.00  0.00    +0.232 C 
ATOM      3  O   UNL     1      -0.138  -4.433  -2.263  0.00  0.00    -0.274 OA
ATOM      4  C   UNL     1       0.026  -6.363  -0.807  0.00  0.00    +0.107 C 
ATOM      5  C   UNL     1      -1.343  -7.009  -1.111  0.00  0.00    +0.072 C 
ATOM      6  N   UNL     1      -2.143  -6.809   0.126  0.00  0.00    -0.295 NA
ATOM      7  C   UNL     1      -1.173  -7.012   1.219  0.00  0.00    +0.136 C 
ATOM      8  C   UNL     1       0.153  -6.371   0.742  0.00  0.00    +0.123 C 
ATOM      9  C   UNL     1       0.172  -4.901   1.096  0.00  0.00    +0.233 C 
ATOM     10  O   UNL     1       0.272  -4.452   2.217  0.00  0.00    -0.274 OA
ATOM     11  C   UNL     1      -1.655  -6.402   2.504  0.00  0.00    +0.003 A 
ATOM     12  C   UNL     1      -1.996  -5.120   2.877  0.00  0.00    +0.008 A 
ATOM     13  C   UNL     1      -2.417  -4.864   4.169  0.00  0.00    +0.000 A 
ATOM     14  C   UNL     1      -2.496  -5.897   5.085  0.00  0.00    +0.002 A 
ATOM     15  C   UNL     1      -2.154  -7.182   4.717  0.00  0.00    +0.023 A 
ATOM     16  C   UNL     1      -1.729  -7.449   3.418  0.00  0.00    +0.039 A 
ATOM     17  N   UNL     1      -1.333  -8.645   2.815  0.00  0.00    -0.283 N 
ATOM     18  C   UNL     1      -0.991  -8.473   1.524  0.00  0.00    +0.243 C 
ATOM     19  O   UNL     1      -0.610  -9.331   0.755  0.00  0.00    -0.273 OA
ATOM     20  H   UNL     1      -2.534  -5.879   0.157  0.00  0.00    +0.124 HD
ATOM     21  H   UNL     1      -1.308  -9.499   3.273  0.00  0.00    +0.155 HD
ENDROOT
BRANCH   1  26
ATOM     22  C   UNL     1      -0.016   1.503   0.009  0.00  0.00    +0.044 C 
ATOM     23  C   UNL     1       0.004  -0.004   0.001  0.00  0.00    -0.050 A 
ATOM     24  C   UNL     1       1.156  -0.681   0.357  0.00  0.00    +0.005 A 
ATOM     25  C   UNL     1       1.177  -2.062   0.350  0.00  0.00    +0.024 A 
ATOM     26  C   UNL     1       0.040  -2.771  -0.013  0.00  0.00    +0.044 A 
ATOM     27  C   UNL     1      -1.115  -2.088  -0.370  0.00  0.00    +0.024 A 
ATOM     28  C   UNL     1      -1.132  -0.707  -0.357  0.00  0.00    +0.005 A 
ENDBRANCH   1  26
BRANCH   5  29
ATOM     29  C   UNL     1      -2.009  -6.310  -2.298  0.00  0.00    +0.052 C 
BRANCH  29  30
ATOM     30  C   UNL     1      -3.283  -7.032  -2.655  0.00  0.00    -0.040 C 
ATOM     31  C   UNL     1      -4.534  -6.726  -2.243  0.00  0.00    -0.001 A 
ATOM     32  C   UNL     1      -5.063  -5.670  -1.371  0.00  0.00    +0.010 A 
ATOM     33  C   UNL     1      -6.394  -5.618  -1.137  0.00  0.00    +0.001 A 
ATOM     34  C   UNL     1      -7.279  -6.545  -1.705  0.00  0.00    +0.002 A 
ATOM     35  C   UNL     1      -6.868  -7.543  -2.516  0.00  0.00    +0.026 A 
ATOM     36  C   UNL     1      -5.489  -7.692  -2.831  0.00  0.00    +0.043 A 
ATOM     37  N   UNL     1      -4.854  -8.562  -3.577  0.00  0.00    -0.380 N 
ATOM     38  C   UNL     1      -3.422  -8.241  -3.553  0.00  0.00    +0.144 C 
ATOM     39  H   UNL     1      -5.262  -9.292  -4.068  0.00  0.00    +0.160 HD
ENDBRANCH  29  30
ENDBRANCH   5  29
TORSDOF 3
