REMARK  Name = ZINC63686256
REMARK  8 active torsions:
REMARK  status: ('A' for Active; 'I' for Inactive)
REMARK    1  A    between atoms: C_4  and  N_7
REMARK    2  A    between atoms: C_8  and  C_10
REMARK    3  A    between atoms: C_14  and  C_17
REMARK    4  A    between atoms: C_17  and  C_18
REMARK    5  A    between atoms: C_18  and  C_19
REMARK    6  A    between atoms: N_21  and  C_22
REMARK    7  A    between atoms: C_22  and  C_23
REMARK    8  A    between atoms: C_23  and  C_24
REMARK                            x       y       z     vdW  Elec       q    Type
REMARK                         _______ _______ _______ _____ _____    ______ ____
ROOT
ATOM      1  C   UNL     1       6.457  -6.364  -0.739  0.00  0.00    +0.040 C 
ENDROOT
BRANCH   1   5
ATOM      2  C   UNL     1       4.962  -2.721   0.153  0.00  0.00    +0.214 C 
ATOM      3  N   UNL     1       5.669  -2.722  -1.158  0.00  0.00    -0.234 NA
ATOM      4  N   UNL     1       6.447  -3.940  -1.353  0.00  0.00    -0.242 NA
ATOM      5  C   UNL     1       5.599  -5.139  -1.065  0.00  0.00    +0.129 C 
ATOM      6  S   UNL     1       4.705  -4.524   0.429  0.00  0.00    -0.112 S 
ATOM      7  H   UNL     1       6.250  -1.902  -1.256  0.00  0.00    +0.142 HD
ATOM      8  H   UNL     1       7.275  -3.936  -0.778  0.00  0.00    +0.142 HD
BRANCH   2  10
ATOM      9  N   UNL     1       3.622  -0.651  -0.037  0.00  0.00    -0.283 N 
ATOM     10  C   UNL     1       3.645  -1.995   0.057  0.00  0.00    +0.246 C 
ATOM     11  O   UNL     1       2.606  -2.620   0.064  0.00  0.00    -0.273 OA
ATOM     12  H   UNL     1       4.452  -0.156  -0.121  0.00  0.00    +0.155 HD
BRANCH   9  16
ATOM     13  C   UNL     1      -0.015   1.381   0.029  0.00  0.00    +0.000 A 
ATOM     14  C   UNL     1       0.140   0.218   0.763  0.00  0.00    +0.002 A 
ATOM     15  C   UNL     1       1.344  -0.457   0.743  0.00  0.00    +0.023 A 
ATOM     16  C   UNL     1       2.400   0.031  -0.015  0.00  0.00    +0.033 A 
ATOM     17  C   UNL     1       2.241   1.198  -0.751  0.00  0.00    +0.023 A 
ATOM     18  C   UNL     1       1.034   1.870  -0.727  0.00  0.00    +0.002 A 
ENDBRANCH   9  16
ENDBRANCH   2  10
ENDBRANCH   1   5
BRANCH   1  19
ATOM     19  C   UNL     1       5.555  -7.589  -0.575  0.00  0.00    +0.098 C 
BRANCH  19  20
ATOM     20  C   UNL     1       6.400  -8.795  -0.254  0.00  0.00    +0.213 C 
ATOM     21  O   UNL     1       7.604  -8.685  -0.165  0.00  0.00    -0.276 OA
ATOM     22  N   UNL     1       5.816  -9.995  -0.065  0.00  0.00    -0.315 N 
ATOM     23  H   UNL     1       4.853 -10.083  -0.136  0.00  0.00    +0.149 HD
BRANCH  22  24
ATOM     24  C   UNL     1       6.638 -11.168   0.247  0.00  0.00    +0.108 C 
BRANCH  24  25
ATOM     25  C   UNL     1       5.736 -12.393   0.411  0.00  0.00    +0.052 C 
BRANCH  25  26
ATOM     26  C   UNL     1       6.580 -13.599   0.733  0.00  0.00    -0.040 C 
ATOM     27  C   UNL     1       6.858 -14.094   1.960  0.00  0.00    -0.001 A 
ATOM     28  C   UNL     1       6.471 -13.673   3.312  0.00  0.00    +0.010 A 
ATOM     29  C   UNL     1       6.915 -14.386   4.373  0.00  0.00    +0.001 A 
ATOM     30  C   UNL     1       7.734 -15.512   4.213  0.00  0.00    +0.002 A 
ATOM     31  C   UNL     1       8.130 -15.960   3.003  0.00  0.00    +0.026 A 
ATOM     32  C   UNL     1       7.722 -15.287   1.819  0.00  0.00    +0.043 A 
ATOM     33  N   UNL     1       7.970 -15.521   0.553  0.00  0.00    -0.380 N 
ATOM     34  C   UNL     1       7.285 -14.504  -0.253  0.00  0.00    +0.144 C 
ATOM     35  H   UNL     1       8.512 -16.247   0.207  0.00  0.00    +0.160 HD
ENDBRANCH  25  26
ENDBRANCH  24  25
ENDBRANCH  22  24
ENDBRANCH  19  20
ENDBRANCH   1  19
TORSDOF 8
