REMARK  Name = ZINC20295006
REMARK  12 active torsions:
REMARK  status: ('A' for Active; 'I' for Inactive)
REMARK    1  A    between atoms: C_1  and  C_2
REMARK    2  A    between atoms: C_3  and  C_29
REMARK    3  A    between atoms: C_4  and  N_10
REMARK    4  A    between atoms: C_6  and  C_7
REMARK    5  A    between atoms: C_11  and  C_13
REMARK    6  A    between atoms: C_13  and  N_14
REMARK    7  A    between atoms: N_17  and  S_20
REMARK    8  A    between atoms: S_20  and  C_23
REMARK    9  A    between atoms: C_29  and  O_31
REMARK   10  A    between atoms: O_31  and  C_32
REMARK   11  A    between atoms: C_32  and  C_33
REMARK   12  A    between atoms: C_32  and  C_34
REMARK                            x       y       z     vdW  Elec       q    Type
REMARK                         _______ _______ _______ _____ _____    ______ ____
ROOT
ATOM      1  N   UNL     1      -0.713   3.789   4.800  0.00  0.00    -0.281 N 
ATOM      2  C   UNL     1      -0.432   3.373   3.549  0.00  0.00    +0.201 C 
ATOM      3  O   UNL     1       0.627   2.831   3.314  0.00  0.00    -0.278 OA
ATOM      4  H   UNL     1      -1.673   4.281   5.013  0.00  0.00    +0.155 HD
ENDROOT
BRANCH   1   8
ATOM      5  C   UNL     1       1.141   4.005   9.459  0.00  0.00    +0.046 C 
ATOM      6  C   UNL     1       1.170   3.655   7.994  0.00  0.00    -0.015 A 
ATOM      7  C   UNL     1       0.102   3.957   7.162  0.00  0.00    +0.091 A 
ATOM      8  C   UNL     1       0.205   3.599   5.814  0.00  0.00    +0.087 A 
ATOM      9  S   UNL     1       1.767   2.852   5.730  0.00  0.00    -0.068 S 
ATOM     10  C   UNL     1       2.251   3.028   7.437  0.00  0.00    +0.079 A 
BRANCH  10  11
ATOM     11  C   UNL     1       3.494   2.603   8.083  0.00  0.00    +0.248 C 
ATOM     12  O   UNL     1       3.660   2.799   9.273  0.00  0.00    -0.270 OA
ATOM     13  N   UNL     1       4.455   1.993   7.361  0.00  0.00    -0.325 N 
ATOM     14  H   UNL     1       5.389   1.674   7.846  0.00  0.00    +0.145 HD
ATOM     15  H   UNL     1       4.306   1.815   6.286  0.00  0.00    +0.145 HD
ENDBRANCH  10  11
BRANCH   7  16
ATOM     16  C   UNL     1      -1.096   4.629   7.679  0.00  0.00    +0.342 C 
ATOM     17  O   UNL     1      -2.024   3.971   8.108  0.00  0.00    -0.245 OA
BRANCH  16  18
ATOM     18  O   UNL     1      -1.167   5.975   7.678  0.00  0.00    -0.458 OA
BRANCH  18  19
ATOM     19  C   UNL     1      -2.381   6.572   8.204  0.00  0.00    +0.171 C 
ATOM     20  C   UNL     1      -2.221   6.814   9.706  0.00  0.00    +0.052 C 
ATOM     21  C   UNL     1      -2.643   7.904   7.498  0.00  0.00    +0.052 C 
ENDBRANCH  18  19
ENDBRANCH  16  18
ENDBRANCH   7  16
ENDBRANCH   1   8
BRANCH   2  22
ATOM     22  C   UNL     1      -1.434   3.580   2.443  0.00  0.00    +0.019 C 
BRANCH  22  23
ATOM     23  N   UNL     1      -0.895   3.043   1.186  0.00  0.00    +0.387 N 
ATOM     24  C   UNL     1      -0.738   1.584   1.263  0.00  0.00    -0.061 C 
ATOM     25  C   UNL     1      -0.013   1.086   0.008  0.00  0.00    +0.091 C 
ATOM     26  N   UNL     1      -0.732   1.577  -1.178  0.00  0.00    -0.180 NA
ATOM     27  C   UNL     1      -1.043   3.012  -1.258  0.00  0.00    +0.091 C 
ATOM     28  C   UNL     1      -1.732   3.434   0.044  0.00  0.00    -0.061 C 
ATOM     29  H   UNL     1       0.104   3.478   1.030  0.00  0.00    -0.081 HD
BRANCH  26  30
ATOM     30  S   UNL     1      -1.178   0.541  -2.390  0.00  0.00    +0.061 S 
ATOM     31  O   UNL     1      -1.315   1.327  -3.566  0.00  0.00    -0.153 OA
ATOM     32  O   UNL     1      -0.298  -0.573  -2.317  0.00  0.00    -0.153 OA
BRANCH  30  33
ATOM     33  C   UNL     1      -2.786  -0.060  -1.996  0.00  0.00    +0.105 A 
ATOM     34  C   UNL     1      -2.929  -1.213  -1.246  0.00  0.00    +0.028 A 
ATOM     35  C   UNL     1      -4.191  -1.682  -0.932  0.00  0.00    +0.002 A 
ATOM     36  C   UNL     1      -5.310  -1.004  -1.377  0.00  0.00    +0.000 A 
ATOM     37  C   UNL     1      -5.168   0.145  -2.132  0.00  0.00    +0.002 A 
ATOM     38  C   UNL     1      -3.906   0.617  -2.441  0.00  0.00    +0.028 A 
ENDBRANCH  30  33
ENDBRANCH  26  30
ENDBRANCH  22  23
ENDBRANCH   2  22
TORSDOF 9
