REMARK  Name = ZINC12382187
REMARK  11 active torsions:
REMARK  status: ('A' for Active; 'I' for Inactive)
REMARK    1  A    between atoms: C_1  and  C_2
REMARK    2  A    between atoms: C_2  and  C_3
REMARK    3  A    between atoms: C_2  and  C_4
REMARK    4  A    between atoms: C_4  and  C_5
REMARK    5  A    between atoms: C_11  and  C_12
REMARK    6  A    between atoms: C_16  and  O_18
REMARK    7  A    between atoms: O_18  and  C_19
REMARK    8  A    between atoms: C_19  and  C_20
REMARK    9  A    between atoms: C_20  and  O_21
REMARK   10  A    between atoms: O_21  and  C_22
REMARK   11  A    between atoms: C_25  and  N_28
REMARK                            x       y       z     vdW  Elec       q    Type
REMARK                         _______ _______ _______ _____ _____    ______ ____
ROOT
ATOM      1  C   UNL     1       4.049  -4.169  -1.651  0.00  0.00    -0.021 A 
ATOM      2  C   UNL     1       5.156  -3.336  -1.444  0.00  0.00    +0.008 A 
ATOM      3  C   UNL     1       6.385  -3.683  -1.963  0.00  0.00    +0.004 A 
ATOM      4  C   UNL     1       6.527  -4.846  -2.699  0.00  0.00    +0.045 A 
ATOM      5  C   UNL     1       5.436  -5.677  -2.916  0.00  0.00    +0.121 A 
ATOM      6  C   UNL     1       4.197  -5.345  -2.396  0.00  0.00    +0.053 A 
ENDROOT
BRANCH   1  13
ATOM      7  C   UNL     1       0.811   0.466   2.496  0.00  0.00    +0.100 C 
ATOM      8  N   UNL     1       0.580  -0.534   1.695  0.00  0.00    -0.169 NA
ATOM      9  N   UNL     1       1.547  -1.481   1.433  0.00  0.00    -0.152 N 
ATOM     10  C   UNL     1       1.378  -2.634   0.636  0.00  0.00    +0.152 C 
ATOM     11  N   UNL     1       0.211  -3.160   0.377  0.00  0.00    -0.283 NA
ATOM     12  C   UNL     1       2.661  -3.191   0.120  0.00  0.00    +0.081 C 
ATOM     13  C   UNL     1       2.740  -3.808  -1.095  0.00  0.00    +0.024 C 
ATOM     14  C   UNL     1       3.848  -3.039   1.000  0.00  0.00    +0.273 C 
ATOM     15  O   UNL     1       4.788  -3.814   0.926  0.00  0.00    -0.268 OA
ATOM     16  N   UNL     1       3.855  -2.021   1.881  0.00  0.00    -0.152 NA
ATOM     17  C   UNL     1       2.777  -1.292   2.027  0.00  0.00    +0.181 C 
ATOM     18  S   UNL     1       2.507   0.177   2.982  0.00  0.00    -0.038 S 
ATOM     19  H   UNL     1      -0.594  -2.758   0.739  0.00  0.00    +0.188 HD
BRANCH   7  20
ATOM     20  C   UNL     1      -0.113   1.584   2.904  0.00  0.00    +0.067 C 
BRANCH  20  22
ATOM     21  C   UNL     1      -2.131   0.123   2.729  0.00  0.00    +0.007 C 
ATOM     22  C   UNL     1      -1.468   1.403   2.218  0.00  0.00    -0.011 C 
ATOM     23  C   UNL     1      -2.363   2.603   2.532  0.00  0.00    +0.007 C 
ENDBRANCH  20  22
ENDBRANCH   7  20
ENDBRANCH   1  13
BRANCH   5  24
ATOM     24  O   UNL     1       5.584  -6.818  -3.639  0.00  0.00    -0.489 OA
BRANCH  24  25
ATOM     25  C   UNL     1       6.890  -7.099  -4.146  0.00  0.00    +0.270 C 
BRANCH  25  26
ATOM     26  C   UNL     1       6.862  -8.413  -4.929  0.00  0.00    +0.270 C 
BRANCH  26  27
ATOM     27  O   UNL     1       6.032  -8.262  -6.083  0.00  0.00    -0.489 OA
BRANCH  27  28
ATOM     28  C   UNL     1       5.899  -9.346  -6.893  0.00  0.00    +0.121 A 
ATOM     29  C   UNL     1       6.557 -10.528  -6.586  0.00  0.00    +0.048 A 
ATOM     30  C   UNL     1       6.415 -11.629  -7.408  0.00  0.00    +0.036 A 
ATOM     31  C   UNL     1       5.627 -11.551  -8.541  0.00  0.00    +0.126 A 
ATOM     32  C   UNL     1       4.975 -10.372  -8.852  0.00  0.00    +0.036 A 
ATOM     33  C   UNL     1       5.109  -9.269  -8.031  0.00  0.00    +0.048 A 
BRANCH  31  34
ATOM     34  N   UNL     1       5.482 -12.730  -9.423  0.00  0.00    +0.056 N 
ATOM     35  O   UNL     1       4.788 -12.662 -10.422  0.00  0.00    -0.126 OA
ATOM     36  O   UNL     1       6.056 -13.769  -9.150  0.00  0.00    -0.126 OA
ENDBRANCH  31  34
ENDBRANCH  27  28
ENDBRANCH  26  27
ENDBRANCH  25  26
ENDBRANCH  24  25
ENDBRANCH   5  24
TORSDOF 9
