REMARK  Name = ZINC25572658
REMARK  17 active torsions:
REMARK  status: ('A' for Active; 'I' for Inactive)
REMARK    1  A    between atoms: C_1  and  C_2
REMARK    2  A    between atoms: C_2  and  C_4
REMARK    3  A    between atoms: C_2  and  N_20
REMARK    4  A    between atoms: C_9  and  O_10
REMARK    5  A    between atoms: O_10  and  C_11
REMARK    6  A    between atoms: C_11  and  C_12
REMARK    7  A    between atoms: C_12  and  C_14
REMARK    8  A    between atoms: C_12  and  O_19
REMARK    9  A    between atoms: C_14  and  N_15
REMARK   10  A    between atoms: N_15  and  C_16
REMARK   11  A    between atoms: C_16  and  C_17
REMARK   12  A    between atoms: C_16  and  C_18
REMARK   13  A    between atoms: N_20  and  C_21
REMARK   14  A    between atoms: C_21  and  C_22
REMARK   15  A    between atoms: C_22  and  C_23
REMARK   16  A    between atoms: C_23  and  C_24
REMARK   17  A    between atoms: C_23  and  C_30
REMARK                            x       y       z     vdW  Elec       q    Type
REMARK                         _______ _______ _______ _____ _____    ______ ____
ROOT
ATOM      1  C   UNL     1       0.184   2.784  -0.645  0.00  0.00    -0.009 C 
ATOM      2  C   UNL     1       0.724   1.386  -0.339  0.00  0.00    -0.040 C 
ENDROOT
BRANCH   2   3
ATOM      3  C   UNL     1       1.768   1.477   0.744  0.00  0.00    -0.020 A 
ATOM      4  C   UNL     1       3.106   1.566   0.409  0.00  0.00    +0.005 A 
ATOM      5  C   UNL     1       4.064   1.649   1.402  0.00  0.00    +0.000 A 
ATOM      6  C   UNL     1       3.687   1.644   2.732  0.00  0.00    +0.004 A 
ATOM      7  C   UNL     1       2.351   1.555   3.073  0.00  0.00    +0.046 A 
ATOM      8  C   UNL     1       1.387   1.477   2.078  0.00  0.00    +0.122 A 
BRANCH   8   9
ATOM      9  O   UNL     1       0.071   1.395   2.410  0.00  0.00    -0.489 OA
BRANCH   9  10
ATOM     10  C   UNL     1      -0.248   1.401   3.803  0.00  0.00    +0.258 C 
BRANCH  10  11
ATOM     11  C   UNL     1      -1.764   1.302   3.979  0.00  0.00    +0.135 C 
BRANCH  11  12
ATOM     12  O   UNL     1      -2.220   0.039   3.491  0.00  0.00    -0.390 OA
ATOM     13  H   UNL     1      -1.830  -0.721   3.945  0.00  0.00    +0.210 HD
ENDBRANCH  11  12
BRANCH  11  14
ATOM     14  C   UNL     1      -2.115   1.433   5.462  0.00  0.00    -0.047 C 
BRANCH  14  15
ATOM     15  N   UNL     1      -3.571   1.339   5.631  0.00  0.00    +0.382 N 
ATOM     16  H   UNL     1      -4.019   2.081   5.113  0.00  0.00    -0.085 HD
ATOM     17  H   UNL     1      -3.893   0.447   5.287  0.00  0.00    -0.085 HD
BRANCH  15  18
ATOM     18  C   UNL     1      -3.908   1.465   7.056  0.00  0.00    -0.078 C 
ATOM     19  C   UNL     1      -3.533   2.865   7.547  0.00  0.00    -0.014 C 
ATOM     20  C   UNL     1      -5.410   1.243   7.246  0.00  0.00    -0.014 C 
ENDBRANCH  15  18
ENDBRANCH  14  15
ENDBRANCH  11  14
ENDBRANCH  10  11
ENDBRANCH   9  10
ENDBRANCH   8   9
ENDBRANCH   2   3
BRANCH   2  21
ATOM     21  N   UNL     1       1.325   0.816  -1.552  0.00  0.00    +0.384 N 
ATOM     22  H   UNL     1       2.026   1.449  -1.909  0.00  0.00    -0.085 HD
ATOM     23  H   UNL     1       1.754  -0.070  -1.331  0.00  0.00    -0.085 HD
BRANCH  21  24
ATOM     24  C   UNL     1       0.283   0.616  -2.567  0.00  0.00    -0.081 C 
BRANCH  24  25
ATOM     25  C   UNL     1       0.909   0.023  -3.831  0.00  0.00    -0.006 C 
BRANCH  25  26
ATOM     26  C   UNL     1      -0.177  -0.186  -4.889  0.00  0.00    +0.047 C 
BRANCH  26  27
ATOM     27  C   UNL     1       0.457  -0.654  -6.173  0.00  0.00    -0.040 A 
ATOM     28  C   UNL     1       0.189   0.007  -7.357  0.00  0.00    +0.004 A 
ATOM     29  C   UNL     1       0.770  -0.422  -8.536  0.00  0.00    +0.000 A 
ATOM     30  C   UNL     1       1.619  -1.513  -8.530  0.00  0.00    +0.000 A 
ATOM     31  C   UNL     1       1.887  -2.174  -7.346  0.00  0.00    +0.000 A 
ATOM     32  C   UNL     1       1.310  -1.742  -6.167  0.00  0.00    +0.004 A 
ENDBRANCH  26  27
BRANCH  26  33
ATOM     33  C   UNL     1      -1.157  -1.223  -4.405  0.00  0.00    -0.040 A 
ATOM     34  C   UNL     1      -0.701  -2.449  -3.957  0.00  0.00    +0.004 A 
ATOM     35  C   UNL     1      -1.600  -3.400  -3.513  0.00  0.00    +0.000 A 
ATOM     36  C   UNL     1      -2.955  -3.126  -3.516  0.00  0.00    +0.000 A 
ATOM     37  C   UNL     1      -3.411  -1.900  -3.963  0.00  0.00    +0.000 A 
ATOM     38  C   UNL     1      -2.512  -0.947  -4.404  0.00  0.00    +0.004 A 
ENDBRANCH  26  33
ENDBRANCH  25  26
ENDBRANCH  24  25
ENDBRANCH  21  24
ENDBRANCH   2  21
TORSDOF 14
