REMARK  Name = ZINC12164200
REMARK  9 active torsions:
REMARK  status: ('A' for Active; 'I' for Inactive)
REMARK    1  A    between atoms: C_1  and  C_2
REMARK    2  A    between atoms: C_2  and  C_4
REMARK    3  A    between atoms: C_2  and  C_14
REMARK    4  A    between atoms: C_4  and  C_5
REMARK    5  A    between atoms: C_14  and  N_67
REMARK    6  A    between atoms: C_17  and  C_20
REMARK    7  A    between atoms: C_20  and  C_27
REMARK    8  A    between atoms: C_27  and  C_28
REMARK    9  A    between atoms: C_28  and  C_29
REMARK                            x       y       z     vdW  Elec       q    Type
REMARK                         _______ _______ _______ _____ _____    ______ ____
ROOT
ATOM      1  C   UNL     1       9.114  -1.184  -0.196  0.00  0.00    -0.078 C 
ATOM      2  C   UNL     1      10.197  -1.879  -1.023  0.00  0.00    -0.013 C 
ATOM      3  C   UNL     1      11.482  -1.974  -0.196  0.00  0.00    +0.018 C 
ATOM      4  C   UNL     1      11.190  -2.731   1.102  0.00  0.00    -0.013 C 
ATOM      5  C   UNL     1      10.078  -2.010   1.868  0.00  0.00    -0.078 C 
ATOM      6  N   UNL     1       8.862  -1.974   1.027  0.00  0.00    +0.380 N 
ATOM      7  H   UNL     1       8.614  -2.934   0.758  0.00  0.00    -0.082 HD
ENDROOT
BRANCH   3   8
ATOM      8  C   UNL     1      12.550  -2.723  -0.995  0.00  0.00    +0.115 C 
ATOM      9  C   UNL     1      13.789  -2.947  -0.150  0.00  0.00    +0.244 C 
ATOM     10  O   UNL     1      14.502  -2.100   0.343  0.00  0.00    -0.273 OA
ATOM     11  N   UNL     1      13.931  -4.285  -0.062  0.00  0.00    -0.238 N 
ATOM     12  C   UNL     1      12.966  -4.929  -0.727  0.00  0.00    +0.307 C 
ATOM     13  O   UNL     1      12.883  -6.140  -0.792  0.00  0.00    -0.252 OA
ATOM     14  N   UNL     1      12.097  -4.087  -1.315  0.00  0.00    -0.285 N 
ATOM     15  H   UNL     1      14.646  -4.725   0.424  0.00  0.00    +0.159 HD
ATOM     16  H   UNL     1      11.323  -4.332  -1.846  0.00  0.00    +0.151 HD
BRANCH   8  17
ATOM     17  C   UNL     1      12.899  -1.958  -2.274  0.00  0.00    +0.040 C 
BRANCH  17  18
ATOM     18  C   UNL     1      13.874  -2.786  -3.113  0.00  0.00    +0.038 C 
BRANCH  18  19
ATOM     19  C   UNL     1      14.217  -2.032  -4.373  0.00  0.00    -0.047 A 
ATOM     20  C   UNL     1      13.456  -2.209  -5.513  0.00  0.00    +0.003 A 
ATOM     21  C   UNL     1      13.768  -1.515  -6.667  0.00  0.00    +0.000 A 
ATOM     22  C   UNL     1      14.847  -0.651  -6.683  0.00  0.00    +0.000 A 
ATOM     23  C   UNL     1      15.611  -0.478  -5.545  0.00  0.00    +0.000 A 
ATOM     24  C   UNL     1      15.297  -1.169  -4.389  0.00  0.00    +0.003 A 
ENDBRANCH  18  19
ENDBRANCH  17  18
ENDBRANCH   8  17
ENDBRANCH   3   8
BRANCH   6  25
ATOM     25  C   UNL     1       7.740  -1.385   1.787  0.00  0.00    -0.075 C 
BRANCH  25  27
ATOM     26  C   UNL     1       6.889  -3.673   2.320  0.00  0.00    +0.006 C 
ATOM     27  C   UNL     1       7.353  -2.343   2.916  0.00  0.00    -0.026 C 
BRANCH  27  28
ATOM     28  C   UNL     1       6.218  -1.729   3.738  0.00  0.00    +0.036 C 
BRANCH  28  29
ATOM     29  C   UNL     1       5.920  -2.614   4.921  0.00  0.00    -0.043 A 
ATOM     30  C   UNL     1       6.584  -2.414   6.117  0.00  0.00    +0.007 A 
ATOM     31  C   UNL     1       6.314  -3.223   7.205  0.00  0.00    +0.050 A 
ATOM     32  C   UNL     1       5.376  -4.237   7.099  0.00  0.00    +0.166 A 
ATOM     33  C   UNL     1       4.707  -4.438   5.895  0.00  0.00    +0.166 A 
ATOM     34  C   UNL     1       4.983  -3.624   4.808  0.00  0.00    +0.053 A 
ATOM     35  O   UNL     1       3.844  -5.486   6.045  0.00  0.00    -0.453 OA
ATOM     36  C   UNL     1       3.695  -5.661   7.466  0.00  0.00    +0.466 C 
ATOM     37  O   UNL     1       4.933  -5.158   8.004  0.00  0.00    -0.453 OA
ENDBRANCH  28  29
ENDBRANCH  27  28
ENDBRANCH  25  27
ENDBRANCH   6  25
TORSDOF 8
