REMARK  Name = ZINC45188401
REMARK  9 active torsions:
REMARK  status: ('A' for Active; 'I' for Inactive)
REMARK    1  A    between atoms: C_4  and  O_7
REMARK    2  A    between atoms: O_7  and  C_8
REMARK    3  A    between atoms: C_11  and  S_14
REMARK    4  A    between atoms: S_14  and  N_17
REMARK    5  A    between atoms: N_17  and  C_18
REMARK    6  A    between atoms: C_22  and  C_24
REMARK    7  A    between atoms: C_24  and  C_25
REMARK    8  A    between atoms: C_25  and  N_26
REMARK    9  A    between atoms: C_29  and  N_32
REMARK                            x       y       z     vdW  Elec       q    Type
REMARK                         _______ _______ _______ _____ _____    ______ ____
ROOT
ATOM      1  C   UNL     1       2.203  -7.143   2.702  0.00  0.00    +0.048 A 
ATOM      2  C   UNL     1       1.679  -5.863   2.825  0.00  0.00    +0.024 A 
ATOM      3  C   UNL     1       0.656  -5.620   3.720  0.00  0.00    +0.002 A 
ATOM      4  C   UNL     1       0.153  -6.650   4.495  0.00  0.00    +0.004 A 
ATOM      5  C   UNL     1       0.673  -7.926   4.375  0.00  0.00    -0.044 A 
ATOM      6  C   UNL     1       1.692  -8.177   3.477  0.00  0.00    +0.028 A 
ENDROOT
BRANCH   1   7
ATOM      7  N   UNL     1       3.238  -7.392   1.797  0.00  0.00    -0.216 N 
ATOM      8  H   UNL     1       3.998  -7.931   2.066  0.00  0.00    +0.174 HD
BRANCH   7   9
ATOM      9  S   UNL     1       3.166  -6.767   0.266  0.00  0.00    +0.074 S 
ATOM     10  O   UNL     1       4.299  -7.267  -0.431  0.00  0.00    -0.150 OA
ATOM     11  O   UNL     1       2.912  -5.376   0.406  0.00  0.00    -0.150 OA
BRANCH   9  15
ATOM     12  C   UNL     1      -0.398  -8.601  -1.743  0.00  0.00    +0.221 A 
ATOM     13  C   UNL     1      -0.548  -7.358  -1.141  0.00  0.00    +0.069 A 
ATOM     14  C   UNL     1       0.541  -6.776  -0.515  0.00  0.00    +0.035 A 
ATOM     15  C   UNL     1       1.748  -7.462  -0.515  0.00  0.00    +0.127 A 
ATOM     16  C   UNL     1       1.825  -8.694  -1.134  0.00  0.00    +0.143 A 
ATOM     17  N   UNL     1       0.768  -9.225  -1.717  0.00  0.00    -0.219 NA
BRANCH  12  18
ATOM     18  O   UNL     1      -1.458  -9.182  -2.359  0.00  0.00    -0.438 OA
BRANCH  18  22
ATOM     19  C   UNL     1      -0.987 -13.008  -3.827  0.00  0.00    +0.000 A 
ATOM     20  C   UNL     1      -0.981 -12.787  -2.462  0.00  0.00    +0.004 A 
ATOM     21  C   UNL     1      -1.138 -11.507  -1.968  0.00  0.00    +0.046 A 
ATOM     22  C   UNL     1      -1.303 -10.442  -2.843  0.00  0.00    +0.130 A 
ATOM     23  C   UNL     1      -1.309 -10.667  -4.212  0.00  0.00    +0.046 A 
ATOM     24  C   UNL     1      -1.151 -11.949  -4.701  0.00  0.00    +0.004 A 
ENDBRANCH  18  22
ENDBRANCH  12  18
ENDBRANCH   9  15
ENDBRANCH   7   9
ENDBRANCH   1   7
BRANCH   5  25
ATOM     25  C   UNL     1       0.123  -9.045   5.221  0.00  0.00    +0.050 C 
BRANCH  25  26
ATOM     26  C   UNL     1      -1.032  -9.723   4.482  0.00  0.00    +0.089 C 
BRANCH  26  27
ATOM     27  N   UNL     1      -1.568 -10.814   5.307  0.00  0.00    -0.302 NA
ATOM     28  C   UNL     1      -2.188 -10.292   6.532  0.00  0.00    +0.083 C 
ATOM     29  C   UNL     1      -2.603 -11.458   7.432  0.00  0.00    +0.000 C 
ATOM     30  C   UNL     1      -3.592 -12.351   6.678  0.00  0.00    -0.066 C 
ATOM     31  C   UNL     1      -2.939 -12.842   5.383  0.00  0.00    +0.000 C 
ATOM     32  C   UNL     1      -2.514 -11.636   4.542  0.00  0.00    +0.083 C 
BRANCH  30  33
ATOM     33  N   UNL     1      -3.950 -13.504   7.515  0.00  0.00    +0.382 N 
ATOM     34  C   UNL     1      -4.891 -14.363   6.786  0.00  0.00    -0.078 C 
ATOM     35  C   UNL     1      -5.204 -15.607   7.621  0.00  0.00    -0.019 C 
ATOM     36  C   UNL     1      -5.828 -15.177   8.952  0.00  0.00    -0.004 C 
ATOM     37  C   UNL     1      -4.869 -14.222   9.670  0.00  0.00    -0.019 C 
ATOM     38  C   UNL     1      -4.569 -13.030   8.759  0.00  0.00    -0.078 C 
ATOM     39  H   UNL     1      -3.117 -14.030   7.734  0.00  0.00    -0.081 HD
ENDBRANCH  30  33
ENDBRANCH  26  27
ENDBRANCH  25  26
ENDBRANCH   5  25
TORSDOF 9
