REMARK  Name = ZINC39669743
REMARK  9 active torsions:
REMARK  status: ('A' for Active; 'I' for Inactive)
REMARK    1  A    between atoms: C_1  and  C_2
REMARK    2  A    between atoms: C_2  and  C_3
REMARK    3  A    between atoms: C_2  and  C_4
REMARK    4  A    between atoms: C_2  and  N_29
REMARK    5  A    between atoms: C_4  and  N_5
REMARK    6  A    between atoms: C_6  and  C_8
REMARK    7  A    between atoms: C_19  and  C_21
REMARK    8  A    between atoms: C_25  and  O_26
REMARK    9  A    between atoms: O_26  and  C_27
REMARK                            x       y       z     vdW  Elec       q    Type
REMARK                         _______ _______ _______ _____ _____    ______ ____
ROOT
ATOM      1  C   UNL     1      -3.300  -4.862   0.419  0.00  0.00    +0.100 C 
ATOM      2  C   UNL     1      -2.740  -5.503   1.709  0.00  0.00    +0.121 C 
ATOM      3  N   UNL     1      -3.921  -5.665   2.590  0.00  0.00    -0.296 N 
ATOM      4  C   UNL     1      -5.008  -6.088   1.674  0.00  0.00    +0.115 C 
ATOM      5  C   UNL     1      -4.788  -5.252   0.399  0.00  0.00    -0.004 C 
ATOM      6  C   UNL     1      -5.098  -6.086  -0.841  0.00  0.00    -0.010 C 
ATOM      7  C   UNL     1      -6.594  -6.411  -0.869  0.00  0.00    -0.082 C 
ATOM      8  N   UNL     1      -7.368  -5.164  -0.888  0.00  0.00    +0.379 N 
ATOM      9  C   UNL     1      -7.135  -4.412   0.350  0.00  0.00    -0.082 C 
ATOM     10  C   UNL     1      -5.662  -4.001   0.431  0.00  0.00    -0.010 C 
ATOM     11  C   UNL     1      -3.990  -5.473   3.922  0.00  0.00    +0.251 C 
ATOM     12  O   UNL     1      -3.031  -5.027   4.523  0.00  0.00    -0.270 OA
ATOM     13  H   UNL     1      -7.084  -4.605  -1.678  0.00  0.00    -0.086 HD
ATOM     14  H   UNL     1      -8.351  -5.381  -0.969  0.00  0.00    -0.086 HD
ENDROOT
BRANCH  11  15
ATOM     15  C   UNL     1      -5.226  -5.801   4.649  0.00  0.00    +0.087 A 
ATOM     16  C   UNL     1      -6.018  -6.867   4.280  0.00  0.00    +0.063 A 
ATOM     17  S   UNL     1      -7.285  -6.840   5.380  0.00  0.00    -0.081 S 
ATOM     18  C   UNL     1      -6.819  -5.430   6.361  0.00  0.00    +0.120 A 
ATOM     19  C   UNL     1      -5.663  -5.025   5.787  0.00  0.00    +0.158 A 
ATOM     20 CL   UNL     1      -7.643  -4.746   7.727  0.00  0.00    -0.072 Cl
BRANCH  19  21
ATOM     21  O   UNL     1      -4.961  -3.954   6.247  0.00  0.00    -0.492 OA
ATOM     22  C   UNL     1      -5.285  -2.678   5.692  0.00  0.00    +0.277 C 
ENDBRANCH  19  21
ENDBRANCH  11  15
BRANCH   1  24
ATOM     23  N   UNL     1      -2.979  -2.664  -0.668  0.00  0.00    -0.313 N 
ATOM     24  C   UNL     1      -3.151  -3.363   0.471  0.00  0.00    +0.218 C 
ATOM     25  O   UNL     1      -3.185  -2.787   1.537  0.00  0.00    -0.275 OA
ATOM     26  H   UNL     1      -2.952  -3.125  -1.521  0.00  0.00    +0.149 HD
BRANCH  23  27
ATOM     27  C   UNL     1      -2.834  -1.207  -0.618  0.00  0.00    +0.126 C 
BRANCH  27  29
ATOM     28  C   UNL     1      -2.756   0.878  -1.992  0.00  0.00    +0.029 C 
ATOM     29  C   UNL     1      -2.778  -0.651  -2.043  0.00  0.00    +0.032 C 
ATOM     30  C   UNL     1      -1.513  -1.157  -2.739  0.00  0.00    +0.029 C 
BRANCH  29  31
ATOM     31  N   UNL     1      -3.961  -1.099  -2.790  0.00  0.00    -0.291 NA
ATOM     32  C   UNL     1      -3.848  -0.750  -4.213  0.00  0.00    +0.113 C 
ATOM     33  C   UNL     1      -5.070  -1.286  -4.963  0.00  0.00    +0.175 C 
ATOM     34  O   UNL     1      -6.258  -0.757  -4.369  0.00  0.00    -0.377 OA
ATOM     35  C   UNL     1      -6.401  -1.079  -2.983  0.00  0.00    +0.175 C 
ATOM     36  C   UNL     1      -5.192  -0.540  -2.213  0.00  0.00    +0.113 C 
ENDBRANCH  29  31
ENDBRANCH  27  29
ENDBRANCH  23  27
ENDBRANCH   1  24
TORSDOF 6
