REMARK  Name = ZINC29482861
REMARK  5 active torsions:
REMARK  status: ('A' for Active; 'I' for Inactive)
REMARK    1  A    between atoms: C_10  and  C_13
REMARK    2  A    between atoms: C_13  and  C_14
REMARK    3  A    between atoms: N_16  and  C_17
REMARK    4  A    between atoms: C_22  and  S_23
REMARK    5  A    between atoms: S_23  and  C_24
REMARK                            x       y       z     vdW  Elec       q    Type
REMARK                         _______ _______ _______ _____ _____    ______ ____
ROOT
ATOM      1  C   UNL     1       4.762  -1.688  -2.945  0.00  0.00    +0.219 C 
ATOM      2  O   UNL     1       5.723  -1.627  -2.208  0.00  0.00    -0.275 OA
ATOM      3  N   UNL     1       4.896  -1.388  -4.252  0.00  0.00    -0.285 N 
ATOM      4  H   UNL     1       4.144  -1.499  -4.855  0.00  0.00    +0.155 HD
ENDROOT
BRANCH   3   5
ATOM      5  C   UNL     1       6.122  -0.917  -4.741  0.00  0.00    +0.047 A 
ATOM      6  C   UNL     1       7.311  -1.386  -4.204  0.00  0.00    +0.024 A 
ATOM      7  C   UNL     1       8.520  -0.920  -4.688  0.00  0.00    +0.002 A 
ATOM      8  C   UNL     1       8.547   0.014  -5.707  0.00  0.00    +0.001 A 
ATOM      9  C   UNL     1       7.367   0.488  -6.249  0.00  0.00    +0.017 A 
ATOM     10  C   UNL     1       6.150   0.021  -5.773  0.00  0.00    +0.034 A 
BRANCH  10  11
ATOM     11  S   UNL     1       4.643   0.618  -6.466  0.00  0.00    -0.054 S 
BRANCH  11  12
ATOM     12  C   UNL     1       5.181   1.789  -7.743  0.00  0.00    +0.404 C 
ATOM     13  F   UNL     1       5.931   2.811  -7.152  0.00  0.00    -0.197 F 
ATOM     14  F   UNL     1       5.967   1.121  -8.687  0.00  0.00    -0.197 F 
ENDBRANCH  11  12
ENDBRANCH  10  11
ENDBRANCH   3   5
BRANCH   1  15
ATOM     15  C   UNL     1       3.418  -2.098  -2.400  0.00  0.00    +0.120 C 
BRANCH  15  25
ATOM     16  C   UNL     1      -0.036   1.325   0.020  0.00  0.00    +0.002 A 
ATOM     17  C   UNL     1       1.141   2.051   0.016  0.00  0.00    +0.001 A 
ATOM     18  C   UNL     1       2.357   1.391   0.003  0.00  0.00    +0.016 A 
ATOM     19  C   UNL     1       2.391   0.007  -0.009  0.00  0.00    +0.030 A 
ATOM     20  C   UNL     1       1.208  -0.732  -0.012  0.00  0.00    +0.047 A 
ATOM     21  C   UNL     1      -0.008  -0.055   0.007  0.00  0.00    +0.024 A 
ATOM     22  N   UNL     1       1.210  -2.123  -0.047  0.00  0.00    -0.284 N 
ATOM     23  C   UNL     1       2.231  -2.908  -0.377  0.00  0.00    +0.231 C 
ATOM     24  O   UNL     1       2.101  -4.107  -0.249  0.00  0.00    -0.274 OA
ATOM     25  C   UNL     1       3.541  -2.380  -0.901  0.00  0.00    +0.146 C 
ATOM     26  S   UNL     1       3.939  -0.843  -0.015  0.00  0.00    -0.110 S 
ATOM     27  H   UNL     1       0.381  -2.566   0.194  0.00  0.00    +0.155 HD
ENDBRANCH  15  25
ENDBRANCH   1  15
TORSDOF 5
