REMARK  Name = ZINC64774119
REMARK  7 active torsions:
REMARK  status: ('A' for Active; 'I' for Inactive)
REMARK    1  A    between atoms: C_1  and  O_2
REMARK    2  A    between atoms: O_2  and  C_3
REMARK    3  A    between atoms: C_6  and  C_10
REMARK    4  A    between atoms: C_8  and  O_9
REMARK    5  A    between atoms: C_18  and  S_24
REMARK    6  A    between atoms: S_24  and  C_25
REMARK    7  A    between atoms: C_25  and  C_26
REMARK                            x       y       z     vdW  Elec       q    Type
REMARK                         _______ _______ _______ _____ _____    ______ ____
ROOT
ATOM      1  C   UNL     1       2.507  -2.501  -4.386  0.00  0.00    +0.047 C 
ATOM      2  C   UNL     1       3.937  -1.971  -4.533  0.00  0.00    +0.105 C 
ATOM      3  C   UNL     1       3.937  -0.560  -5.042  0.00  0.00    +0.219 C 
ATOM      4  O   UNL     1       4.932   0.111  -4.870  0.00  0.00    -0.275 OA
ATOM      5  N   UNL     1       2.898   0.000  -5.677  0.00  0.00    -0.273 N 
ATOM      6  C   UNL     1       1.722  -0.678  -5.833  0.00  0.00    +0.117 C 
ATOM      7  N   UNL     1       0.619  -0.043  -6.105  0.00  0.00    -0.212 NA
ATOM      8  C   UNL     1      -0.569  -0.661  -6.150  0.00  0.00    +0.182 C 
ATOM      9  N   UNL     1      -0.703  -1.951  -5.878  0.00  0.00    -0.154 NA
ATOM     10  C   UNL     1       0.345  -2.721  -5.620  0.00  0.00    +0.249 C 
ATOM     11  O   UNL     1       0.171  -3.890  -5.337  0.00  0.00    -0.273 OA
ATOM     12  C   UNL     1       1.739  -2.177  -5.671  0.00  0.00    +0.148 C 
ATOM     13  H   UNL     1       2.982   0.900  -6.031  0.00  0.00    +0.156 HD
ENDROOT
BRANCH   1  17
ATOM     14  C   UNL     1       0.604  -0.619  -1.052  0.00  0.00    +0.161 A 
ATOM     15  C   UNL     1       0.558  -1.996  -1.192  0.00  0.00    +0.049 A 
ATOM     16  C   UNL     1       1.174  -2.602  -2.271  0.00  0.00    +0.008 A 
ATOM     17  C   UNL     1       1.837  -1.836  -3.212  0.00  0.00    -0.039 A 
ATOM     18  C   UNL     1       1.887  -0.461  -3.078  0.00  0.00    +0.053 A 
ATOM     19  C   UNL     1       1.266   0.153  -2.001  0.00  0.00    +0.159 A 
BRANCH  14  21
ATOM     20  C   UNL     1      -0.663  -0.876   0.945  0.00  0.00    +0.277 C 
ATOM     21  O   UNL     1      -0.002  -0.021   0.009  0.00  0.00    -0.491 OA
ENDBRANCH  14  21
BRANCH  19  22
ATOM     22  O   UNL     1       1.309   1.506  -1.871  0.00  0.00    -0.503 OA
ATOM     23  H   UNL     1       2.069   1.829  -1.367  0.00  0.00    +0.292 HD
ENDBRANCH  19  22
ENDBRANCH   1  17
BRANCH   8  24
ATOM     24  S   UNL     1      -1.999   0.272  -6.585  0.00  0.00    -0.084 S 
BRANCH  24  25
ATOM     25  C   UNL     1      -3.348  -0.939  -6.521  0.00  0.00    +0.112 C 
BRANCH  25  26
ATOM     26  C   UNL     1      -4.647  -0.263  -6.877  0.00  0.00    -0.037 A 
ATOM     27  C   UNL     1      -5.420   0.313  -5.886  0.00  0.00    +0.006 A 
ATOM     28  C   UNL     1      -6.612   0.934  -6.212  0.00  0.00    +0.020 A 
ATOM     29  C   UNL     1      -7.030   0.978  -7.530  0.00  0.00    +0.041 A 
ATOM     30  C   UNL     1      -6.256   0.401  -8.521  0.00  0.00    +0.020 A 
ATOM     31  C   UNL     1      -5.062  -0.214  -8.194  0.00  0.00    +0.006 A 
ATOM     32 CL   UNL     1      -8.527   1.756  -7.939  0.00  0.00    -0.084 Cl
ENDBRANCH  25  26
ENDBRANCH  24  25
ENDBRANCH   8  24
TORSDOF 6
