REMARK  Name = ZINC38963630
REMARK  6 active torsions:
REMARK  status: ('A' for Active; 'I' for Inactive)
REMARK    1  A    between atoms: C_1  and  O_2
REMARK    2  A    between atoms: O_2  and  C_3
REMARK    3  A    between atoms: C_3  and  C_4
REMARK    4  A    between atoms: C_8  and  S_10
REMARK    5  A    between atoms: S_10  and  C_11
REMARK    6  A    between atoms: C_13  and  C_24
REMARK                            x       y       z     vdW  Elec       q    Type
REMARK                         _______ _______ _______ _____ _____    ______ ____
ROOT
ATOM      1  C   UNL     1       0.507  -3.119  -3.796  0.00  0.00    +0.171 C 
ATOM      2  C   UNL     1       1.031  -3.951  -4.950  0.00  0.00    -0.008 C 
ATOM      3  C   UNL     1       2.393  -3.840  -5.246  0.00  0.00    +0.002 A 
ATOM      4  C   UNL     1       2.962  -4.580  -6.304  0.00  0.00    +0.011 A 
ATOM      5  C   UNL     1       4.288  -4.456  -6.575  0.00  0.00    +0.021 A 
ATOM      6  C   UNL     1       5.105  -3.610  -5.826  0.00  0.00    +0.043 A 
ATOM      7  C   UNL     1       4.609  -2.865  -4.784  0.00  0.00    +0.044 A 
ATOM      8  C   UNL     1       3.245  -2.947  -4.453  0.00  0.00    +0.042 A 
ATOM      9  N   UNL     1       2.762  -2.220  -3.439  0.00  0.00    -0.284 N 
ATOM     10  C   UNL     1       1.498  -2.242  -3.066  0.00  0.00    +0.235 C 
ATOM     11  O   UNL     1       1.129  -1.554  -2.132  0.00  0.00    -0.274 OA
ATOM     12 CL   UNL     1       6.792  -3.495  -6.220  0.00  0.00    -0.083 Cl
ATOM     13  H   UNL     1       3.375  -1.648  -2.952  0.00  0.00    +0.155 HD
ENDROOT
BRANCH   2  14
ATOM     14  C   UNL     1       0.180  -4.804  -5.694  0.00  0.00    -0.001 A 
ATOM     15  C   UNL     1       0.302  -6.199  -5.582  0.00  0.00    +0.010 A 
ATOM     16  C   UNL     1      -0.530  -7.019  -6.309  0.00  0.00    +0.001 A 
ATOM     17  C   UNL     1      -1.488  -6.474  -7.150  0.00  0.00    +0.001 A 
ATOM     18  C   UNL     1      -1.619  -5.101  -7.269  0.00  0.00    +0.020 A 
ATOM     19  C   UNL     1      -0.798  -4.261  -6.545  0.00  0.00    +0.048 A 
ATOM     20 CL   UNL     1      -0.968  -2.539  -6.691  0.00  0.00    -0.083 Cl
ENDBRANCH   2  14
BRANCH   1  21
ATOM     21  S   UNL     1      -0.234  -4.248  -2.585  0.00  0.00    -0.070 S 
BRANCH  21  26
ATOM     22  C   UNL     1      -1.558  -1.030  -0.769  0.00  0.00    +0.075 A 
ATOM     23  C   UNL     1      -2.242  -1.508   0.311  0.00  0.00    +0.095 A 
ATOM     24  C   UNL     1      -2.312  -2.898   0.510  0.00  0.00    +0.252 A 
ATOM     25  N   UNL     1      -1.699  -3.712  -0.375  0.00  0.00    -0.302 N 
ATOM     26  C   UNL     1      -1.031  -3.178  -1.435  0.00  0.00    +0.170 A 
ATOM     27  N   UNL     1      -0.975  -1.873  -1.617  0.00  0.00    -0.226 NA
ATOM     28  O   UNL     1      -2.914  -3.359   1.466  0.00  0.00    -0.268 OA
ATOM     29  H   UNL     1      -1.734  -4.674  -0.257  0.00  0.00    +0.171 HD
BRANCH  22  30
ATOM     30  C   UNL     1      -1.468   0.456  -1.005  0.00  0.00    +0.215 C 
BRANCH  30  32
ATOM     31  C   UNL     1       0.088   2.277  -1.088  0.00  0.00    +0.194 C 
ATOM     32  O   UNL     1      -0.108   0.877  -0.882  0.00  0.00    -0.377 OA
ENDBRANCH  30  32
ENDBRANCH  22  30
ENDBRANCH  21  26
ENDBRANCH   1  21
TORSDOF 5
