REMARK  Name = ZINC05595839
REMARK  9 active torsions:
REMARK  status: ('A' for Active; 'I' for Inactive)
REMARK    1  A    between atoms: C_1  and  C_2
REMARK    2  A    between atoms: C_5  and  C_7
REMARK    3  A    between atoms: C_10  and  C_11
REMARK    4  A    between atoms: C_10  and  O_18
REMARK    5  A    between atoms: N_23  and  C_24
REMARK    6  A    between atoms: C_24  and  C_25
REMARK    7  A    between atoms: C_25  and  N_48
REMARK    8  A    between atoms: C_26  and  N_48
REMARK    9  A    between atoms: C_27  and  N_48
REMARK                            x       y       z     vdW  Elec       q    Type
REMARK                         _______ _______ _______ _____ _____    ______ ____
ROOT
ATOM      1  C   UNL     1      -2.590   1.394   0.267  0.00  0.00    +0.180 C 
ATOM      2  C   UNL     1      -1.218   2.013   0.136  0.00  0.00    +0.074 C 
ATOM      3  C   UNL     1      -0.016   1.346   0.009  0.00  0.00    +0.133 C 
ATOM      4  C   UNL     1      -1.411   3.403   0.174  0.00  0.00    +0.249 C 
ATOM      5  O   UNL     1      -0.537   4.248   0.102  0.00  0.00    -0.282 OA
ATOM      6  C   UNL     1      -2.869   3.664   0.316  0.00  0.00    +0.288 C 
ATOM      7  O   UNL     1      -3.376   4.766   0.377  0.00  0.00    -0.266 OA
ATOM      8  N   UNL     1      -3.543   2.503   0.372  0.00  0.00    -0.282 N 
ENDROOT
BRANCH   3   9
ATOM      9  C   UNL     1       1.218   2.099  -0.269  0.00  0.00    +0.017 A 
ATOM     10  C   UNL     1       1.257   3.021  -1.321  0.00  0.00    +0.013 A 
ATOM     11  C   UNL     1       2.414   3.726  -1.573  0.00  0.00    +0.021 A 
ATOM     12  C   UNL     1       3.541   3.516  -0.793  0.00  0.00    +0.041 A 
ATOM     13  C   UNL     1       3.511   2.600   0.246  0.00  0.00    +0.021 A 
ATOM     14  C   UNL     1       2.360   1.892   0.513  0.00  0.00    +0.013 A 
ATOM     15 CL   UNL     1       4.996   4.403  -1.122  0.00  0.00    -0.084 Cl
ENDBRANCH   3   9
BRANCH   1  20
ATOM     16  C   UNL     1      -3.926   0.122  -4.428  0.00  0.00    +0.086 C 
ATOM     17  C   UNL     1      -3.481   0.009  -2.993  0.00  0.00    +0.102 A 
ATOM     18  C   UNL     1      -3.198  -1.135  -2.344  0.00  0.00    +0.045 A 
ATOM     19  C   UNL     1      -2.823  -0.778  -1.028  0.00  0.00    +0.047 A 
ATOM     20  C   UNL     1      -2.900   0.562  -0.951  0.00  0.00    +0.130 A 
ATOM     21  O   UNL     1      -3.304   1.034  -2.142  0.00  0.00    -0.463 OA
ENDBRANCH   1  20
BRANCH   3  22
ATOM     22  O   UNL     1       0.027   0.002   0.136  0.00  0.00    -0.506 OA
ATOM     23  H   UNL     1       0.968  -0.314   0.017  0.00  0.00    +0.292 HD
ENDBRANCH   3  22
BRANCH   8  24
ATOM     24  C   UNL     1      -4.994   2.367   0.516  0.00  0.00    +0.091 C 
BRANCH  24  25
ATOM     25  C   UNL     1      -5.356   2.307   2.001  0.00  0.00    -0.060 C 
BRANCH  25  28
ATOM     26  C   UNL     1      -7.274   0.879   1.621  0.00  0.00    -0.097 C 
ATOM     27  C   UNL     1      -7.221   2.347   3.546  0.00  0.00    -0.097 C 
ATOM     28  N   UNL     1      -6.824   2.192   2.130  0.00  0.00    +0.377 N 
ATOM     29  H   UNL     1      -7.267   2.934   1.576  0.00  0.00    -0.083 HD
ENDBRANCH  25  28
ENDBRANCH  24  25
ENDBRANCH   8  24
TORSDOF 6
