REMARK  Name = ZINC24224270
REMARK  11 active torsions:
REMARK  status: ('A' for Active; 'I' for Inactive)
REMARK    1  A    between atoms: C_1  and  C_2
REMARK    2  A    between atoms: C_2  and  C_4
REMARK    3  A    between atoms: C_2  and  O_18
REMARK    4  A    between atoms: N_6  and  C_7
REMARK    5  A    between atoms: C_8  and  C_15
REMARK    6  A    between atoms: O_18  and  C_19
REMARK    7  A    between atoms: C_19  and  C_21
REMARK    8  A    between atoms: C_21  and  O_22
REMARK    9  A    between atoms: O_22  and  C_23
REMARK   10  A    between atoms: C_30  and  C_32
REMARK   11  A    between atoms: C_30  and  C_33
REMARK                            x       y       z     vdW  Elec       q    Type
REMARK                         _______ _______ _______ _____ _____    ______ ____
ROOT
ATOM      1  C   UNL     1      -1.107   4.111   1.472  0.00  0.00    +0.062 C 
ATOM      2  C   UNL     1      -1.133   3.609   0.027  0.00  0.00    +0.259 C 
ENDROOT
BRANCH   2   3
ATOM      3  C   UNL     1      -2.347   4.162  -0.675  0.00  0.00    +0.258 C 
ATOM      4  O   UNL     1      -3.221   3.413  -1.056  0.00  0.00    -0.271 OA
ATOM      5  N   UNL     1      -2.460   5.490  -0.879  0.00  0.00    -0.276 N 
ATOM      6  H   UNL     1      -1.667   6.169  -0.533  0.00  0.00    +0.155 HD
BRANCH   5   7
ATOM      7  C   UNL     1      -3.577   5.999  -1.524  0.00  0.00    +0.084 A 
ATOM      8  C   UNL     1      -3.873   7.319  -1.818  0.00  0.00    +0.068 A 
ATOM      9  C   UNL     1      -5.128   7.592  -2.518  0.00  0.00    -0.023 A 
ATOM     10  C   UNL     1      -5.875   6.507  -2.795  0.00  0.00    -0.004 A 
ATOM     11  S   UNL     1      -4.942   5.140  -2.152  0.00  0.00    -0.077 S 
ATOM     12  C   UNL     1      -7.149   6.868  -3.511  0.00  0.00    +0.043 C 
ATOM     13  C   UNL     1      -6.907   8.300  -4.037  0.00  0.00    +0.010 C 
ATOM     14  C   UNL     1      -5.860   8.830  -3.037  0.00  0.00    +0.037 C 
BRANCH   8  15
ATOM     15  C   UNL     1      -2.960   8.404  -1.445  0.00  0.00    +0.244 C 
ATOM     16  O   UNL     1      -2.089   8.759  -2.218  0.00  0.00    -0.270 OA
ATOM     17  N   UNL     1      -3.085   9.008  -0.247  0.00  0.00    -0.325 N 
ATOM     18  H   UNL     1      -2.400   9.822   0.032  0.00  0.00    +0.145 HD
ATOM     19  H   UNL     1      -3.873   8.688   0.451  0.00  0.00    +0.145 HD
ENDBRANCH   8  15
ENDBRANCH   5   7
ENDBRANCH   2   3
BRANCH   2  20
ATOM     20  O   UNL     1      -1.190   2.158   0.019  0.00  0.00    -0.450 OA
BRANCH  20  21
ATOM     21  C   UNL     1      -0.018   1.503   0.010  0.00  0.00    +0.346 C 
ATOM     22  O   UNL     1       1.020   2.121   0.004  0.00  0.00    -0.247 OA
BRANCH  21  23
ATOM     23  C   UNL     1       0.002  -0.004   0.002  0.00  0.00    +0.349 C 
BRANCH  23  24
ATOM     24  O   UNL     1       1.356  -0.462  -0.013  0.00  0.00    -0.477 OA
BRANCH  24  25
ATOM     25  C   UNL     1       1.552  -1.808  -0.022  0.00  0.00    +0.163 A 
ATOM     26  C   UNL     1       0.465  -2.664  -0.017  0.00  0.00    +0.049 A 
ATOM     27  C   UNL     1       0.656  -4.033  -0.025  0.00  0.00    +0.004 A 
ATOM     28  C   UNL     1       1.940  -4.548  -0.035  0.00  0.00    +0.007 A 
ATOM     29  C   UNL     1       3.026  -3.699  -0.039  0.00  0.00    +0.002 A 
ATOM     30  C   UNL     1       2.850  -2.322  -0.043  0.00  0.00    +0.166 A 
ATOM     31  O   UNL     1       4.048  -1.672  -0.066  0.00  0.00    -0.482 OA
ATOM     32  C   UNL     1       5.084  -2.573   0.359  0.00  0.00    +0.109 C 
ATOM     33  C   UNL     1       4.520  -3.957  -0.039  0.00  0.00    +0.086 C 
ATOM     34  C   UNL     1       5.290  -2.486   1.873  0.00  0.00    +0.056 C 
ATOM     35  C   UNL     1       6.391  -2.286  -0.384  0.00  0.00    +0.056 C 
ENDBRANCH  24  25
ENDBRANCH  23  24
ENDBRANCH  21  23
ENDBRANCH  20  21
ENDBRANCH   2  20
TORSDOF 8
