REMARK  Name = ZINC63303028
REMARK  5 active torsions:
REMARK  status: ('A' for Active; 'I' for Inactive)
REMARK    1  A    between atoms: N_17  and  C_18
REMARK    2  A    between atoms: C_18  and  C_19
REMARK    3  A    between atoms: C_19  and  C_20
REMARK    4  A    between atoms: C_20  and  C_21
REMARK    5  A    between atoms: N_26  and  C_29
REMARK                            x       y       z     vdW  Elec       q    Type
REMARK                         _______ _______ _______ _____ _____    ______ ____
ROOT
ATOM      1  C   UNL     1      -0.033   1.345  -0.008  0.00  0.00    +0.001 A 
ATOM      2  C   UNL     1       1.149   2.097  -0.021  0.00  0.00    +0.002 A 
ATOM      3  C   UNL     1       2.373   1.529  -0.044  0.00  0.00    +0.026 A 
ATOM      4  C   UNL     1       2.511   0.115  -0.057  0.00  0.00    +0.043 A 
ATOM      5  N   UNL     1       3.573  -0.659  -0.060  0.00  0.00    -0.376 N 
ATOM      6  C   UNL     1       3.134  -2.050  -0.152  0.00  0.00    +0.124 C 
ATOM      7  C   UNL     1       3.657  -2.893   1.017  0.00  0.00    +0.138 C 
ATOM      8  N   UNL     1       2.862  -4.129   1.073  0.00  0.00    -0.283 N 
ATOM      9  C   UNL     1       1.410  -4.075   1.269  0.00  0.00    +0.114 C 
ATOM     10  C   UNL     1       0.775  -3.242   0.140  0.00  0.00    +0.052 C 
ATOM     11  C   UNL     1       1.619  -2.002  -0.042  0.00  0.00    -0.036 C 
ATOM     12  C   UNL     1       1.275  -0.706  -0.037  0.00  0.00    -0.001 A 
ATOM     13  C   UNL     1      -0.016  -0.007  -0.015  0.00  0.00    +0.010 A 
ATOM     14  C   UNL     1       3.475  -5.323   0.943  0.00  0.00    +0.302 C 
ATOM     15  O   UNL     1       4.661  -5.372   0.682  0.00  0.00    -0.253 OA
ATOM     16  N   UNL     1       2.772  -6.462   1.102  0.00  0.00    -0.299 N 
ATOM     17  H   UNL     1       1.812  -6.424   1.238  0.00  0.00    +0.150 HD
ATOM     18  H   UNL     1       4.494  -0.358  -0.009  0.00  0.00    +0.160 HD
ENDROOT
BRANCH  16  19
ATOM     19  C   UNL     1       3.457  -7.756   1.070  0.00  0.00    +0.106 C 
BRANCH  19  20
ATOM     20  C   UNL     1       2.437  -8.878   1.273  0.00  0.00    +0.028 C 
BRANCH  20  21
ATOM     21  C   UNL     1       3.152 -10.230   1.240  0.00  0.00    +0.097 C 
BRANCH  21  22
ATOM     22  C   UNL     1       2.148 -11.335   1.440  0.00  0.00    +0.216 C 
ATOM     23  O   UNL     1       0.975 -11.068   1.595  0.00  0.00    -0.276 OA
ATOM     24  N   UNL     1       2.553 -12.621   1.448  0.00  0.00    -0.298 N 
ATOM     25  C   UNL     1       3.971 -12.959   1.268  0.00  0.00    +0.126 C 
ATOM     26  C   UNL     1       4.425 -13.819   2.454  0.00  0.00    +0.124 C 
ATOM     27  N   UNL     1       3.456 -14.907   2.643  0.00  0.00    -0.327 N 
ATOM     28  C   UNL     1       2.037 -14.569   2.823  0.00  0.00    +0.124 C 
ATOM     29  C   UNL     1       1.584 -13.709   1.642  0.00  0.00    +0.126 C 
BRANCH  27  30
ATOM     30  C   UNL     1       3.875 -16.239   2.651  0.00  0.00    +0.031 A 
ATOM     31  C   UNL     1       5.230 -16.543   2.603  0.00  0.00    +0.023 A 
ATOM     32  C   UNL     1       5.643 -17.860   2.611  0.00  0.00    +0.003 A 
ATOM     33  C   UNL     1       4.708 -18.879   2.667  0.00  0.00    +0.020 A 
ATOM     34  C   UNL     1       3.358 -18.581   2.715  0.00  0.00    +0.043 A 
ATOM     35  C   UNL     1       2.939 -17.263   2.712  0.00  0.00    +0.043 A 
ATOM     36 CL   UNL     1       2.189 -19.862   2.784  0.00  0.00    -0.083 Cl
ENDBRANCH  27  30
ENDBRANCH  21  22
ENDBRANCH  20  21
ENDBRANCH  19  20
ENDBRANCH  16  19
TORSDOF 5
