REMARK  Name = ZINC09939073
REMARK  6 active torsions:
REMARK  status: ('A' for Active; 'I' for Inactive)
REMARK    1  A    between atoms: C_1  and  C_2
REMARK    2  A    between atoms: C_5  and  C_30
REMARK    3  A    between atoms: C_11  and  C_12
REMARK    4  A    between atoms: C_20  and  C_22
REMARK    5  A    between atoms: C_22  and  S_23
REMARK    6  A    between atoms: S_23  and  C_24
REMARK                            x       y       z     vdW  Elec       q    Type
REMARK                         _______ _______ _______ _____ _____    ______ ____
ROOT
ATOM      1  C   UNL     1       5.248  -2.189   9.126  0.00  0.00    +0.044 C 
ATOM      2  C   UNL     1       6.086  -2.144   7.874  0.00  0.00    -0.047 A 
ATOM      3  C   UNL     1       5.561  -1.616   6.733  0.00  0.00    +0.015 A 
ATOM      4  C   UNL     1       6.341  -1.573   5.569  0.00  0.00    +0.022 A 
ATOM      5  C   UNL     1       5.852  -1.040   4.361  0.00  0.00    +0.051 A 
ATOM      6  N   UNL     1       6.646  -1.036   3.311  0.00  0.00    -0.219 NA
ATOM      7  C   UNL     1       7.885  -1.520   3.371  0.00  0.00    +0.222 A 
ATOM      8  N   UNL     1       8.394  -2.035   4.472  0.00  0.00    -0.214 NA
ATOM      9  C   UNL     1       7.666  -2.079   5.595  0.00  0.00    +0.077 A 
ATOM     10  C   UNL     1       8.173  -2.615   6.788  0.00  0.00    +0.032 A 
ATOM     11  C   UNL     1       7.387  -2.641   7.901  0.00  0.00    -0.045 A 
ATOM     12  C   UNL     1       7.934  -3.218   9.181  0.00  0.00    +0.044 C 
ATOM     13  N   UNL     1       8.669  -1.485   2.228  0.00  0.00    -0.254 N 
ATOM     14  C   UNL     1       8.164  -0.959   1.065  0.00  0.00    +0.202 A 
ATOM     15  N   UNL     1       8.943  -0.931  -0.050  0.00  0.00    -0.295 N 
ATOM     16  H   UNL     1       9.848  -1.280  -0.020  0.00  0.00    +0.172 HD
ATOM     17  C   UNL     1       8.453  -0.416  -1.198  0.00  0.00    +0.253 A 
ATOM     18  O   UNL     1       9.138  -0.383  -2.207  0.00  0.00    -0.268 OA
ATOM     19  C   UNL     1       7.136   0.077  -1.209  0.00  0.00    +0.094 A 
ATOM     20  C   UNL     1       6.404   0.028  -0.059  0.00  0.00    +0.060 A 
ATOM     21  N   UNL     1       6.933  -0.490   1.048  0.00  0.00    -0.220 NA
ATOM     22  C   UNL     1       4.453  -0.487   4.273  0.00  0.00    +0.066 C 
ATOM     23  H   UNL     1       9.574  -1.832   2.250  0.00  0.00    +0.158 HD
ENDROOT
BRANCH  20  24
ATOM     24  C   UNL     1       4.992   0.554  -0.043  0.00  0.00    +0.133 C 
BRANCH  24  25
ATOM     25  S   UNL     1       3.830  -0.833  -0.039  0.00  0.00    -0.080 S 
BRANCH  25  26
ATOM     26  C   UNL     1       2.303   0.046  -0.020  0.00  0.00    +0.189 A 
ATOM     27  N   UNL     1       1.165  -0.634  -0.013  0.00  0.00    -0.230 NA
ATOM     28  C   UNL     1       0.002  -0.004   0.002  0.00  0.00    +0.115 A 
ATOM     29  C   UNL     1      -0.017   1.382   0.010  0.00  0.00    +0.039 A 
ATOM     30  C   UNL     1       1.192   2.061   0.002  0.00  0.00    +0.115 A 
ATOM     31  N   UNL     1       2.320   1.371  -0.013  0.00  0.00    -0.230 NA
ENDBRANCH  25  26
ENDBRANCH  24  25
ENDBRANCH  20  24
TORSDOF 3
