REMARK  Name = ZINC06506379
REMARK  4 active torsions:
REMARK  status: ('A' for Active; 'I' for Inactive)
REMARK    1  A    between atoms: C_1  and  C_2
REMARK    2  A    between atoms: C_2  and  C_4
REMARK    3  A    between atoms: C_2  and  S_14
REMARK    4  A    between atoms: S_14  and  C_15
REMARK                            x       y       z     vdW  Elec       q    Type
REMARK                         _______ _______ _______ _____ _____    ______ ____
ROOT
ATOM      1  C   UNL     1       5.378   4.095  -1.707  0.00  0.00    +0.029 C 
ATOM      2  C   UNL     1       4.950   4.062  -0.239  0.00  0.00    +0.137 C 
ENDROOT
BRANCH   2   3
ATOM      3  C   UNL     1       3.629   3.346  -0.116  0.00  0.00    +0.231 C 
ATOM      4  O   UNL     1       2.595   3.980  -0.103  0.00  0.00    -0.274 OA
ATOM      5  N   UNL     1       3.597   2.002  -0.021  0.00  0.00    -0.269 N 
ATOM      6  C   UNL     1       2.374   1.332  -0.015  0.00  0.00    +0.125 A 
ATOM      7  C   UNL     1       2.350  -0.058  -0.024  0.00  0.00    +0.045 A 
ATOM      8  C   UNL     1       1.130  -0.710  -0.018  0.00  0.00    +0.025 A 
ATOM      9  C   UNL     1      -0.030   0.054  -0.003  0.00  0.00    +0.059 A 
ATOM     10  C   UNL     1       0.069   1.433   0.005  0.00  0.00    +0.132 A 
ATOM     11  N   UNL     1       1.247   2.026  -0.001  0.00  0.00    -0.239 NA
ATOM     12 CL   UNL     1      -1.587  -0.714   0.005  0.00  0.00    -0.082 Cl
ATOM     13  H   UNL     1       4.425   1.501   0.042  0.00  0.00    +0.156 HD
ENDBRANCH   2   3
BRANCH   2  14
ATOM     14  S   UNL     1       4.778   5.755   0.378  0.00  0.00    -0.075 S 
BRANCH  14  15
ATOM     15  C   UNL     1       6.452   6.293   0.264  0.00  0.00    +0.168 A 
ATOM     16  N   UNL     1       6.901   7.537   0.607  0.00  0.00    -0.333 N 
ATOM     17  H   UNL     1       6.348   8.292   0.960  0.00  0.00    +0.168 HD
ATOM     18  C   UNL     1       8.267   7.558   0.376  0.00  0.00    +0.068 A 
ATOM     19  C   UNL     1       9.254   8.520   0.531  0.00  0.00    +0.047 A 
ATOM     20  C   UNL     1      10.560   8.226   0.195  0.00  0.00    +0.043 A 
ATOM     21  C   UNL     1      10.892   6.972  -0.299  0.00  0.00    +0.022 A 
ATOM     22  C   UNL     1       9.925   6.005  -0.460  0.00  0.00    +0.031 A 
ATOM     23  C   UNL     1       8.599   6.288  -0.124  0.00  0.00    +0.090 A 
ATOM     24  N   UNL     1       7.450   5.563  -0.169  0.00  0.00    -0.222 NA
ATOM     25 CL   UNL     1      11.794   9.431   0.391  0.00  0.00    -0.083 Cl
ENDBRANCH  14  15
ENDBRANCH   2  14
TORSDOF 3
