REMARK  Name = ZINC64610969
REMARK  6 active torsions:
REMARK  status: ('A' for Active; 'I' for Inactive)
REMARK    1  A    between atoms: C_1  and  O_2
REMARK    2  A    between atoms: O_2  and  C_3
REMARK    3  A    between atoms: C_6  and  C_9
REMARK    4  A    between atoms: C_12  and  C_16
REMARK    5  A    between atoms: C_16  and  C_17
REMARK    6  A    between atoms: C_23  and  C_25
REMARK                            x       y       z     vdW  Elec       q    Type
REMARK                         _______ _______ _______ _____ _____    ______ ____
ROOT
ATOM      1  C   UNL     1       2.427  -5.308  -8.134  0.00  0.00    -0.004 C 
ATOM      2  C   UNL     1       3.115  -4.137  -8.841  0.00  0.00    +0.022 C 
ATOM      3  C   UNL     1       2.941  -4.287 -10.355  0.00  0.00    +0.108 C 
ATOM      4  N   UNL     1       3.434  -5.611 -10.760  0.00  0.00    -0.300 N 
ATOM      5  C   UNL     1       2.905  -6.800 -10.079  0.00  0.00    +0.108 C 
ATOM      6  C   UNL     1       3.079  -6.622  -8.568  0.00  0.00    +0.022 C 
ATOM      7  C   UNL     1       4.355  -5.731 -11.737  0.00  0.00    +0.242 C 
ATOM      8  O   UNL     1       4.784  -4.742 -12.291  0.00  0.00    -0.273 OA
ENDROOT
BRANCH   7   9
ATOM      9  C   UNL     1       4.851  -7.096 -12.140  0.00  0.00    +0.190 C 
ATOM     10  C   UNL     1       5.548  -7.763 -10.975  0.00  0.00    +0.016 C 
ATOM     11  C   UNL     1       6.822  -7.979 -11.375  0.00  0.00    -0.002 A 
ATOM     12  C   UNL     1       7.982  -8.584 -10.711  0.00  0.00    +0.029 A 
ATOM     13  C   UNL     1       9.155  -8.664 -11.382  0.00  0.00    +0.042 A 
ATOM     14  C   UNL     1       9.287  -8.183 -12.694  0.00  0.00    +0.022 A 
ATOM     15  C   UNL     1       8.266  -7.615 -13.368  0.00  0.00    +0.027 A 
ATOM     16  C   UNL     1       6.988  -7.480 -12.759  0.00  0.00    +0.043 A 
ATOM     17  N   UNL     1       5.860  -6.975 -13.199  0.00  0.00    -0.370 N 
ATOM     18 CL   UNL     1      10.530  -9.378 -10.600  0.00  0.00    -0.084 Cl
ATOM     19  H   UNL     1       5.716  -6.586 -14.076  0.00  0.00    +0.161 HD
ENDBRANCH   7   9
BRANCH   1  20
ATOM     20  C   UNL     1       2.570  -5.143  -6.620  0.00  0.00    +0.053 C 
BRANCH  20  23
ATOM     21  C   UNL     1       2.505  -2.503  -4.381  0.00  0.00    +0.180 C 
ATOM     22  N   UNL     1       1.842  -3.791  -4.696  0.00  0.00    -0.269 NA
ATOM     23  C   UNL     1       1.811  -3.893  -6.169  0.00  0.00    +0.211 C 
ATOM     24  O   UNL     1       2.450  -2.713  -6.690  0.00  0.00    -0.279 OA
ATOM     25  N   UNL     1       2.318  -1.699  -5.619  0.00  0.00    -0.178 NA
ATOM     26  H   UNL     1       2.345  -4.566  -4.290  0.00  0.00    +0.126 HD
ATOM     27  H   UNL     1       3.031  -0.989  -5.700  0.00  0.00    +0.156 HD
BRANCH  21  31
ATOM     28  C   UNL     1       0.606  -0.607  -1.056  0.00  0.00    +0.120 A 
ATOM     29  C   UNL     1       1.173   0.161  -2.062  0.00  0.00    +0.046 A 
ATOM     30  C   UNL     1       1.786  -0.455  -3.136  0.00  0.00    +0.010 A 
ATOM     31  C   UNL     1       1.835  -1.835  -3.209  0.00  0.00    -0.014 A 
ATOM     32  C   UNL     1       1.270  -2.602  -2.207  0.00  0.00    +0.010 A 
ATOM     33  C   UNL     1       0.661  -1.992  -1.128  0.00  0.00    +0.046 A 
BRANCH  28  35
ATOM     34  C   UNL     1      -0.017   1.425   0.010  0.00  0.00    +0.277 C 
ATOM     35  O   UNL     1       0.002  -0.004   0.002  0.00  0.00    -0.495 OA
ENDBRANCH  28  35
ENDBRANCH  21  31
ENDBRANCH  20  23
ENDBRANCH   1  20
TORSDOF 5
