REMARK  Name = ZINC39663981
REMARK  9 active torsions:
REMARK  status: ('A' for Active; 'I' for Inactive)
REMARK    1  A    between atoms: C_1  and  C_2
REMARK    2  A    between atoms: C_5  and  C_8
REMARK    3  A    between atoms: C_12  and  C_21
REMARK    4  A    between atoms: N_23  and  C_24
REMARK    5  A    between atoms: C_24  and  C_25
REMARK    6  A    between atoms: C_25  and  C_27
REMARK    7  A    between atoms: C_25  and  N_35
REMARK    8  A    between atoms: C_30  and  O_33
REMARK    9  A    between atoms: O_33  and  C_34
REMARK                            x       y       z     vdW  Elec       q    Type
REMARK                         _______ _______ _______ _____ _____    ______ ____
ROOT
ATOM      1  C   UNL     1       0.058  -4.291  -0.032  0.00  0.00    +0.247 C 
ATOM      2  O   UNL     1      -0.040  -4.903  -1.078  0.00  0.00    -0.270 OA
ATOM      3  N   UNL     1       0.180  -4.960   1.131  0.00  0.00    -0.296 N 
ATOM      4  C   UNL     1       0.178  -4.403   2.504  0.00  0.00    +0.121 C 
ATOM      5  C   UNL     1      -0.630  -5.422   3.338  0.00  0.00    +0.100 C 
ATOM      6  C   UNL     1      -0.516  -6.744   2.562  0.00  0.00    -0.004 C 
ATOM      7  C   UNL     1       0.339  -6.421   1.327  0.00  0.00    +0.115 C 
ATOM      8  C   UNL     1       0.171  -7.803   3.419  0.00  0.00    -0.010 C 
ATOM      9  C   UNL     1       0.222  -9.124   2.647  0.00  0.00    -0.082 C 
ATOM     10  N   UNL     1      -1.143  -9.548   2.310  0.00  0.00    +0.379 N 
ATOM     11  C   UNL     1      -1.763  -8.569   1.409  0.00  0.00    -0.082 C 
ATOM     12  C   UNL     1      -1.898  -7.224   2.129  0.00  0.00    -0.010 C 
ATOM     13  H   UNL     1      -1.111 -10.448   1.855  0.00  0.00    -0.086 HD
ATOM     14  H   UNL     1      -1.689  -9.620   3.155  0.00  0.00    -0.086 HD
ENDROOT
BRANCH   1  19
ATOM     15  C   UNL     1       0.002   1.464  -0.048  0.00  0.00    +0.044 C 
ATOM     16  C   UNL     1       0.017  -0.043  -0.044  0.00  0.00    -0.050 A 
ATOM     17  C   UNL     1      -0.579  -0.741  -1.080  0.00  0.00    +0.004 A 
ATOM     18  C   UNL     1      -0.569  -2.120  -1.082  0.00  0.00    +0.013 A 
ATOM     19  C   UNL     1       0.044  -2.812  -0.036  0.00  0.00    +0.037 A 
ATOM     20  C   UNL     1       0.643  -2.103   1.006  0.00  0.00    +0.013 A 
ATOM     21  C   UNL     1       0.631  -0.723   0.993  0.00  0.00    +0.004 A 
ENDBRANCH   1  19
BRANCH   5  22
ATOM     22  C   UNL     1      -0.033  -5.565   4.715  0.00  0.00    +0.218 C 
ATOM     23  O   UNL     1       1.140  -5.316   4.895  0.00  0.00    -0.275 OA
ATOM     24  N   UNL     1      -0.802  -5.970   5.744  0.00  0.00    -0.316 N 
ATOM     25  H   UNL     1      -1.740  -6.170   5.600  0.00  0.00    +0.149 HD
BRANCH  24  26
ATOM     26  C   UNL     1      -0.221  -6.110   7.082  0.00  0.00    +0.093 C 
BRANCH  26  27
ATOM     27  C   UNL     1      -1.324  -6.458   8.083  0.00  0.00    -0.020 C 
BRANCH  27  28
ATOM     28  C   UNL     1      -2.347  -5.352   8.109  0.00  0.00    -0.059 A 
ATOM     29  C   UNL     1      -2.098  -4.198   8.828  0.00  0.00    +0.005 A 
ATOM     30  C   UNL     1      -3.034  -3.182   8.854  0.00  0.00    +0.046 A 
ATOM     31  C   UNL     1      -4.225  -3.321   8.156  0.00  0.00    +0.120 A 
ATOM     32  C   UNL     1      -4.472  -4.479   7.434  0.00  0.00    +0.046 A 
ATOM     33  C   UNL     1      -3.531  -5.490   7.408  0.00  0.00    +0.005 A 
BRANCH  31  34
ATOM     34  O   UNL     1      -5.147  -2.323   8.179  0.00  0.00    -0.495 OA
ATOM     35  C   UNL     1      -6.351  -2.535   7.438  0.00  0.00    +0.277 C 
ENDBRANCH  31  34
ENDBRANCH  27  28
BRANCH  27  36
ATOM     36  N   UNL     1      -0.739  -6.615   9.422  0.00  0.00    +0.385 N 
ATOM     37  C   UNL     1      -1.755  -7.149  10.365  0.00  0.00    -0.078 C 
ATOM     38  C   UNL     1      -0.896  -7.771  11.495  0.00  0.00    -0.020 C 
ATOM     39  C   UNL     1       0.298  -8.381  10.726  0.00  0.00    -0.020 C 
ATOM     40  C   UNL     1       0.347  -7.618   9.389  0.00  0.00    -0.078 C 
ATOM     41  H   UNL     1      -0.386  -5.730   9.753  0.00  0.00    -0.081 HD
ENDBRANCH  27  36
ENDBRANCH  26  27
ENDBRANCH  24  26
ENDBRANCH   5  22
TORSDOF 7
