REMARK  Name = ZINC39677826
REMARK  8 active torsions:
REMARK  status: ('A' for Active; 'I' for Inactive)
REMARK    1  A    between atoms: C_1  and  C_2
REMARK    2  A    between atoms: C_2  and  C_3
REMARK    3  A    between atoms: C_6  and  C_9
REMARK    4  A    between atoms: C_13  and  C_22
REMARK    5  A    between atoms: N_24  and  C_25
REMARK    6  A    between atoms: C_25  and  C_26
REMARK    7  A    between atoms: N_29  and  C_33
REMARK    8  A    between atoms: C_33  and  C_34
REMARK                            x       y       z     vdW  Elec       q    Type
REMARK                         _______ _______ _______ _____ _____    ______ ____
ROOT
ATOM      1  C   UNL     1      -5.394  -1.996   0.042  0.00  0.00    +0.247 C 
ATOM      2  O   UNL     1      -5.918  -2.309   1.093  0.00  0.00    -0.270 OA
ATOM      3  N   UNL     1      -6.071  -2.133  -1.115  0.00  0.00    -0.296 N 
ATOM      4  C   UNL     1      -5.565  -1.929  -2.493  0.00  0.00    +0.121 C 
ATOM      5  C   UNL     1      -6.220  -3.058  -3.320  0.00  0.00    +0.100 C 
ATOM      6  C   UNL     1      -7.484  -3.441  -2.531  0.00  0.00    -0.004 C 
ATOM      7  C   UNL     1      -7.489  -2.526  -1.297  0.00  0.00    +0.115 C 
ATOM      8  C   UNL     1      -7.414  -4.902  -2.097  0.00  0.00    -0.010 C 
ATOM      9  C   UNL     1      -8.706  -5.274  -1.364  0.00  0.00    -0.082 C 
ATOM     10  N   UNL     1      -9.854  -5.061  -2.254  0.00  0.00    +0.379 N 
ATOM     11  C   UNL     1      -9.968  -3.637  -2.592  0.00  0.00    -0.082 C 
ATOM     12  C   UNL     1      -8.729  -3.196  -3.377  0.00  0.00    -0.010 C 
ATOM     13  H   UNL     1      -9.726  -5.597  -3.100  0.00  0.00    -0.086 HD
ATOM     14  H   UNL     1     -10.697  -5.364  -1.791  0.00  0.00    -0.086 HD
ENDROOT
BRANCH   1  18
ATOM     15  C   UNL     1      -1.429  -0.473   0.015  0.00  0.00    -0.048 A 
ATOM     16  C   UNL     1      -1.849  -1.282   1.056  0.00  0.00    +0.004 A 
ATOM     17  C   UNL     1      -3.136  -1.780   1.071  0.00  0.00    +0.013 A 
ATOM     18  C   UNL     1      -4.014  -1.466   0.033  0.00  0.00    +0.037 A 
ATOM     19  C   UNL     1      -3.584  -0.650  -1.014  0.00  0.00    +0.013 A 
ATOM     20  C   UNL     1      -2.296  -0.154  -1.014  0.00  0.00    +0.004 A 
BRANCH  15  22
ATOM     21  C   UNL     1       0.013   1.412   0.735  0.00  0.00    +0.009 C 
ATOM     22  C   UNL     1      -0.022   0.067   0.006  0.00  0.00    +0.032 C 
ENDBRANCH  15  22
ENDBRANCH   1  18
BRANCH   5  23
ATOM     23  C   UNL     1      -6.587  -2.558  -4.693  0.00  0.00    +0.218 C 
ATOM     24  O   UNL     1      -6.792  -1.376  -4.873  0.00  0.00    -0.275 OA
ATOM     25  N   UNL     1      -6.689  -3.423  -5.721  0.00  0.00    -0.313 N 
ATOM     26  H   UNL     1      -6.525  -4.369  -5.577  0.00  0.00    +0.149 HD
BRANCH  25  27
ATOM     27  C   UNL     1      -7.045  -2.937  -7.056  0.00  0.00    +0.137 C 
BRANCH  27  28
ATOM     28  C   UNL     1      -7.092  -4.114  -8.032  0.00  0.00    +0.149 C 
ATOM     29  C   UNL     1      -7.344  -3.593  -9.450  0.00  0.00    +0.118 C 
ATOM     30  N   UNL     1      -7.465  -4.732 -10.371  0.00  0.00    -0.293 NA
ATOM     31  C   UNL     1      -8.560  -5.622  -9.959  0.00  0.00    +0.113 C 
ATOM     32  C   UNL     1      -8.296  -6.122  -8.536  0.00  0.00    +0.175 C 
ATOM     33  O   UNL     1      -8.150  -5.002  -7.660  0.00  0.00    -0.372 OA
BRANCH  30  34
ATOM     34  C   UNL     1      -7.651  -4.273 -11.754  0.00  0.00    +0.119 C 
BRANCH  34  35
ATOM     35  C   UNL     1      -7.525  -5.445 -12.693  0.00  0.00    -0.033 A 
ATOM     36  C   UNL     1      -6.289  -5.785 -13.212  0.00  0.00    +0.005 A 
ATOM     37  C   UNL     1      -6.174  -6.860 -14.073  0.00  0.00    +0.000 A 
ATOM     38  C   UNL     1      -7.293  -7.595 -14.416  0.00  0.00    +0.000 A 
ATOM     39  C   UNL     1      -8.528  -7.255 -13.897  0.00  0.00    +0.000 A 
ATOM     40  C   UNL     1      -8.643  -6.183 -13.032  0.00  0.00    +0.005 A 
ENDBRANCH  34  35
ENDBRANCH  30  34
ENDBRANCH  27  28
ENDBRANCH  25  27
ENDBRANCH   5  23
TORSDOF 7
