REMARK  Name = ZINC57143064
REMARK  7 active torsions:
REMARK  status: ('A' for Active; 'I' for Inactive)
REMARK    1  A    between atoms: C_1  and  C_2
REMARK    2  A    between atoms: C_6  and  C_26
REMARK    3  A    between atoms: C_8  and  N_11
REMARK    4  A    between atoms: C_12  and  C_14
REMARK    5  A    between atoms: C_18  and  N_20
REMARK    6  A    between atoms: C_26  and  C_27
REMARK    7  A    between atoms: C_26  and  C_28
REMARK                            x       y       z     vdW  Elec       q    Type
REMARK                         _______ _______ _______ _____ _____    ______ ____
ROOT
ATOM      1  N   UNL     1       0.235   1.451   2.451  0.00  0.00    -0.308 N 
ATOM      2  C   UNL     1       1.356   2.139   2.746  0.00  0.00    +0.244 C 
ATOM      3  O   UNL     1       2.388   1.544   2.986  0.00  0.00    -0.270 OA
ATOM      4  H   UNL     1      -0.589   1.926   2.260  0.00  0.00    +0.149 HD
ENDROOT
BRANCH   1  10
ATOM      5  C   UNL     1       0.215   1.569  -0.045  0.00  0.00    +0.007 C 
ATOM      6  C   UNL     1       0.241   0.040  -0.078  0.00  0.00    -0.012 C 
ATOM      7  C   UNL     1      -1.192  -0.495  -0.078  0.00  0.00    +0.004 C 
ATOM      8  C   UNL     1      -1.912  -0.025   1.187  0.00  0.00    +0.006 C 
ATOM      9  C   UNL     1      -1.173  -0.548   2.420  0.00  0.00    +0.012 C 
ATOM     10  C   UNL     1       0.261  -0.013   2.420  0.00  0.00    +0.077 C 
ATOM     11  C   UNL     1       0.981  -0.484   1.155  0.00  0.00    +0.026 C 
BRANCH   9  12
ATOM     12  C   UNL     1      -1.893  -0.078   3.685  0.00  0.00    -0.012 C 
ATOM     13  C   UNL     1      -3.327  -0.613   3.684  0.00  0.00    +0.007 C 
ATOM     14  C   UNL     1      -1.154  -0.602   4.917  0.00  0.00    +0.007 C 
ENDBRANCH   9  12
ENDBRANCH   1  10
BRANCH   2  15
ATOM     15  C   UNL     1       1.330   3.617   2.778  0.00  0.00    +0.038 A 
ATOM     16  C   UNL     1       0.144   4.302   2.508  0.00  0.00    +0.013 A 
ATOM     17  C   UNL     1       0.123   5.682   2.538  0.00  0.00    +0.003 A 
ATOM     18  C   UNL     1       1.273   6.389   2.835  0.00  0.00    +0.023 A 
ATOM     19  C   UNL     1       2.458   5.716   3.105  0.00  0.00    +0.039 A 
ATOM     20  C   UNL     1       2.489   4.330   3.083  0.00  0.00    +0.036 A 
BRANCH  19  21
ATOM     21  N   UNL     1       3.620   6.437   3.405  0.00  0.00    -0.254 N 
ATOM     22  C   UNL     1       3.702   7.898   3.553  0.00  0.00    +0.134 C 
ATOM     23  C   UNL     1       5.186   8.154   3.876  0.00  0.00    +0.125 C 
ATOM     24  N   UNL     1       5.784   6.810   3.876  0.00  0.00    -0.297 N 
ATOM     25  C   UNL     1       4.832   5.906   3.608  0.00  0.00    +0.307 C 
ATOM     26  O   UNL     1       5.051   4.711   3.551  0.00  0.00    -0.252 OA
ATOM     27  H   UNL     1       6.717   6.610   4.047  0.00  0.00    +0.150 HD
ENDBRANCH  19  21
ENDBRANCH   2  15
TORSDOF 4
