REMARK  Name = ZINC09836198
REMARK  6 active torsions:
REMARK  status: ('A' for Active; 'I' for Inactive)
REMARK    1  A    between atoms: C_1  and  C_2
REMARK    2  A    between atoms: C_7  and  N_12
REMARK    3  A    between atoms: C_9  and  C_11
REMARK    4  A    between atoms: C_13  and  C_15
REMARK    5  A    between atoms: C_15  and  O_33
REMARK    6  A    between atoms: N_25  and  C_26
REMARK                            x       y       z     vdW  Elec       q    Type
REMARK                         _______ _______ _______ _____ _____    ______ ____
ROOT
ATOM      1  C   UNL     1      -4.150   1.100  -1.728  0.00  0.00    +0.247 C 
ATOM      2  C   UNL     1      -4.687   1.175  -0.317  0.00  0.00    +0.034 A 
ATOM      3  C   UNL     1      -4.406   2.246   0.499  0.00  0.00    +0.025 A 
ATOM      4  C   UNL     1      -4.915   2.281   1.787  0.00  0.00    +0.018 A 
ATOM      5  C   UNL     1      -5.703   1.241   2.248  0.00  0.00    +0.017 A 
ATOM      6  C   UNL     1      -5.986   0.165   1.430  0.00  0.00    +0.025 A 
ATOM      7  C   UNL     1      -5.477   0.125   0.139  0.00  0.00    +0.043 A 
ATOM      8  N   UNL     1      -5.752  -0.954  -0.703  0.00  0.00    -0.269 N 
ATOM      9  C   UNL     1      -5.286  -1.038  -1.955  0.00  0.00    +0.314 C 
ATOM     10  O   UNL     1      -5.576  -2.016  -2.617  0.00  0.00    -0.252 OA
ATOM     11  N   UNL     1      -4.512  -0.091  -2.515  0.00  0.00    -0.214 N 
ATOM     12 BR   UNL     1      -4.534   3.751   2.914  0.00  0.00    -0.050 Br
ATOM     13  H   UNL     1      -6.306  -1.675  -0.365  0.00  0.00    +0.156 HD
ENDROOT
BRANCH  11  14
ATOM     14  C   UNL     1      -4.055  -0.236  -3.830  0.00  0.00    +0.041 A 
ATOM     15  C   UNL     1      -2.914  -0.984  -4.092  0.00  0.00    +0.024 A 
ATOM     16  C   UNL     1      -2.469  -1.129  -5.391  0.00  0.00    +0.002 A 
ATOM     17  C   UNL     1      -3.152  -0.522  -6.430  0.00  0.00    +0.000 A 
ATOM     18  C   UNL     1      -4.285   0.227  -6.172  0.00  0.00    +0.002 A 
ATOM     19  C   UNL     1      -4.738   0.372  -4.875  0.00  0.00    +0.024 A 
ENDBRANCH  11  14
BRANCH   1  21
ATOM     20  N   UNL     1      -1.952   0.183  -1.061  0.00  0.00    -0.308 N 
ATOM     21  C   UNL     1      -2.647   1.172  -1.657  0.00  0.00    +0.269 C 
ATOM     22  O   UNL     1      -2.062   2.120  -2.138  0.00  0.00    -0.270 OA
ATOM     23  H   UNL     1      -2.419  -0.575  -0.676  0.00  0.00    +0.149 HD
BRANCH  20  29
ATOM     24  C   UNL     1       1.965   0.960   0.442  0.00  0.00    +0.008 C 
ATOM     25  C   UNL     1       1.532  -0.497   0.268  0.00  0.00    -0.009 C 
ATOM     26  C   UNL     1       2.131  -1.056  -1.024  0.00  0.00    +0.003 C 
ATOM     27  C   UNL     1       1.635  -0.232  -2.214  0.00  0.00    +0.002 C 
ATOM     28  C   UNL     1       0.108  -0.305  -2.285  0.00  0.00    +0.022 C 
ATOM     29  C   UNL     1      -0.490   0.254  -0.993  0.00  0.00    +0.076 C 
ATOM     30  C   UNL     1       0.006  -0.571   0.197  0.00  0.00    +0.009 C 
ATOM     31  C   UNL     1      -0.593  -0.012   1.490  0.00  0.00    +0.009 C 
ENDBRANCH  20  29
ENDBRANCH   1  21
BRANCH   1  32
ATOM     32  O   UNL     1      -4.611   2.252  -2.436  0.00  0.00    -0.360 OA
ATOM     33  H   UNL     1      -4.369   3.091  -2.021  0.00  0.00    +0.213 HD
ENDBRANCH   1  32
TORSDOF 4
