REMARK  Name = ZINC09582598
REMARK  8 active torsions:
REMARK  status: ('A' for Active; 'I' for Inactive)
REMARK    1  A    between atoms: C_1  and  C_2
REMARK    2  A    between atoms: C_8  and  N_10
REMARK    3  A    between atoms: N_10  and  C_11
REMARK    4  A    between atoms: C_11  and  N_13
REMARK    5  A    between atoms: N_13  and  C_14
REMARK    6  A    between atoms: C_14  and  C_15
REMARK    7  A    between atoms: C_18  and  S_21
REMARK    8  A    between atoms: S_21  and  N_24
REMARK                            x       y       z     vdW  Elec       q    Type
REMARK                         _______ _______ _______ _____ _____    ______ ____
ROOT
ATOM      1  N   UNL     1       1.114   3.679   4.049  0.00  0.00    -0.322 N 
ATOM      2  H   UNL     1       0.463   3.111   4.490  0.00  0.00    +0.148 HD
ENDROOT
BRANCH   1   3
ATOM      3  C   UNL     1       1.745   3.244   2.940  0.00  0.00    +0.131 C 
ATOM      4  S   UNL     1       2.894   4.246   2.161  0.00  0.00    -0.019 S 
BRANCH   3   5
ATOM      5  N   UNL     1       1.471   2.021   2.444  0.00  0.00    -0.323 N 
ATOM      6  H   UNL     1       0.820   1.454   2.886  0.00  0.00    +0.148 HD
BRANCH   5  13
ATOM      7  C   UNL     1       2.917  -0.488   2.470  0.00  0.00    +0.009 C 
ATOM      8  C   UNL     1       2.178   0.019   1.231  0.00  0.00    +0.006 C 
ATOM      9  C   UNL     1       0.742  -0.511   1.242  0.00  0.00    +0.005 C 
ATOM     10  C   UNL     1       0.002  -0.004   0.002  0.00  0.00    +0.000 C 
ATOM     11  C   UNL     1      -0.019   1.526   0.010  0.00  0.00    +0.002 C 
ATOM     12  C   UNL     1       1.417   2.055  -0.000  0.00  0.00    +0.022 C 
ATOM     13  C   UNL     1       2.157   1.548   1.239  0.00  0.00    +0.075 C 
ENDBRANCH   5  13
ENDBRANCH   3   5
ENDBRANCH   1   3
BRANCH   1  14
ATOM     14  C   UNL     1       1.412   5.008   4.587  0.00  0.00    +0.138 C 
BRANCH  14  15
ATOM     15  C   UNL     1       0.579   5.249   5.820  0.00  0.00    -0.030 A 
ATOM     16  C   UNL     1      -0.668   5.833   5.708  0.00  0.00    +0.007 A 
ATOM     17  C   UNL     1      -1.434   6.050   6.839  0.00  0.00    +0.029 A 
ATOM     18  C   UNL     1      -0.948   5.691   8.082  0.00  0.00    +0.105 A 
ATOM     19  C   UNL     1       0.302   5.111   8.194  0.00  0.00    +0.029 A 
ATOM     20  C   UNL     1       1.066   4.890   7.064  0.00  0.00    +0.007 A 
BRANCH  18  21
ATOM     21  S   UNL     1      -1.921   5.972   9.524  0.00  0.00    +0.056 S 
ATOM     22  O   UNL     1      -3.275   6.027   9.096  0.00  0.00    -0.153 OA
ATOM     23  O   UNL     1      -1.469   5.050  10.506  0.00  0.00    -0.153 OA
BRANCH  21  24
ATOM     24  N   UNL     1      -1.540   7.484  10.084  0.00  0.00    -0.204 NA
ATOM     25  H   UNL     1      -0.884   8.023   9.616  0.00  0.00    +0.144 HD
ATOM     26  H   UNL     1      -1.974   7.830  10.879  0.00  0.00    +0.144 HD
ENDBRANCH  21  24
ENDBRANCH  18  21
ENDBRANCH  14  15
ENDBRANCH   1  14
TORSDOF 7
