REMARK  Name = ZINC09610582
REMARK  8 active torsions:
REMARK  status: ('A' for Active; 'I' for Inactive)
REMARK    1  A    between atoms: C_1  and  C_2
REMARK    2  A    between atoms: C_2  and  C_4
REMARK    3  A    between atoms: C_2  and  N_10
REMARK    4  A    between atoms: C_11  and  C_13
REMARK    5  A    between atoms: C_13  and  C_15
REMARK    6  A    between atoms: C_13  and  N_21
REMARK    7  A    between atoms: N_21  and  S_22
REMARK    8  A    between atoms: S_22  and  C_25
REMARK                            x       y       z     vdW  Elec       q    Type
REMARK                         _______ _______ _______ _____ _____    ______ ____
ROOT
ATOM      1  C   UNL     1      -1.116  -1.978  -2.438  0.00  0.00    +0.192 C 
ENDROOT
BRANCH   1   2
ATOM      2  C   UNL     1      -0.164  -1.102  -3.211  0.00  0.00    -0.020 A 
ATOM      3  C   UNL     1      -0.597   0.107  -3.721  0.00  0.00    +0.006 A 
ATOM      4  C   UNL     1       0.277   0.913  -4.426  0.00  0.00    +0.000 A 
ATOM      5  C   UNL     1       1.582   0.505  -4.629  0.00  0.00    +0.000 A 
ATOM      6  C   UNL     1       2.014  -0.707  -4.123  0.00  0.00    +0.000 A 
ATOM      7  C   UNL     1       1.141  -1.510  -3.414  0.00  0.00    +0.006 A 
ENDBRANCH   1   2
BRANCH   1   9
ATOM      8  N   UNL     1      -1.444  -3.571  -4.303  0.00  0.00    -0.307 N 
ATOM      9  C   UNL     1      -1.995  -2.736  -3.400  0.00  0.00    +0.237 C 
ATOM     10  O   UNL     1      -3.199  -2.593  -3.362  0.00  0.00    -0.274 OA
ATOM     11  H   UNL     1      -0.481  -3.684  -4.333  0.00  0.00    +0.149 HD
BRANCH   8  13
ATOM     12  C   UNL     1      -2.599  -3.428  -6.453  0.00  0.00    +0.033 C 
ATOM     13  C   UNL     1      -2.298  -4.307  -5.238  0.00  0.00    +0.100 C 
BRANCH  13  14
ATOM     14  C   UNL     1      -1.590  -5.559  -5.686  0.00  0.00    -0.027 A 
ATOM     15  C   UNL     1      -0.236  -5.526  -5.962  0.00  0.00    +0.005 A 
ATOM     16  C   UNL     1       0.415  -6.676  -6.369  0.00  0.00    +0.000 A 
ATOM     17  C   UNL     1      -0.291  -7.856  -6.510  0.00  0.00    +0.000 A 
ATOM     18  C   UNL     1      -1.646  -7.888  -6.239  0.00  0.00    +0.000 A 
ATOM     19  C   UNL     1      -2.296  -6.739  -5.828  0.00  0.00    +0.005 A 
ENDBRANCH  13  14
ENDBRANCH   8  13
ENDBRANCH   1   9
BRANCH   1  20
ATOM     20  N   UNL     1      -1.949  -1.145  -1.567  0.00  0.00    -0.174 NA
ATOM     21  H   UNL     1      -2.756  -0.735  -1.916  0.00  0.00    +0.149 HD
BRANCH  20  22
ATOM     22  S   UNL     1      -1.513  -0.904   0.012  0.00  0.00    +0.059 S 
ATOM     23  O   UNL     1      -1.221  -2.185   0.553  0.00  0.00    -0.153 OA
ATOM     24  O   UNL     1      -2.493  -0.043   0.577  0.00  0.00    -0.153 OA
BRANCH  22  25
ATOM     25  C   UNL     1       0.002  -0.004   0.002  0.00  0.00    +0.106 A 
ATOM     26  C   UNL     1      -0.017   1.379   0.010  0.00  0.00    +0.030 A 
ATOM     27  C   UNL     1       1.169   2.087   0.002  0.00  0.00    +0.025 A 
ATOM     28  C   UNL     1       2.380   1.409  -0.013  0.00  0.00    +0.037 A 
ATOM     29  C   UNL     1       2.396   0.021  -0.020  0.00  0.00    -0.024 A 
ATOM     30  C   UNL     1       1.207  -0.682  -0.013  0.00  0.00    +0.034 A 
ATOM     31  C   UNL     1       3.711  -0.715  -0.035  0.00  0.00    +0.046 C 
ATOM     32  C   UNL     1       4.733   0.084  -0.845  0.00  0.00    +0.101 C 
ATOM     33  C   UNL     1       4.728   1.522  -0.402  0.00  0.00    +0.218 C 
ATOM     34  O   UNL     1       5.766   2.149  -0.390  0.00  0.00    -0.275 OA
ATOM     35  N   UNL     1       3.584   2.120  -0.021  0.00  0.00    -0.285 N 
ATOM     36  H   UNL     1       3.595   3.051   0.251  0.00  0.00    +0.155 HD
ENDBRANCH  22  25
ENDBRANCH  20  22
ENDBRANCH   1  20
TORSDOF 7
