REMARK  Name = ZINC35919747
REMARK  8 active torsions:
REMARK  status: ('A' for Active; 'I' for Inactive)
REMARK    1  A    between atoms: C_1  and  C_2
REMARK    2  A    between atoms: C_2  and  N_3
REMARK    3  A    between atoms: N_3  and  C_4
REMARK    4  A    between atoms: N_14  and  C_17
REMARK    5  A    between atoms: C_28  and  C_30
REMARK    6  A    between atoms: C_30  and  C_31
REMARK    7  A    between atoms: C_35  and  O_37
REMARK    8  A    between atoms: O_37  and  C_38
REMARK                            x       y       z     vdW  Elec       q    Type
REMARK                         _______ _______ _______ _____ _____    ______ ____
ROOT
ATOM      1  N   UNL     1       0.681  -0.504  -1.194  0.00  0.00    -0.318 N 
ATOM      2  C   UNL     1       1.260   0.815  -0.929  0.00  0.00    +0.130 C 
ATOM      3  C   UNL     1      -0.036  -0.724  -2.358  0.00  0.00    +0.131 A 
ATOM      4  C   UNL     1       0.593  -1.266  -3.486  0.00  0.00    +0.029 A 
ATOM      5  C   UNL     1      -0.151  -1.475  -4.620  0.00  0.00    +0.028 A 
ATOM      6  N   UNL     1      -1.441  -1.144  -4.612  0.00  0.00    -0.331 N 
ATOM      7  C   UNL     1      -2.012  -0.632  -3.535  0.00  0.00    +0.198 A 
ATOM      8  N   UNL     1      -1.329  -0.430  -2.417  0.00  0.00    -0.201 NA
ATOM      9  N   UNL     1      -3.356  -0.304  -3.573  0.00  0.00    -0.298 N 
ATOM     10  C   UNL     1      -4.174  -0.641  -4.747  0.00  0.00    +0.127 C 
ATOM     11  C   UNL     1      -5.380  -1.468  -4.282  0.00  0.00    +0.124 C 
ATOM     12  N   UNL     1      -6.015  -0.778  -3.151  0.00  0.00    -0.325 N 
ATOM     13  C   UNL     1      -5.196  -0.441  -1.977  0.00  0.00    +0.124 C 
ATOM     14  C   UNL     1      -3.992   0.381  -2.439  0.00  0.00    +0.127 C 
ATOM     15  C   UNL     1       0.420  -2.080  -5.873  0.00  0.00    +0.072 C 
ATOM     16  C   UNL     1       1.943  -1.952  -5.891  0.00  0.00    +0.114 C 
ATOM     17  N   UNL     1       2.452  -2.384  -4.579  0.00  0.00    -0.296 N 
ATOM     18  C   UNL     1       2.062  -1.588  -3.408  0.00  0.00    +0.148 C 
ATOM     19  C   UNL     1       3.244  -3.467  -4.457  0.00  0.00    +0.220 C 
ATOM     20  O   UNL     1       3.650  -3.801  -3.364  0.00  0.00    -0.275 OA
ATOM     21  H   UNL     1      -1.973  -1.281  -5.412  0.00  0.00    +0.168 HD
ENDROOT
BRANCH  12  22
ATOM     22  C   UNL     1      -7.373  -0.447  -3.190  0.00  0.00    +0.065 A 
ATOM     23  C   UNL     1      -8.321  -1.341  -2.710  0.00  0.00    +0.026 A 
ATOM     24  C   UNL     1      -9.662  -1.011  -2.749  0.00  0.00    +0.002 A 
ATOM     25  C   UNL     1     -10.062   0.207  -3.266  0.00  0.00    +0.003 A 
ATOM     26  C   UNL     1      -9.121   1.101  -3.746  0.00  0.00    +0.040 A 
ATOM     27  C   UNL     1      -7.777   0.780  -3.704  0.00  0.00    +0.144 A 
ATOM     28  F   UNL     1      -6.858   1.655  -4.167  0.00  0.00    -0.204 F 
ENDBRANCH  12  22
BRANCH   1  30
ATOM     29  C   UNL     1      -0.291  -1.570   0.781  0.00  0.00    +0.024 C 
ATOM     30  C   UNL     1       0.860  -1.590  -0.227  0.00  0.00    +0.103 C 
ENDBRANCH   1  30
BRANCH  19  31
ATOM     31  C   UNL     1       3.627  -4.263  -5.678  0.00  0.00    +0.131 C 
BRANCH  31  32
ATOM     32  C   UNL     1       4.511  -5.414  -5.271  0.00  0.00    -0.035 A 
ATOM     33  C   UNL     1       5.883  -5.248  -5.227  0.00  0.00    +0.004 A 
ATOM     34  C   UNL     1       6.697  -6.302  -4.855  0.00  0.00    +0.004 A 
ATOM     35  C   UNL     1       6.140  -7.524  -4.526  0.00  0.00    +0.045 A 
ATOM     36  C   UNL     1       4.764  -7.692  -4.570  0.00  0.00    +0.120 A 
ATOM     37  C   UNL     1       3.949  -6.631  -4.938  0.00  0.00    +0.049 A 
BRANCH  36  38
ATOM     38  O   UNL     1       4.214  -8.892  -4.247  0.00  0.00    -0.495 OA
ATOM     39  C   UNL     1       5.114  -9.937  -3.872  0.00  0.00    +0.277 C 
ENDBRANCH  36  38
ENDBRANCH  31  32
ENDBRANCH  19  31
TORSDOF 5
