REMARK  Name = ZINC08926777
REMARK  9 active torsions:
REMARK  status: ('A' for Active; 'I' for Inactive)
REMARK    1  A    between atoms: C_1  and  C_2
REMARK    2  A    between atoms: C_7  and  O_8
REMARK    3  A    between atoms: O_8  and  C_9
REMARK    4  A    between atoms: C_9  and  C_10
REMARK    5  A    between atoms: C_12  and  C_16
REMARK    6  A    between atoms: C_14  and  C_15
REMARK    7  A    between atoms: C_19  and  C_30
REMARK    8  A    between atoms: C_25  and  N_29
REMARK    9  A    between atoms: C_26  and  C_27
REMARK                            x       y       z     vdW  Elec       q    Type
REMARK                         _______ _______ _______ _____ _____    ______ ____
ROOT
ATOM      1  C   UNL     1       0.047   0.092   4.775  0.00  0.00    -0.000 A 
ATOM      2  C   UNL     1       0.022   1.464   4.615  0.00  0.00    +0.019 A 
ATOM      3  C   UNL     1       0.022   2.255   5.716  0.00  0.00    +0.003 A 
ATOM      4  S   UNL     1       0.059   1.051   7.034  0.00  0.00    -0.097 S 
ATOM      5  C   UNL     1       0.066  -0.424   6.029  0.00  0.00    -0.007 A 
ATOM      6  C   UNL     1       0.089  -1.867   6.461  0.00  0.00    +0.052 C 
ENDROOT
BRANCH   3   7
ATOM      7  C   UNL     1      -0.002   3.759   5.805  0.00  0.00    +0.108 C 
ATOM      8  C   UNL     1      -1.221   4.204   6.571  0.00  0.00    +0.050 A 
ATOM      9  C   UNL     1      -2.554   4.195   6.183  0.00  0.00    +0.068 A 
ATOM     10  N   UNL     1      -3.270   4.673   7.174  0.00  0.00    -0.176 NA
ATOM     11  N   UNL     1      -2.403   5.001   8.228  0.00  0.00    -0.246 N 
ATOM     12  H   UNL     1      -2.662   5.374   9.086  0.00  0.00    +0.192 HD
ATOM     13  C   UNL     1      -1.152   4.708   7.840  0.00  0.00    +0.222 A 
ATOM     14  O   UNL     1       0.019   4.850   8.508  0.00  0.00    -0.423 OA
ATOM     15  C   UNL     1       1.161   4.740   7.798  0.00  0.00    +0.200 C 
ATOM     16  C   UNL     1       1.221   4.245   6.541  0.00  0.00    +0.099 C 
ATOM     17  C   UNL     1      -3.087   3.720   4.856  0.00  0.00    +0.068 C 
BRANCH  15  18
ATOM     18  N   UNL     1       2.330   5.154   8.386  0.00  0.00    -0.328 N 
ATOM     19  H   UNL     1       2.319   5.513   9.287  0.00  0.00    +0.145 HD
ATOM     20  H   UNL     1       3.167   5.087   7.901  0.00  0.00    +0.145 HD
ENDBRANCH  15  18
BRANCH  16  21
ATOM     21  C   UNL     1       2.492   4.181   5.884  0.00  0.00    +0.101 C 
ATOM     22  N   UNL     1       3.500   4.130   5.363  0.00  0.00    -0.191 NA
ENDBRANCH  16  21
ENDBRANCH   3   7
BRANCH   1  23
ATOM     23  C   UNL     1       0.048  -0.819   3.574  0.00  0.00    +0.265 C 
BRANCH  23  24
ATOM     24  O   UNL     1       0.025  -0.033   2.381  0.00  0.00    -0.487 OA
BRANCH  24  31
ATOM     25  C   UNL     1      -0.018   1.503   0.010  0.00  0.00    +0.047 C 
ATOM     26  C   UNL     1       0.002  -0.004   0.002  0.00  0.00    -0.007 A 
ATOM     27  C   UNL     1       0.006  -0.689  -1.198  0.00  0.00    +0.027 A 
ATOM     28  C   UNL     1       0.024  -2.072  -1.206  0.00  0.00    +0.041 A 
ATOM     29  C   UNL     1       0.040  -2.773  -0.013  0.00  0.00    +0.023 A 
ATOM     30  C   UNL     1       0.036  -2.092   1.189  0.00  0.00    +0.047 A 
ATOM     31  C   UNL     1       0.023  -0.704   1.199  0.00  0.00    +0.124 A 
ATOM     32 CL   UNL     1       0.028  -2.930  -2.715  0.00  0.00    -0.084 Cl
ENDBRANCH  24  31
ENDBRANCH  23  24
ENDBRANCH   1  23
TORSDOF 6
