REMARK  Name = ZINC45806911
REMARK  7 active torsions:
REMARK  status: ('A' for Active; 'I' for Inactive)
REMARK    1  A    between atoms: C_1  and  C_2
REMARK    2  A    between atoms: C_2  and  C_4
REMARK    3  A    between atoms: C_2  and  N_15
REMARK    4  A    between atoms: N_6  and  C_7
REMARK    5  A    between atoms: C_8  and  C_12
REMARK    6  A    between atoms: C_18  and  C_21
REMARK    7  A    between atoms: C_21  and  N_22
REMARK                            x       y       z     vdW  Elec       q    Type
REMARK                         _______ _______ _______ _____ _____    ______ ____
ROOT
ATOM      1  C   UNL     1       0.532   1.929   0.771  0.00  0.00    -0.004 C 
ATOM      2  C   UNL     1       0.195   0.570   0.154  0.00  0.00    +0.016 C 
ENDROOT
BRANCH   2   3
ATOM      3  N   UNL     1       0.517  -0.497   1.111  0.00  0.00    +0.387 N 
ATOM      4  C   UNL     1       0.123  -1.793   0.548  0.00  0.00    -0.078 C 
ATOM      5  C   UNL     1       0.529  -2.915   1.506  0.00  0.00    -0.017 C 
ATOM      6  C   UNL     1      -0.171  -2.708   2.852  0.00  0.00    -0.031 C 
ATOM      7  C   UNL     1       0.188  -1.322   3.395  0.00  0.00    -0.017 C 
ATOM      8  C   UNL     1      -0.206  -0.259   2.367  0.00  0.00    -0.078 C 
ATOM      9  H   UNL     1       1.510  -0.498   1.291  0.00  0.00    -0.081 HD
BRANCH   6  10
ATOM     10  C   UNL     1       0.292  -3.780   3.840  0.00  0.00    -0.076 C 
BRANCH  10  11
ATOM     11  N   UNL     1      -0.487  -3.672   5.081  0.00  0.00    +0.380 N 
ATOM     12  C   UNL     1       0.131  -4.536   6.105  0.00  0.00    -0.079 C 
ATOM     13  C   UNL     1      -0.243  -4.000   7.465  0.00  0.00    -0.019 C 
ATOM     14  C   UNL     1      -1.467  -4.735   8.042  0.00  0.00    -0.002 C 
ATOM     15  C   UNL     1      -2.537  -4.999   6.964  0.00  0.00    -0.002 C 
ATOM     16  C   UNL     1      -2.724  -3.823   6.040  0.00  0.00    -0.019 C 
ATOM     17  C   UNL     1      -1.815  -4.003   4.806  0.00  0.00    -0.079 C 
ATOM     18  H   UNL     1      -0.452  -2.716   5.402  0.00  0.00    -0.082 HD
ENDBRANCH  10  11
ENDBRANCH   6  10
ENDBRANCH   2   3
BRANCH   2  19
ATOM     19  C   UNL     1       1.002   0.376  -1.104  0.00  0.00    +0.204 C 
ATOM     20  O   UNL     1       2.074  -0.190  -1.056  0.00  0.00    -0.277 OA
ATOM     21  N   UNL     1       0.533   0.831  -2.283  0.00  0.00    -0.281 N 
ATOM     22  H   UNL     1      -0.324   1.283  -2.321  0.00  0.00    +0.155 HD
BRANCH  21  23
ATOM     23  C   UNL     1       1.276   0.652  -3.440  0.00  0.00    +0.084 A 
ATOM     24  C   UNL     1       0.957   1.055  -4.729  0.00  0.00    +0.065 A 
ATOM     25  C   UNL     1       1.917   0.739  -5.761  0.00  0.00    +0.022 A 
ATOM     26  C   UNL     1       3.021   0.085  -5.354  0.00  0.00    +0.048 A 
ATOM     27  S   UNL     1       2.769  -0.095  -3.602  0.00  0.00    -0.081 S 
BRANCH  24  28
ATOM     28  C   UNL     1      -0.291   1.764  -5.028  0.00  0.00    +0.244 C 
ATOM     29  O   UNL     1      -1.079   2.014  -4.134  0.00  0.00    -0.270 OA
ATOM     30  N   UNL     1      -0.566   2.140  -6.293  0.00  0.00    -0.325 N 
ATOM     31  H   UNL     1       0.061   1.940  -7.005  0.00  0.00    +0.145 HD
ATOM     32  H   UNL     1      -1.392   2.609  -6.491  0.00  0.00    +0.145 HD
ENDBRANCH  24  28
ENDBRANCH  21  23
ENDBRANCH   2  19
TORSDOF 6
