REMARK  Name = ZINC66240768
REMARK  4 active torsions:
REMARK  status: ('A' for Active; 'I' for Inactive)
REMARK    1  A    between atoms: C_3  and  N_20
REMARK    2  A    between atoms: C_6  and  C_7
REMARK    3  A    between atoms: C_21  and  N_27
REMARK    4  A    between atoms: C_22  and  C_25
REMARK                            x       y       z     vdW  Elec       q    Type
REMARK                         _______ _______ _______ _____ _____    ______ ____
ROOT
ATOM      1  C   UNL     1       0.166   1.149  -0.697  0.00  0.00    +0.015 A 
ATOM      2  C   UNL     1       1.351   1.848  -0.641  0.00  0.00    +0.028 A 
ATOM      3  C   UNL     1       2.386   1.403   0.174  0.00  0.00    +0.067 A 
ATOM      4  C   UNL     1       2.228   0.249   0.936  0.00  0.00    +0.028 A 
ATOM      5  C   UNL     1       1.046  -0.455   0.885  0.00  0.00    +0.015 A 
ATOM      6  C   UNL     1       0.004  -0.009   0.067  0.00  0.00    +0.037 A 
ENDROOT
BRANCH   6   7
ATOM      7  C   UNL     1      -1.265  -0.761   0.011  0.00  0.00    +0.251 C 
ATOM      8  O   UNL     1      -2.326  -0.169   0.062  0.00  0.00    -0.270 OA
ATOM      9  N   UNL     1      -1.248  -2.104  -0.099  0.00  0.00    -0.267 N 
ATOM     10  C   UNL     1       0.025  -2.837  -0.111  0.00  0.00    +0.114 C 
ATOM     11  C   UNL     1      -0.047  -3.884  -1.229  0.00  0.00    +0.024 C 
ATOM     12  C   UNL     1      -1.158  -4.882  -0.901  0.00  0.00    +0.038 C 
ATOM     13  C   UNL     1      -2.441  -4.158  -0.587  0.00  0.00    -0.025 A 
ATOM     14  C   UNL     1      -2.446  -2.826  -0.197  0.00  0.00    +0.040 A 
ATOM     15  C   UNL     1      -3.646  -2.189   0.096  0.00  0.00    +0.025 A 
ATOM     16  C   UNL     1      -4.837  -2.882   0.003  0.00  0.00    +0.022 A 
ATOM     17  C   UNL     1      -4.834  -4.210  -0.383  0.00  0.00    +0.041 A 
ATOM     18  C   UNL     1      -3.639  -4.845  -0.686  0.00  0.00    +0.025 A 
ATOM     19 CL   UNL     1      -6.330  -5.081  -0.502  0.00  0.00    -0.084 Cl
ENDBRANCH   6   7
BRANCH   3  20
ATOM     20  N   UNL     1       3.587   2.115   0.228  0.00  0.00    -0.218 N 
ATOM     21  C   UNL     1       4.375   2.264   1.325  0.00  0.00    +0.137 A 
ATOM     22  C   UNL     1       5.465   3.039   0.941  0.00  0.00    +0.111 A 
ATOM     23  C   UNL     1       5.293   3.346  -0.429  0.00  0.00    +0.155 A 
ATOM     24  N   UNL     1       4.187   2.791  -0.839  0.00  0.00    -0.172 NA
BRANCH  21  25
ATOM     25  N   UNL     1       4.139   1.744   2.583  0.00  0.00    -0.342 N 
ATOM     26  H   UNL     1       3.344   1.213   2.747  0.00  0.00    +0.144 HD
ATOM     27  H   UNL     1       4.769   1.910   3.302  0.00  0.00    +0.144 HD
ENDBRANCH  21  25
BRANCH  22  28
ATOM     28  C   UNL     1       6.554   3.450   1.775  0.00  0.00    +0.104 C 
ATOM     29  N   UNL     1       7.418   3.776   2.437  0.00  0.00    -0.191 NA
ENDBRANCH  22  28
ENDBRANCH   3  20
TORSDOF 4
