REMARK  Name = ZINC63526790
REMARK  8 active torsions:
REMARK  status: ('A' for Active; 'I' for Inactive)
REMARK    1  A    between atoms: C_1  and  C_2
REMARK    2  A    between atoms: C_4  and  C_12
REMARK    3  A    between atoms: C_12  and  C_13
REMARK    4  A    between atoms: C_13  and  N_14
REMARK    5  A    between atoms: C_15  and  C_17
REMARK    6  A    between atoms: C_19  and  S_25
REMARK    7  A    between atoms: S_25  and  N_28
REMARK    8  A    between atoms: N_28  and  C_29
REMARK                            x       y       z     vdW  Elec       q    Type
REMARK                         _______ _______ _______ _____ _____    ______ ____
ROOT
ATOM      1  N   UNL     1      -4.178  -0.127  -1.831  0.00  0.00    -0.311 N 
ATOM      2  C   UNL     1      -5.293  -0.811  -1.508  0.00  0.00    +0.246 C 
ATOM      3  O   UNL     1      -5.337  -1.450  -0.475  0.00  0.00    -0.270 OA
ATOM      4  H   UNL     1      -4.144   0.383  -2.655  0.00  0.00    +0.149 HD
ENDROOT
BRANCH   2   5
ATOM      5  C   UNL     1      -6.463  -0.786  -2.411  0.00  0.00    +0.057 A 
ATOM      6  C   UNL     1      -6.414  -0.057  -3.602  0.00  0.00    +0.044 A 
ATOM      7  C   UNL     1      -7.508  -0.037  -4.439  0.00  0.00    +0.124 A 
ATOM      8  C   UNL     1      -8.656  -0.737  -4.103  0.00  0.00    +0.069 A 
ATOM      9  C   UNL     1      -8.712  -1.461  -2.924  0.00  0.00    +0.042 A 
ATOM     10  C   UNL     1      -7.620  -1.494  -2.079  0.00  0.00    +0.055 A 
ATOM     11 CL   UNL     1      -7.689  -2.409  -0.605  0.00  0.00    -0.083 Cl
ATOM     12 CL   UNL     1     -10.030  -0.705  -5.164  0.00  0.00    -0.081 Cl
BRANCH   7  13
ATOM     13  S   UNL     1      -7.447   0.881  -5.942  0.00  0.00    +0.060 S 
ATOM     14  O   UNL     1      -6.177   1.516  -5.979  0.00  0.00    -0.153 OA
ATOM     15  O   UNL     1      -7.892   0.007  -6.970  0.00  0.00    -0.153 OA
BRANCH  13  16
ATOM     16  N   UNL     1      -8.576   2.087  -5.824  0.00  0.00    -0.187 NA
ATOM     17  H   UNL     1      -9.340   2.096  -6.422  0.00  0.00    +0.148 HD
BRANCH  16  18
ATOM     18  C   UNL     1      -8.421   3.141  -4.818  0.00  0.00    +0.077 C 
ATOM     19  C   UNL     1      -9.694   3.719  -4.198  0.00  0.00    +0.022 C 
ATOM     20  C   UNL     1      -8.883   4.550  -5.194  0.00  0.00    +0.022 C 
ENDBRANCH  16  18
ENDBRANCH  13  16
ENDBRANCH   7  13
ENDBRANCH   2   5
BRANCH   1  21
ATOM     21  C   UNL     1      -3.019  -0.152  -0.936  0.00  0.00    +0.109 C 
BRANCH  21  22
ATOM     22  C   UNL     1      -1.896   0.700  -1.532  0.00  0.00    +0.052 C 
BRANCH  22  25
ATOM     23  C   UNL     1       0.404   2.892  -0.889  0.00  0.00    +0.035 C 
ATOM     24  C   UNL     1       0.619   1.379  -0.816  0.00  0.00    +0.103 C 
ATOM     25  C   UNL     1      -0.703   0.674  -0.611  0.00  0.00    -0.037 C 
ATOM     26  C   UNL     1      -0.598   0.015   0.565  0.00  0.00    -0.001 A 
ATOM     27  C   UNL     1      -1.528  -0.842   1.311  0.00  0.00    +0.010 A 
ATOM     28  C   UNL     1      -1.129  -1.372   2.490  0.00  0.00    +0.001 A 
ATOM     29  C   UNL     1       0.147  -1.125   3.015  0.00  0.00    +0.002 A 
ATOM     30  C   UNL     1       1.056  -0.348   2.388  0.00  0.00    +0.026 A 
ATOM     31  C   UNL     1       0.743   0.261   1.141  0.00  0.00    +0.043 A 
ATOM     32  N   UNL     1       1.442   1.041   0.351  0.00  0.00    -0.378 N 
ATOM     33  H   UNL     1       2.349   1.345   0.510  0.00  0.00    +0.160 HD
ENDBRANCH  22  25
ENDBRANCH  21  22
ENDBRANCH   1  21
TORSDOF 7
