REMARK  Name = ZINC20739343
REMARK  5 active torsions:
REMARK  status: ('A' for Active; 'I' for Inactive)
REMARK    1  A    between atoms: C_3  and  N_23
REMARK    2  A    between atoms: C_4  and  N_20
REMARK    3  A    between atoms: C_6  and  N_7
REMARK    4  A    between atoms: C_26  and  C_29
REMARK    5  A    between atoms: C_26  and  N_32
REMARK                            x       y       z     vdW  Elec       q    Type
REMARK                         _______ _______ _______ _____ _____    ______ ____
ROOT
ATOM      1  C   UNL     1       0.387   0.720  -0.168  0.00  0.00    +0.026 A 
ATOM      2  C   UNL     1       1.468   1.579  -0.150  0.00  0.00    +0.027 A 
ATOM      3  C   UNL     1       2.760   1.069  -0.189  0.00  0.00    +0.060 A 
ATOM      4  C   UNL     1       2.963  -0.304  -0.244  0.00  0.00    +0.149 A 
ATOM      5  C   UNL     1       1.882  -1.161  -0.262  0.00  0.00    +0.058 A 
ATOM      6  C   UNL     1       0.591  -0.652  -0.223  0.00  0.00    +0.046 A 
ENDROOT
BRANCH   6   7
ATOM      7  N   UNL     1      -0.509  -1.524  -0.240  0.00  0.00    -0.210 N 
ATOM      8  C   UNL     1      -0.383  -2.864  -0.288  0.00  0.00    +0.230 C 
ATOM      9  O   UNL     1       0.638  -3.497  -0.120  0.00  0.00    -0.274 OA
ATOM     10  C   UNL     1      -1.775  -3.442  -0.594  0.00  0.00    +0.092 C 
ATOM     11  C   UNL     1      -1.860  -3.468  -2.122  0.00  0.00    +0.040 C 
ATOM     12  C   UNL     1      -3.229  -3.192  -2.641  0.00  0.00    -0.030 C 
ATOM     13  C   UNL     1      -4.179  -2.642  -1.962  0.00  0.00    -0.030 C 
ATOM     14  C   UNL     1      -4.042  -2.250  -0.524  0.00  0.00    +0.040 C 
ATOM     15  C   UNL     1      -2.638  -2.318   0.002  0.00  0.00    +0.092 C 
ATOM     16  C   UNL     1      -1.790  -1.096  -0.205  0.00  0.00    +0.230 C 
ATOM     17  O   UNL     1      -2.179   0.046  -0.320  0.00  0.00    -0.274 OA
ENDBRANCH   6   7
BRANCH   3  18
ATOM     18  N   UNL     1       3.855   1.938  -0.172  0.00  0.00    -0.328 N 
ATOM     19  C   UNL     1       4.420   2.457  -1.426  0.00  0.00    +0.104 C 
ATOM     20  C   UNL     1       4.471   3.986  -1.349  0.00  0.00    +0.016 C 
ATOM     21  C   UNL     1       5.240   4.404  -0.093  0.00  0.00    +0.015 C 
ATOM     22  C   UNL     1       4.515   3.881   1.149  0.00  0.00    +0.016 C 
ATOM     23  C   UNL     1       4.460   2.356   1.101  0.00  0.00    +0.104 C 
BRANCH  21  24
ATOM     24  N   UNL     1       5.320   5.869  -0.034  0.00  0.00    +0.389 N 
ATOM     25  C   UNL     1       6.015   6.369  -1.226  0.00  0.00    -0.077 C 
ATOM     26  C   UNL     1       6.029   7.899  -1.209  0.00  0.00    -0.019 C 
ATOM     27  C   UNL     1       6.758   8.383   0.048  0.00  0.00    -0.004 C 
ATOM     28  C   UNL     1       6.070   7.795   1.283  0.00  0.00    -0.019 C 
ATOM     29  C   UNL     1       6.054   6.269   1.174  0.00  0.00    -0.077 C 
ATOM     30  H   UNL     1       4.389   6.255  -0.003  0.00  0.00    -0.080 HD
ENDBRANCH  21  24
BRANCH  21  31
ATOM     31  C   UNL     1       6.632   3.826  -0.142  0.00  0.00    +0.200 C 
ATOM     32  O   UNL     1       7.069   3.385  -1.183  0.00  0.00    -0.278 OA
ATOM     33  N   UNL     1       7.390   3.801   0.972  0.00  0.00    -0.330 N 
ATOM     34  H   UNL     1       7.015   4.083   1.821  0.00  0.00    +0.145 HD
ATOM     35  H   UNL     1       8.311   3.501   0.925  0.00  0.00    +0.145 HD
ENDBRANCH  21  31
ENDBRANCH   3  18
BRANCH   4  36
ATOM     36  N   UNL     1       4.340  -0.847  -0.285  0.00  0.00    +0.058 N 
ATOM     37  O   UNL     1       4.517  -2.042  -0.334  0.00  0.00    -0.126 OA
ATOM     38  O   UNL     1       5.287  -0.096  -0.271  0.00  0.00    -0.126 OA
ENDBRANCH   4  36
TORSDOF 5
