REMARK  Name = ZINC19941690
REMARK  7 active torsions:
REMARK  status: ('A' for Active; 'I' for Inactive)
REMARK    1  A    between atoms: C_1  and  C_2
REMARK    2  A    between atoms: C_5  and  C_39
REMARK    3  A    between atoms: C_9  and  C_14
REMARK    4  A    between atoms: C_14  and  C_16
REMARK    5  A    between atoms: C_14  and  N_29
REMARK    6  A    between atoms: N_20  and  C_21
REMARK    7  A    between atoms: C_21  and  C_22
REMARK                            x       y       z     vdW  Elec       q    Type
REMARK                         _______ _______ _______ _____ _____    ______ ____
ROOT
ATOM      1  C   UNL     1       2.553   1.867   1.984  0.00  0.00    +0.163 C 
ENDROOT
BRANCH   1  10
ATOM      2  C   UNL     1       4.577  -1.719  -1.204  0.00  0.00    +0.044 C 
ATOM      3  C   UNL     1       4.946  -2.112   0.203  0.00  0.00    -0.041 A 
ATOM      4  C   UNL     1       5.685  -3.238   0.430  0.00  0.00    +0.004 A 
ATOM      5  C   UNL     1       6.031  -3.608   1.722  0.00  0.00    +0.005 A 
ATOM      6  C   UNL     1       5.636  -2.847   2.801  0.00  0.00    -0.026 A 
ATOM      7  C   UNL     1       4.882  -1.697   2.596  0.00  0.00    +0.052 A 
ATOM      8  C   UNL     1       4.533  -1.325   1.283  0.00  0.00    +0.002 A 
ATOM      9  C   UNL     1       3.740  -0.111   1.077  0.00  0.00    +0.021 A 
ATOM     10  C   UNL     1       3.369   0.613   2.162  0.00  0.00    +0.042 A 
ATOM     11  C   UNL     1       3.750   0.199   3.456  0.00  0.00    +0.254 A 
ATOM     12  O   UNL     1       3.410   0.867   4.418  0.00  0.00    -0.268 OA
ATOM     13  N   UNL     1       4.473  -0.917   3.656  0.00  0.00    -0.322 N 
ATOM     14  H   UNL     1       4.738  -1.204   4.685  0.00  0.00    +0.169 HD
ATOM     15  C   UNL     1       6.019  -3.260   4.199  0.00  0.00    +0.046 C 
ENDBRANCH   1  10
BRANCH   1  16
ATOM     16  N   UNL     1       3.257   3.001   2.598  0.00  0.00    -0.284 NA
ATOM     17  C   UNL     1       2.502   4.250   2.418  0.00  0.00    +0.090 C 
ATOM     18  C   UNL     1       3.073   5.304   3.368  0.00  0.00    +0.051 C 
ATOM     19  C   UNL     1       4.571   5.373   3.218  0.00  0.00    -0.042 A 
ATOM     20  C   UNL     1       5.235   6.484   3.716  0.00  0.00    +0.004 A 
ATOM     21  C   UNL     1       6.607   6.583   3.608  0.00  0.00    +0.000 A 
ATOM     22  C   UNL     1       7.324   5.569   2.999  0.00  0.00    +0.000 A 
ATOM     23  C   UNL     1       6.664   4.463   2.502  0.00  0.00    +0.005 A 
ATOM     24  C   UNL     1       5.284   4.363   2.609  0.00  0.00    -0.030 A 
ATOM     25  C   UNL     1       4.609   3.140   2.046  0.00  0.00    +0.120 C 
ENDBRANCH   1  16
BRANCH   1  26
ATOM     26  C   UNL     1       2.356   2.134   0.514  0.00  0.00    +0.173 A 
ATOM     27  N   UNL     1       3.288   2.418  -0.362  0.00  0.00    -0.111 NA
ATOM     28  N   UNL     1       2.722   2.582  -1.507  0.00  0.00    -0.023 NA
ATOM     29  N   UNL     1       1.452   2.405  -1.386  0.00  0.00    -0.044 NA
ATOM     30  N   UNL     1       1.188   2.124  -0.155  0.00  0.00    -0.223 N 
BRANCH  30  31
ATOM     31  C   UNL     1      -0.136   1.851   0.410  0.00  0.00    +0.182 C 
BRANCH  31  32
ATOM     32  C   UNL     1      -0.474   0.395   0.218  0.00  0.00    -0.026 A 
ATOM     33  C   UNL     1      -1.124  -0.018  -0.930  0.00  0.00    +0.008 A 
ATOM     34  C   UNL     1      -1.430  -1.354  -1.110  0.00  0.00    +0.038 A 
ATOM     35  C   UNL     1      -1.094  -2.277  -0.134  0.00  0.00    +0.123 A 
ATOM     36  C   UNL     1      -0.448  -1.862   1.018  0.00  0.00    +0.038 A 
ATOM     37  C   UNL     1      -0.138  -0.527   1.193  0.00  0.00    +0.008 A 
ATOM     38  F   UNL     1      -1.397  -3.583  -0.306  0.00  0.00    -0.205 F 
ENDBRANCH  31  32
ENDBRANCH  30  31
ENDBRANCH   1  26
TORSDOF 5
