REMARK  Name = ZINC11692074
REMARK  5 active torsions:
REMARK  status: ('A' for Active; 'I' for Inactive)
REMARK    1  A    between atoms: C_1  and  C_2
REMARK    2  A    between atoms: C_2  and  C_3
REMARK    3  A    between atoms: C_3  and  C_5
REMARK    4  A    between atoms: C_3  and  N_6
REMARK    5  A    between atoms: C_7  and  C_9
REMARK                            x       y       z     vdW  Elec       q    Type
REMARK                         _______ _______ _______ _____ _____    ______ ____
ROOT
ATOM      1  C   UNL     1      -0.018   1.458   0.010  0.00  0.00    +0.106 A 
ATOM      2  C   UNL     1       1.150   2.349   0.004  0.00  0.00    +0.123 A 
ATOM      3  C   UNL     1       0.600   3.705   0.016  0.00  0.00    +0.167 A 
ATOM      4  N   UNL     1       1.416   4.737   0.015  0.00  0.00    -0.225 NA
ATOM      5  C   UNL     1       2.740   4.539   0.001  0.00  0.00    +0.092 A 
ATOM      6  C   UNL     1       3.621   5.636  -0.002  0.00  0.00    +0.030 A 
ATOM      7  C   UNL     1       4.965   5.425  -0.016  0.00  0.00    +0.002 A 
ATOM      8  C   UNL     1       5.488   4.133  -0.028  0.00  0.00    +0.002 A 
ATOM      9  C   UNL     1       4.668   3.047  -0.026  0.00  0.00    +0.030 A 
ATOM     10  C   UNL     1       3.272   3.225  -0.012  0.00  0.00    +0.090 A 
ATOM     11  N   UNL     1       2.456   2.164  -0.010  0.00  0.00    -0.241 NA
ATOM     12  N   UNL     1      -0.782   3.588   0.029  0.00  0.00    -0.277 N 
ATOM     13  C   UNL     1      -1.151   2.275   0.019  0.00  0.00    +0.135 A 
ATOM     14  N   UNL     1      -2.475   1.900   0.037  0.00  0.00    -0.307 N 
ATOM     15  H   UNL     1      -2.700   0.957   0.033  0.00  0.00    +0.170 HD
ATOM     16  C   UNL     1      -3.466   2.812   0.052  0.00  0.00    +0.259 A 
ATOM     17  O   UNL     1      -4.631   2.463   0.062  0.00  0.00    -0.267 OA
ATOM     18  C   UNL     1      -3.109   4.242   0.056  0.00  0.00    +0.063 A 
ATOM     19  C   UNL     1      -1.751   4.592   0.044  0.00  0.00    +0.062 A 
ATOM     20  C   UNL     1      -1.387   5.930   0.048  0.00  0.00    +0.027 A 
ATOM     21  C   UNL     1      -2.364   6.906   0.064  0.00  0.00    +0.002 A 
ATOM     22  C   UNL     1      -3.707   6.561   0.075  0.00  0.00    +0.001 A 
ATOM     23  C   UNL     1      -4.086   5.235   0.071  0.00  0.00    +0.015 A 
ENDROOT
BRANCH   1  25
ATOM     24  N   UNL     1       0.001  -0.672  -1.169  0.00  0.00    -0.309 N 
ATOM     25  C   UNL     1       0.002  -0.004   0.002  0.00  0.00    +0.250 C 
ATOM     26  O   UNL     1       0.020  -0.619   1.053  0.00  0.00    -0.270 OA
ATOM     27  H   UNL     1      -0.014  -0.182  -2.006  0.00  0.00    +0.149 HD
BRANCH  24  28
ATOM     28  C   UNL     1       0.020  -2.136  -1.177  0.00  0.00    +0.070 C 
ATOM     29  C   UNL     1      -1.408  -2.667  -1.041  0.00  0.00    +0.028 C 
BRANCH  28  31
ATOM     30  C   UNL     1       2.093  -2.206  -2.571  0.00  0.00    +0.005 C 
ATOM     31  C   UNL     1       0.625  -2.631  -2.493  0.00  0.00    +0.018 C 
ENDBRANCH  28  31
ENDBRANCH  24  28
ENDBRANCH   1  25
TORSDOF 3
