REMARK  Name = ZINC18996325
REMARK  14 active torsions:
REMARK  status: ('A' for Active; 'I' for Inactive)
REMARK    1  A    between atoms: C_1  and  C_2
REMARK    2  A    between atoms: C_2  and  O_3
REMARK    3  A    between atoms: O_3  and  C_4
REMARK    4  A    between atoms: C_4  and  C_6
REMARK    5  A    between atoms: C_8  and  C_29
REMARK    6  A    between atoms: C_9  and  C_24
REMARK    7  A    between atoms: C_11  and  C_19
REMARK    8  A    between atoms: C_11  and  O_23
REMARK    9  A    between atoms: C_13  and  C_14
REMARK   10  A    between atoms: C_13  and  O_18
REMARK   11  A    between atoms: C_24  and  O_26
REMARK   12  A    between atoms: O_26  and  C_27
REMARK   13  A    between atoms: C_27  and  C_28
REMARK   14  A    between atoms: C_32  and  O_35
REMARK                            x       y       z     vdW  Elec       q    Type
REMARK                         _______ _______ _______ _____ _____    ______ ____
ROOT
ATOM      1  C   UNL     1       2.850  -2.561  -2.545  0.00  0.00    +0.162 C 
ATOM      2  C   UNL     1       2.797  -4.087  -2.436  0.00  0.00    +0.055 C 
ATOM      3  C   UNL     1       2.225  -4.664  -3.733  0.00  0.00    +0.162 C 
ATOM      4  C   UNL     1       0.838  -4.068  -3.983  0.00  0.00    +0.230 C 
ATOM      5  N   UNL     1       0.943  -2.606  -4.081  0.00  0.00    -0.245 NA
ATOM      6  C   UNL     1       1.446  -2.025  -2.829  0.00  0.00    +0.230 C 
ATOM      7  H   UNL     1       1.521  -2.336  -4.862  0.00  0.00    +0.128 HD
ENDROOT
BRANCH   2   8
ATOM      8  C   UNL     1       4.187  -4.625  -2.215  0.00  0.00    -0.042 A 
ATOM      9  C   UNL     1       5.176  -4.387  -3.152  0.00  0.00    +0.007 A 
ATOM     10  C   UNL     1       6.451  -4.879  -2.952  0.00  0.00    +0.045 A 
ATOM     11  C   UNL     1       6.740  -5.613  -1.810  0.00  0.00    +0.117 A 
ATOM     12  C   UNL     1       5.746  -5.850  -0.872  0.00  0.00    +0.045 A 
ATOM     13  C   UNL     1       4.473  -5.351  -1.074  0.00  0.00    +0.007 A 
BRANCH  11  14
ATOM     14  O   UNL     1       7.993  -6.099  -1.612  0.00  0.00    -0.507 OA
ATOM     15  H   UNL     1       8.577  -5.495  -1.133  0.00  0.00    +0.292 HD
ENDBRANCH  11  14
ENDBRANCH   2   8
BRANCH   6  16
ATOM     16  C   UNL     1       1.498  -0.501  -2.959  0.00  0.00    +0.433 C 
ATOM     17  F   UNL     1       2.449  -0.148  -3.923  0.00  0.00    -0.166 F 
ATOM     18  F   UNL     1       0.242  -0.022  -3.346  0.00  0.00    -0.166 F 
ATOM     19  F   UNL     1       1.852   0.060  -1.728  0.00  0.00    -0.166 F 
ENDBRANCH   6  16
BRANCH   4  20
ATOM     20  C   UNL     1       0.271  -4.626  -5.290  0.00  0.00    +0.433 C 
ATOM     21  F   UNL     1       0.207  -6.022  -5.212  0.00  0.00    -0.166 F 
ATOM     22  F   UNL     1      -1.013  -4.111  -5.499  0.00  0.00    -0.166 F 
ATOM     23  F   UNL     1       1.100  -4.257  -6.354  0.00  0.00    -0.166 F 
ENDBRANCH   4  20
BRANCH   1  24
ATOM     24  C   UNL     1       3.357  -1.981  -1.249  0.00  0.00    +0.315 C 
ATOM     25  O   UNL     1       2.819  -2.270  -0.206  0.00  0.00    -0.250 OA
BRANCH  24  26
ATOM     26  O   UNL     1       4.406  -1.144  -1.253  0.00  0.00    -0.465 OA
BRANCH  26  28
ATOM     27  C   UNL     1       6.030   0.297  -0.193  0.00  0.00    +0.048 C 
ATOM     28  C   UNL     1       4.832  -0.632   0.011  0.00  0.00    +0.229 C 
ENDBRANCH  26  28
ENDBRANCH  24  26
ENDBRANCH   1  24
BRANCH   6  29
ATOM     29  O   UNL     1       0.573  -2.381  -1.755  0.00  0.00    -0.366 OA
ATOM     30  H   UNL     1      -0.337  -2.073  -1.869  0.00  0.00    +0.212 HD
ENDBRANCH   6  29
BRANCH   4  31
ATOM     31  O   UNL     1      -0.030  -4.412  -2.902  0.00  0.00    -0.366 OA
ATOM     32  H   UNL     1      -0.929  -4.066  -2.994  0.00  0.00    +0.212 HD
ENDBRANCH   4  31
BRANCH   3  33
ATOM     33  C   UNL     1       2.115  -6.162  -3.613  0.00  0.00    +0.315 C 
ATOM     34  O   UNL     1       1.535  -6.652  -2.672  0.00  0.00    -0.250 OA
BRANCH  33  35
ATOM     35  O   UNL     1       2.662  -6.953  -4.549  0.00  0.00    -0.465 OA
BRANCH  35  36
ATOM     36  C   UNL     1       2.519  -8.364  -4.371  0.00  0.00    +0.229 C 
ATOM     37  C   UNL     1       3.201  -9.095  -5.529  0.00  0.00    +0.048 C 
ENDBRANCH  35  36
ENDBRANCH  33  35
ENDBRANCH   3  33
TORSDOF 12
