REMARK  Name = ZINC00397479
REMARK  13 active torsions:
REMARK  status: ('A' for Active; 'I' for Inactive)
REMARK    1  A    between atoms: C_1  and  C_2
REMARK    2  A    between atoms: C_2  and  C_3
REMARK    3  A    between atoms: C_2  and  C_4
REMARK    4  A    between atoms: C_2  and  C_5
REMARK    5  A    between atoms: C_7  and  C_15
REMARK    6  A    between atoms: C_9  and  C_11
REMARK    7  A    between atoms: C_11  and  C_12
REMARK    8  A    between atoms: C_11  and  C_13
REMARK    9  A    between atoms: C_11  and  C_14
REMARK   10  A    between atoms: C_15  and  C_17
REMARK   11  A    between atoms: C_15  and  O_22
REMARK   12  A    between atoms: C_17  and  C_18
REMARK   13  A    between atoms: N_20  and  N_21
REMARK                            x       y       z     vdW  Elec       q    Type
REMARK                         _______ _______ _______ _____ _____    ______ ____
ROOT
ATOM      1  C   UNL     1      -6.720   0.186  -1.444  0.00  0.00    -0.041 A 
ATOM      2  C   UNL     1      -5.535   0.889  -1.333  0.00  0.00    +0.010 A 
ATOM      3  C   UNL     1      -4.950   1.065  -0.092  0.00  0.00    -0.018 A 
ATOM      4  C   UNL     1      -5.547   0.532   1.035  0.00  0.00    +0.010 A 
ATOM      5  C   UNL     1      -6.735  -0.166   0.924  0.00  0.00    -0.041 A 
ATOM      6  C   UNL     1      -7.320  -0.342  -0.316  0.00  0.00    +0.008 A 
ENDROOT
BRANCH   1   8
ATOM      7  C   UNL     1      -6.499   0.671  -3.866  0.00  0.00    +0.015 C 
ATOM      8  C   UNL     1      -7.358  -0.006  -2.796  0.00  0.00    -0.013 C 
ATOM      9  C   UNL     1      -7.468  -1.501  -3.101  0.00  0.00    +0.015 C 
ATOM     10  C   UNL     1      -8.755   0.618  -2.794  0.00  0.00    +0.015 C 
ENDBRANCH   1   8
BRANCH   5  11
ATOM     11  C   UNL     1      -7.388  -0.742   2.154  0.00  0.00    -0.013 C 
ATOM     12  C   UNL     1      -7.500  -2.261   2.009  0.00  0.00    +0.015 C 
ATOM     13  C   UNL     1      -6.543  -0.407   3.384  0.00  0.00    +0.015 C 
ATOM     14  C   UNL     1      -8.786  -0.141   2.317  0.00  0.00    +0.015 C 
ENDBRANCH   5  11
BRANCH   3  15
ATOM     15  C   UNL     1      -3.658   1.831   0.029  0.00  0.00    +0.153 C 
BRANCH  15  16
ATOM     16  O   UNL     1      -3.655   2.567   1.254  0.00  0.00    -0.387 OA
ATOM     17  H   UNL     1      -2.788   3.190   1.519  0.00  0.00    +0.210 HD
ENDBRANCH  15  16
BRANCH  15  18
ATOM     18  C   UNL     1      -2.482   0.853   0.018  0.00  0.00    +0.133 C 
BRANCH  18  19
ATOM     19  C   UNL     1      -1.187   1.624   0.017  0.00  0.00    +0.229 C 
ATOM     20  O   UNL     1      -1.204   2.837   0.023  0.00  0.00    -0.274 OA
ATOM     21  N   UNL     1      -0.011   0.966   0.007  0.00  0.00    -0.254 N 
ATOM     22  H   UNL     1       0.004  -0.134   0.006  0.00  0.00    +0.169 HD
BRANCH  21  23
ATOM     23  N   UNL     1       1.163   1.665  -0.000  0.00  0.00    -0.254 NA
ATOM     24  H   UNL     1       2.008   0.962  -0.007  0.00  0.00    +0.140 HD
ATOM     25  H   UNL     1       1.206   2.299  -0.898  0.00  0.00    +0.140 HD
ENDBRANCH  21  23
ENDBRANCH  18  19
ENDBRANCH  15  18
ENDBRANCH   3  15
TORSDOF 7
