REMARK  Name = ZINC38664935
REMARK  12 active torsions:
REMARK  status: ('A' for Active; 'I' for Inactive)
REMARK    1  A    between atoms: C_1  and  O_2
REMARK    2  A    between atoms: O_2  and  C_3
REMARK    3  A    between atoms: N_15  and  C_17
REMARK    4  A    between atoms: C_17  and  C_18
REMARK    5  A    between atoms: C_18  and  C_19
REMARK    6  A    between atoms: C_19  and  C_20
REMARK    7  A    between atoms: C_20  and  C_21
REMARK    8  A    between atoms: C_21  and  C_22
REMARK    9  A    between atoms: C_22  and  C_23
REMARK   10  A    between atoms: C_23  and  C_24
REMARK   11  A    between atoms: C_24  and  N_25
REMARK   12  A    between atoms: C_38  and  O_41
REMARK                            x       y       z     vdW  Elec       q    Type
REMARK                         _______ _______ _______ _____ _____    ______ ____
ROOT
ATOM      1  C   UNL     1       0.626  -0.618   1.041  0.00  0.00    +0.162 A 
ATOM      2  C   UNL     1       1.213   0.122   2.069  0.00  0.00    +0.050 A 
ATOM      3  C   UNL     1       1.836  -0.461   3.159  0.00  0.00    +0.013 A 
ATOM      4  C   UNL     1       1.913  -1.843   3.252  0.00  0.00    -0.001 A 
ATOM      5  C   UNL     1       1.376  -2.578   2.191  0.00  0.00    +0.020 A 
ATOM      6  C   UNL     1       0.695  -2.013   1.120  0.00  0.00    +0.167 A 
ATOM      7  O   UNL     1       0.165  -2.992   0.334  0.00  0.00    -0.484 OA
ATOM      8  C   UNL     1       0.931  -4.161   0.547  0.00  0.00    +0.191 C 
ATOM      9  C   UNL     1       1.378  -4.059   2.027  0.00  0.00    +0.057 C 
ATOM     10  C   UNL     1       0.312  -4.638   2.966  0.00  0.00    +0.040 C 
ATOM     11  C   UNL     1       0.400  -3.871   4.298  0.00  0.00    +0.117 C 
ATOM     12  N   UNL     1       1.756  -3.652   4.785  0.00  0.00    -0.376 N 
ATOM     13  C   UNL     1       2.467  -2.644   4.350  0.00  0.00    +0.089 C 
ATOM     14  C   UNL     1       2.650  -4.830   2.103  0.00  0.00    -0.013 C 
ATOM     15  C   UNL     1       2.586  -6.023   1.523  0.00  0.00    +0.001 C 
ATOM     16  C   UNL     1       1.348  -6.575   0.894  0.00  0.00    +0.141 C 
ATOM     17  C   UNL     1       0.362  -5.534   0.341  0.00  0.00    +0.081 C 
ENDROOT
BRANCH   1  19
ATOM     18  C   UNL     1      -0.017   1.425   0.010  0.00  0.00    +0.277 C 
ATOM     19  O   UNL     1       0.002  -0.004   0.002  0.00  0.00    -0.491 OA
ENDBRANCH   1  19
BRANCH  16  20
ATOM     20  O   UNL     1       1.735  -7.457  -0.162  0.00  0.00    -0.388 OA
ATOM     21  H   UNL     1       2.277  -8.203   0.128  0.00  0.00    +0.210 HD
ENDBRANCH  16  20
BRANCH  12  22
ATOM     22  C   UNL     1       2.328  -4.571   5.772  0.00  0.00    +0.116 C 
BRANCH  22  23
ATOM     23  C   UNL     1       1.543  -4.467   7.081  0.00  0.00    +0.021 C 
BRANCH  23  24
ATOM     24  C   UNL     1       2.140  -5.427   8.112  0.00  0.00    +0.002 C 
BRANCH  24  25
ATOM     25  C   UNL     1       1.355  -5.323   9.421  0.00  0.00    +0.000 C 
BRANCH  25  26
ATOM     26  C   UNL     1       1.953  -6.282  10.452  0.00  0.00    +0.000 C 
BRANCH  26  27
ATOM     27  C   UNL     1       1.167  -6.178  11.761  0.00  0.00    +0.002 C 
BRANCH  27  28
ATOM     28  C   UNL     1       1.765  -7.138  12.792  0.00  0.00    +0.019 C 
BRANCH  28  29
ATOM     29  C   UNL     1       0.980  -7.034  14.101  0.00  0.00    +0.117 C 
BRANCH  29  30
ATOM     30  N   UNL     1       1.552  -7.952  15.088  0.00  0.00    -0.234 N 
ATOM     31  C   UNL     1       1.169  -9.232  15.249  0.00  0.00    +0.254 C 
ATOM     32  O   UNL     1       0.306  -9.799  14.610  0.00  0.00    -0.270 OA
ATOM     33  C   UNL     1       1.973  -9.831  16.335  0.00  0.00    +0.049 A 
ATOM     34  C   UNL     1       2.020 -11.083  16.927  0.00  0.00    +0.014 A 
ATOM     35  C   UNL     1       2.918 -11.325  17.954  0.00  0.00    +0.001 A 
ATOM     36  C   UNL     1       3.768 -10.326  18.391  0.00  0.00    +0.001 A 
ATOM     37  C   UNL     1       3.732  -9.068  17.809  0.00  0.00    +0.014 A 
ATOM     38  C   UNL     1       2.839  -8.812  16.781  0.00  0.00    +0.049 A 
ATOM     39  C   UNL     1       2.535  -7.630  15.948  0.00  0.00    +0.254 C 
ATOM     40  O   UNL     1       3.079  -6.547  16.029  0.00  0.00    -0.270 OA
ENDBRANCH  29  30
ENDBRANCH  28  29
ENDBRANCH  27  28
ENDBRANCH  26  27
ENDBRANCH  25  26
ENDBRANCH  24  25
ENDBRANCH  23  24
ENDBRANCH  22  23
ENDBRANCH  12  22
TORSDOF 11
