REMARK  Name = ZINC36352675
REMARK  6 active torsions:
REMARK  status: ('A' for Active; 'I' for Inactive)
REMARK    1  A    between atoms: C_1  and  O_2
REMARK    2  A    between atoms: O_2  and  C_3
REMARK    3  A    between atoms: C_5  and  C_10
REMARK    4  A    between atoms: C_8  and  O_9
REMARK    5  A    between atoms: C_13  and  O_27
REMARK    6  A    between atoms: N_19  and  C_20
REMARK                            x       y       z     vdW  Elec       q    Type
REMARK                         _______ _______ _______ _____ _____    ______ ____
ROOT
ATOM      1  C   UNL     1       2.462   0.334   4.204  0.00  0.00    +0.080 C 
ATOM      2  C   UNL     1       3.959   0.021   4.297  0.00  0.00    +0.110 C 
ATOM      3  C   UNL     1       4.207  -1.280   5.001  0.00  0.00    +0.190 C 
ATOM      4  N   UNL     1       3.450  -1.731   5.957  0.00  0.00    -0.197 NA
ATOM      5  C   UNL     1       2.352  -1.011   6.325  0.00  0.00    +0.165 A 
ATOM      6  C   UNL     1       1.833  -0.018   5.529  0.00  0.00    +0.094 A 
ATOM      7  N   UNL     1       0.773   0.493   6.142  0.00  0.00    -0.237 NA
ATOM      8  C   UNL     1       0.593  -0.119   7.286  0.00  0.00    +0.206 A 
ATOM      9  N   UNL     1       1.567  -1.070   7.439  0.00  0.00    -0.283 N 
ENDROOT
BRANCH   9  10
ATOM     10  C   UNL     1       1.726  -1.937   8.529  0.00  0.00    +0.051 A 
ATOM     11  C   UNL     1       1.889  -3.299   8.317  0.00  0.00    +0.026 A 
ATOM     12  C   UNL     1       2.046  -4.151   9.392  0.00  0.00    +0.003 A 
ATOM     13  C   UNL     1       2.040  -3.649  10.681  0.00  0.00    +0.020 A 
ATOM     14  C   UNL     1       1.877  -2.292  10.896  0.00  0.00    +0.043 A 
ATOM     15  C   UNL     1       1.726  -1.434   9.823  0.00  0.00    +0.046 A 
ATOM     16 CL   UNL     1       1.870  -1.665  12.515  0.00  0.00    -0.083 Cl
ENDBRANCH   9  10
BRANCH   1  19
ATOM     17  C   UNL     1       0.626  -0.619   1.042  0.00  0.00    +0.162 A 
ATOM     18  C   UNL     1       1.202   0.137   2.051  0.00  0.00    +0.053 A 
ATOM     19  C   UNL     1       1.836  -0.490   3.108  0.00  0.00    -0.034 A 
ATOM     20  C   UNL     1       1.897  -1.870   3.161  0.00  0.00    +0.008 A 
ATOM     21  C   UNL     1       1.325  -2.630   2.158  0.00  0.00    +0.049 A 
ATOM     22  C   UNL     1       0.683  -2.008   1.099  0.00  0.00    +0.158 A 
BRANCH  17  24
ATOM     23  C   UNL     1      -0.017   1.425   0.010  0.00  0.00    +0.277 C 
ATOM     24  O   UNL     1       0.002  -0.004   0.002  0.00  0.00    -0.491 OA
ENDBRANCH  17  24
BRANCH  22  25
ATOM     25  O   UNL     1       0.115  -2.754   0.114  0.00  0.00    -0.503 OA
ATOM     26  H   UNL     1       0.711  -2.957  -0.620  0.00  0.00    +0.292 HD
ENDBRANCH  22  25
ENDBRANCH   1  19
BRANCH   3  27
ATOM     27  O   UNL     1       5.271  -2.021   4.623  0.00  0.00    -0.495 OA
ATOM     28  H   UNL     1       5.372  -2.846   5.117  0.00  0.00    +0.293 HD
ENDBRANCH   3  27
TORSDOF 5
