REMARK  Name = ZINC39926726
REMARK  11 active torsions:
REMARK  status: ('A' for Active; 'I' for Inactive)
REMARK    1  A    between atoms: C_1  and  C_2
REMARK    2  A    between atoms: C_4  and  C_31
REMARK    3  A    between atoms: C_8  and  S_12
REMARK    4  A    between atoms: S_12  and  C_13
REMARK    5  A    between atoms: C_13  and  C_14
REMARK    6  A    between atoms: N_16  and  C_17
REMARK    7  A    between atoms: C_20  and  S_23
REMARK    8  A    between atoms: S_23  and  N_26
REMARK    9  A    between atoms: N_26  and  C_27
REMARK   10  A    between atoms: C_27  and  C_28
REMARK   11  A    between atoms: C_28  and  O_29
REMARK                            x       y       z     vdW  Elec       q    Type
REMARK                         _______ _______ _______ _____ _____    ______ ____
ROOT
ATOM      1  C   UNL     1       7.466  -5.002  -1.008  0.00  0.00    +0.227 C 
ATOM      2  O   UNL     1       7.812  -5.212   0.135  0.00  0.00    -0.275 OA
ATOM      3  N   UNL     1       8.188  -5.498  -2.033  0.00  0.00    -0.285 N 
ATOM      4  H   UNL     1       7.876  -5.388  -2.944  0.00  0.00    +0.155 HD
ENDROOT
BRANCH   3   5
ATOM      5  C   UNL     1       9.389  -6.171  -1.780  0.00  0.00    +0.034 A 
ATOM      6  C   UNL     1      10.454  -6.048  -2.663  0.00  0.00    +0.025 A 
ATOM      7  C   UNL     1      11.638  -6.714  -2.412  0.00  0.00    +0.030 A 
ATOM      8  C   UNL     1      11.763  -7.502  -1.282  0.00  0.00    +0.105 A 
ATOM      9  C   UNL     1      10.704  -7.626  -0.402  0.00  0.00    +0.030 A 
ATOM     10  C   UNL     1       9.520  -6.958  -0.644  0.00  0.00    +0.025 A 
BRANCH   8  11
ATOM     11  S   UNL     1      13.275  -8.349  -0.965  0.00  0.00    +0.058 S 
ATOM     12  O   UNL     1      12.954  -9.454  -0.130  0.00  0.00    -0.153 OA
ATOM     13  O   UNL     1      13.924  -8.506  -2.220  0.00  0.00    -0.153 OA
BRANCH  11  14
ATOM     14  N   UNL     1      14.225  -7.335  -0.064  0.00  0.00    -0.188 NA
ATOM     15  H   UNL     1      15.055  -6.995  -0.432  0.00  0.00    +0.148 HD
BRANCH  14  16
ATOM     16  C   UNL     1      13.811  -6.953   1.288  0.00  0.00    +0.133 C 
BRANCH  16  17
ATOM     17  C   UNL     1      15.000  -6.339   2.031  0.00  0.00    +0.172 C 
BRANCH  17  18
ATOM     18  O   UNL     1      15.381  -5.119   1.393  0.00  0.00    -0.394 OA
ATOM     19  H   UNL     1      16.131  -4.674   1.812  0.00  0.00    +0.209 HD
ENDBRANCH  17  18
ENDBRANCH  16  17
ENDBRANCH  14  16
ENDBRANCH  11  14
ENDBRANCH   8  11
ENDBRANCH   3   5
BRANCH   1  20
ATOM     20  C   UNL     1       6.228  -4.188  -1.284  0.00  0.00    +0.173 C 
BRANCH  20  21
ATOM     21  S   UNL     1       5.484  -3.669   0.287  0.00  0.00    -0.079 S 
BRANCH  21  28
ATOM     22  C   UNL     1      -0.045   1.497   0.002  0.00  0.00    +0.024 C 
ATOM     23  C   UNL     1      -0.017  -0.033   0.001  0.00  0.00    +0.076 C 
ATOM     24  C   UNL     1       0.749  -0.559  -1.191  0.00  0.00    -0.045 C 
ATOM     25  C   UNL     1       1.849  -1.284  -0.956  0.00  0.00    +0.071 C 
ATOM     26  C   UNL     1       2.232  -1.514   0.456  0.00  0.00    +0.112 C 
ATOM     27  N   UNL     1       3.296  -2.214   0.753  0.00  0.00    -0.217 NA
ATOM     28  C   UNL     1       4.067  -2.740  -0.199  0.00  0.00    +0.182 C 
ATOM     29  N   UNL     1       3.821  -2.598  -1.490  0.00  0.00    -0.151 NA
ATOM     30  C   UNL     1       2.775  -1.914  -1.952  0.00  0.00    +0.272 C 
ATOM     31  O   UNL     1       2.577  -1.802  -3.151  0.00  0.00    -0.268 OA
ATOM     32  S   UNL     1       0.985  -0.674   1.403  0.00  0.00    -0.098 S 
ATOM     33  C   UNL     1       0.288  -0.278  -2.598  0.00  0.00    +0.041 C 
ENDBRANCH  21  28
ENDBRANCH  20  21
ENDBRANCH   1  20
TORSDOF 9
