REMARK  Name = ZINC04023795
REMARK  4 active torsions:
REMARK  status: ('A' for Active; 'I' for Inactive)
REMARK    1  A    between atoms: C_1  and  C_2
REMARK    2  A    between atoms: C_5  and  O_27
REMARK    3  A    between atoms: C_18  and  C_26
REMARK    4  A    between atoms: C_23  and  O_25
REMARK                            x       y       z     vdW  Elec       q    Type
REMARK                         _______ _______ _______ _____ _____    ______ ____
ROOT
ATOM      1  C   UNL     1       0.002  -0.422  -2.492  0.00  0.00    +0.012 C 
ATOM      2  C   UNL     1      -0.019   1.108  -2.481  0.00  0.00    -0.026 C 
ATOM      3  C   UNL     1      -0.752   1.617  -3.724  0.00  0.00    +0.010 C 
ATOM      4  C   UNL     1      -0.027   1.130  -4.981  0.00  0.00    +0.032 C 
ATOM      5  C   UNL     1       1.407   1.663  -4.981  0.00  0.00    +0.115 C 
ATOM      6  C   UNL     1       2.140   1.151  -3.739  0.00  0.00    +0.035 C 
ATOM      7  C   UNL     1       1.416   1.639  -2.483  0.00  0.00    -0.002 C 
ATOM      8  C   UNL     1       2.150   1.131  -1.240  0.00  0.00    +0.004 C 
ATOM      9  C   UNL     1       1.426   1.620   0.016  0.00  0.00    +0.004 C 
ATOM     10  C   UNL     1      -0.006   1.085   0.019  0.00  0.00    -0.004 C 
ATOM     11  C   UNL     1      -0.741   1.602  -1.227  0.00  0.00    -0.001 C 
ATOM     12  C   UNL     1      -2.190   1.126  -1.261  0.00  0.00    +0.005 C 
ATOM     13  C   UNL     1      -2.936   1.510   0.028  0.00  0.00    +0.010 C 
ATOM     14  C   UNL     1      -2.172   0.905   1.190  0.00  0.00    -0.003 C 
ATOM     15  C   UNL     1      -0.752   1.581   1.244  0.00  0.00    +0.001 C 
ATOM     16  C   UNL     1      -0.199   1.120   2.597  0.00  0.00    +0.007 C 
ATOM     17  C   UNL     1      -1.427   1.255   3.538  0.00  0.00    +0.032 C 
ATOM     18  C   UNL     1      -2.730   1.171   2.584  0.00  0.00    +0.121 C 
ATOM     19  C   UNL     1      -2.013  -0.601   0.975  0.00  0.00    +0.014 C 
ENDROOT
BRANCH  18  20
ATOM     20  O   UNL     1      -3.447   2.407   2.603  0.00  0.00    -0.391 OA
ATOM     21  H   UNL     1      -3.825   2.629   3.465  0.00  0.00    +0.210 HD
ENDBRANCH  18  20
BRANCH   5  22
ATOM     22  O   UNL     1       1.385   3.091  -4.966  0.00  0.00    -0.392 OA
ATOM     23  H   UNL     1       0.934   3.486  -5.725  0.00  0.00    +0.210 HD
ENDBRANCH   5  22
TORSDOF 2
