REMARK  Name = ZINC40797904
REMARK  8 active torsions:
REMARK  status: ('A' for Active; 'I' for Inactive)
REMARK    1  A    between atoms: C_1  and  C_2
REMARK    2  A    between atoms: C_2  and  C_3
REMARK    3  A    between atoms: C_2  and  C_4
REMARK    4  A    between atoms: C_4  and  C_5
REMARK    5  A    between atoms: C_5  and  N_6
REMARK    6  A    between atoms: C_8  and  N_25
REMARK    7  A    between atoms: C_9  and  N_13
REMARK    8  A    between atoms: C_17  and  C_20
REMARK                            x       y       z     vdW  Elec       q    Type
REMARK                         _______ _______ _______ _____ _____    ______ ____
ROOT
ATOM      1  N   UNL     1       0.667  -0.609   3.684  0.00  0.00    -0.327 N 
ATOM      2  C   UNL     1       0.143  -0.375   4.950  0.00  0.00    +0.145 A 
ATOM      3  C   UNL     1       0.813  -0.828   6.089  0.00  0.00    +0.105 A 
ATOM      4  C   UNL     1       0.243  -0.566   7.336  0.00  0.00    +0.150 A 
ATOM      5  N   UNL     1      -0.908   0.100   7.392  0.00  0.00    -0.219 NA
ATOM      6  C   UNL     1      -1.507   0.510   6.292  0.00  0.00    +0.225 A 
ATOM      7  N   UNL     1      -1.001   0.288   5.096  0.00  0.00    -0.219 NA
ATOM      8  H   UNL     1       1.502  -1.093   3.586  0.00  0.00    +0.148 HD
ENDROOT
BRANCH   4   9
ATOM      9  N   UNL     1       0.868  -0.995   8.502  0.00  0.00    -0.282 N 
ATOM     10  C   UNL     1       0.290  -0.728   9.740  0.00  0.00    +0.142 A 
ATOM     11  C   UNL     1       0.924  -1.155  10.904  0.00  0.00    +0.081 A 
ATOM     12  C   UNL     1       0.338  -0.883  12.127  0.00  0.00    +0.037 A 
ATOM     13  C   UNL     1      -0.866  -0.190  12.146  0.00  0.00    +0.074 A 
ATOM     14  C   UNL     1      -1.438   0.203  10.953  0.00  0.00    +0.125 A 
ATOM     15  N   UNL     1      -0.854  -0.066   9.801  0.00  0.00    -0.238 NA
ATOM     16 CL   UNL     1       2.428  -2.018  10.821  0.00  0.00    -0.080 Cl
ATOM     17  H   UNL     1       1.707  -1.480   8.453  0.00  0.00    +0.155 HD
BRANCH  13  18
ATOM     18  C   UNL     1      -1.540   0.128  13.456  0.00  0.00    +0.419 C 
ATOM     19  F   UNL     1      -1.091   1.368  13.922  0.00  0.00    -0.166 F 
ATOM     20  F   UNL     1      -2.926   0.175  13.267  0.00  0.00    -0.166 F 
ATOM     21  F   UNL     1      -1.230  -0.863  14.393  0.00  0.00    -0.166 F 
ENDBRANCH  13  18
ENDBRANCH   4   9
BRANCH   3  22
ATOM     22  N   UNL     1       2.025  -1.528   5.983  0.00  0.00    -0.353 N 
ATOM     23  H   UNL     1       2.409  -1.702   5.109  0.00  0.00    +0.143 HD
ATOM     24  H   UNL     1       2.479  -1.836   6.783  0.00  0.00    +0.143 HD
ENDBRANCH   3  22
BRANCH   1  25
ATOM     25  C   UNL     1      -0.042  -0.124   2.497  0.00  0.00    +0.103 C 
BRANCH  25  26
ATOM     26  C   UNL     1       0.742  -0.511   1.242  0.00  0.00    +0.021 C 
BRANCH  26  28
ATOM     27  C   UNL     1      -0.019   1.526   0.010  0.00  0.00    +0.007 C 
ATOM     28  C   UNL     1       0.002  -0.004   0.002  0.00  0.00    -0.016 C 
ATOM     29  C   UNL     1       0.718  -0.497  -1.257  0.00  0.00    +0.007 C 
ENDBRANCH  26  28
ENDBRANCH  25  26
ENDBRANCH   1  25
TORSDOF 6
