REMARK  Name = ZINC10048456
REMARK  12 active torsions:
REMARK  status: ('A' for Active; 'I' for Inactive)
REMARK    1  A    between atoms: C_1  and  C_2
REMARK    2  A    between atoms: C_5  and  N_8
REMARK    3  A    between atoms: C_9  and  C_37
REMARK    4  A    between atoms: C_10  and  C_36
REMARK    5  A    between atoms: N_18  and  C_23
REMARK    6  A    between atoms: N_21  and  C_22
REMARK    7  A    between atoms: C_23  and  C_24
REMARK    8  A    between atoms: C_24  and  C_26
REMARK    9  A    between atoms: C_24  and  C_27
REMARK   10  A    between atoms: C_27  and  N_28
REMARK   11  A    between atoms: N_28  and  C_29
REMARK   12  A    between atoms: C_34  and  N_35
REMARK                            x       y       z     vdW  Elec       q    Type
REMARK                         _______ _______ _______ _____ _____    ______ ____
ROOT
ATOM      1  N   UNL     1      -4.545  -1.859   0.058  0.00  0.00    -0.282 N 
ATOM      2  C   UNL     1      -4.543  -3.243   0.051  0.00  0.00    +0.043 A 
ATOM      3  C   UNL     1      -3.280  -3.656   0.031  0.00  0.00    +0.044 A 
ATOM      4  N   UNL     1      -2.457  -2.543   0.012  0.00  0.00    -0.274 N 
ATOM      5  C   UNL     1      -3.239  -1.439   0.042  0.00  0.00    +0.223 A 
ATOM      6  N   UNL     1      -2.471  -0.359   0.036  0.00  0.00    -0.193 NA
ATOM      7  C   UNL     1      -1.189  -0.714   0.015  0.00  0.00    +0.170 A 
ATOM      8  C   UNL     1      -1.141  -2.107   0.003  0.00  0.00    +0.157 A 
ATOM      9  C   UNL     1       0.109  -2.748  -0.013  0.00  0.00    +0.283 A 
ATOM     10  O   UNL     1       0.176  -3.965  -0.020  0.00  0.00    -0.265 OA
ATOM     11  N   UNL     1       1.234  -2.004  -0.020  0.00  0.00    -0.259 N 
ATOM     12  C   UNL     1       1.177  -0.661  -0.013  0.00  0.00    +0.333 A 
ATOM     13  O   UNL     1       2.213  -0.024  -0.020  0.00  0.00    -0.246 OA
ATOM     14  N   UNL     1       0.002  -0.004   0.002  0.00  0.00    -0.279 N 
ATOM     15  C   UNL     1      -0.018   1.461   0.010  0.00  0.00    +0.155 C 
ATOM     16  C   UNL     1      -2.822  -5.091   0.017  0.00  0.00    +0.066 C 
ATOM     17  C   UNL     1      -5.763  -4.128   0.065  0.00  0.00    +0.066 C 
ENDROOT
BRANCH   1  22
ATOM     18  C   UNL     1      -9.133   1.479   0.140  0.00  0.00    +0.044 C 
ATOM     19  C   UNL     1      -7.914   0.592   0.118  0.00  0.00    -0.050 A 
ATOM     20  C   UNL     1      -7.074   0.601  -0.980  0.00  0.00    +0.005 A 
ATOM     21  C   UNL     1      -5.956  -0.210  -1.003  0.00  0.00    +0.026 A 
ATOM     22  C   UNL     1      -5.677  -1.036   0.078  0.00  0.00    +0.050 A 
ATOM     23  C   UNL     1      -6.526  -1.046   1.177  0.00  0.00    +0.026 A 
ATOM     24  C   UNL     1      -7.639  -0.229   1.196  0.00  0.00    +0.005 A 
ENDBRANCH   1  22
BRANCH  11  25
ATOM     25  C   UNL     1       2.539  -2.670  -0.037  0.00  0.00    +0.134 C 
BRANCH  25  26
ATOM     26  C   UNL     1       3.007  -2.909   1.400  0.00  0.00    +0.023 C 
ATOM     27  C   UNL     1       3.248  -1.564   2.088  0.00  0.00    +0.011 C 
BRANCH  26  28
ATOM     28  C   UNL     1       4.308  -3.715   1.385  0.00  0.00    +0.106 C 
BRANCH  28  29
ATOM     29  N   UNL     1       4.694  -4.046   2.759  0.00  0.00    -0.342 N 
ATOM     30  H   UNL     1       4.142  -3.754   3.501  0.00  0.00    +0.146 HD
BRANCH  29  31
ATOM     31  C   UNL     1       5.859  -4.784   3.000  0.00  0.00    +0.048 A 
ATOM     32  C   UNL     1       6.646  -5.208   1.940  0.00  0.00    +0.025 A 
ATOM     33  C   UNL     1       7.798  -5.932   2.181  0.00  0.00    +0.002 A 
ATOM     34  C   UNL     1       8.164  -6.246   3.477  0.00  0.00    +0.002 A 
ATOM     35  C   UNL     1       7.382  -5.833   4.540  0.00  0.00    +0.024 A 
ATOM     36  C   UNL     1       6.228  -5.101   4.308  0.00  0.00    +0.046 A 
BRANCH  36  37
ATOM     37  N   UNL     1       5.434  -4.681   5.382  0.00  0.00    -0.357 N 
ATOM     38  H   UNL     1       4.626  -4.170   5.218  0.00  0.00    +0.142 HD
ATOM     39  H   UNL     1       5.692  -4.902   6.291  0.00  0.00    +0.142 HD
ENDBRANCH  36  37
ENDBRANCH  29  31
ENDBRANCH  28  29
ENDBRANCH  26  28
ENDBRANCH  25  26
ENDBRANCH  11  25
TORSDOF 7
