REMARK  Name = ZINC40405614
REMARK  9 active torsions:
REMARK  status: ('A' for Active; 'I' for Inactive)
REMARK    1  A    between atoms: C_5  and  C_7
REMARK    2  A    between atoms: C_7  and  C_9
REMARK    3  A    between atoms: C_7  and  C_25
REMARK    4  A    between atoms: C_9  and  C_10
REMARK    5  A    between atoms: C_10  and  N_12
REMARK    6  A    between atoms: N_15  and  C_16
REMARK    7  A    between atoms: C_16  and  C_17
REMARK    8  A    between atoms: C_17  and  C_18
REMARK    9  A    between atoms: C_18  and  C_19
REMARK                            x       y       z     vdW  Elec       q    Type
REMARK                         _______ _______ _______ _____ _____    ______ ____
ROOT
ATOM      1  C   UNL     1       0.349  -1.793   2.696  0.00  0.00    +0.240 C 
ATOM      2  O   UNL     1       1.152  -1.149   3.341  0.00  0.00    -0.274 OA
ENDROOT
BRANCH   1   3
ATOM      3  N   UNL     1      -0.591  -2.501   3.319  0.00  0.00    -0.148 NA
ATOM      4  C   UNL     1      -0.246  -3.437   4.194  0.00  0.00    +0.187 C 
ATOM      5  N   UNL     1       1.066  -3.758   4.366  0.00  0.00    -0.372 N 
ATOM      6  N   UNL     1      -1.205  -4.077   4.921  0.00  0.00    -0.358 N 
ATOM      7  H   UNL     1       1.327  -4.370   5.072  0.00  0.00    +0.159 HD
ATOM      8  H   UNL     1       1.740  -3.374   3.784  0.00  0.00    +0.159 HD
ATOM      9  H   UNL     1      -2.140  -3.848   4.798  0.00  0.00    +0.162 HD
BRANCH   6  10
ATOM     10  C   UNL     1      -0.824  -5.110   5.887  0.00  0.00    +0.116 C 
BRANCH  10  11
ATOM     11  C   UNL     1      -2.080  -5.664   6.562  0.00  0.00    +0.027 C 
BRANCH  11  12
ATOM     12  C   UNL     1      -1.682  -6.743   7.572  0.00  0.00    +0.056 C 
BRANCH  12  13
ATOM     13  C   UNL     1      -2.919  -7.289   8.237  0.00  0.00    +0.033 A 
ATOM     14  C   UNL     1      -3.543  -6.758   9.306  0.00  0.00    +0.105 A 
ATOM     15  N   UNL     1      -4.615  -7.564   9.579  0.00  0.00    -0.352 N 
ATOM     16  H   UNL     1      -5.259  -7.442  10.294  0.00  0.00    +0.166 HD
ATOM     17  C   UNL     1      -4.610  -8.560   8.667  0.00  0.00    +0.171 A 
ATOM     18  N   UNL     1      -3.595  -8.386   7.864  0.00  0.00    -0.350 N 
ATOM     19  H   UNL     1      -3.365  -8.961   7.117  0.00  0.00    +0.166 HD
ENDBRANCH  12  13
ENDBRANCH  11  12
ENDBRANCH  10  11
ENDBRANCH   6  10
ENDBRANCH   1   3
BRANCH   1  20
ATOM     20  C   UNL     1       0.416  -1.791   1.190  0.00  0.00    +0.112 C 
BRANCH  20  21
ATOM     21  C   UNL     1       1.578  -0.906   0.733  0.00  0.00    +0.076 C 
BRANCH  21  22
ATOM     22  C   UNL     1       1.722  -1.001  -0.764  0.00  0.00    -0.038 A 
ATOM     23  C   UNL     1       0.676  -0.622  -1.584  0.00  0.00    +0.007 A 
ATOM     24  C   UNL     1       0.808  -0.708  -2.957  0.00  0.00    +0.038 A 
ATOM     25  C   UNL     1       1.988  -1.174  -3.511  0.00  0.00    +0.123 A 
ATOM     26  C   UNL     1       3.035  -1.554  -2.689  0.00  0.00    +0.038 A 
ATOM     27  C   UNL     1       2.903  -1.462  -1.316  0.00  0.00    +0.007 A 
ATOM     28  F   UNL     1       2.118  -1.259  -4.853  0.00  0.00    -0.205 F 
ENDBRANCH  21  22
BRANCH  21  33
ATOM     29  C   UNL     1      -0.235   2.319   1.454  0.00  0.00    +0.003 A 
ATOM     30  C   UNL     1       0.841   3.109   1.828  0.00  0.00    +0.020 A 
ATOM     31  C   UNL     1       2.110   2.562   1.830  0.00  0.00    +0.111 A 
ATOM     32  N   UNL     1       2.303   1.304   1.482  0.00  0.00    -0.259 NA
ATOM     33  C   UNL     1       1.303   0.523   1.122  0.00  0.00    +0.049 A 
ATOM     34  C   UNL     1       0.006   1.002   1.096  0.00  0.00    +0.024 A 
ENDBRANCH  21  33
ENDBRANCH  20  21
ENDBRANCH   1  20
TORSDOF 9
