REMARK  Name = ZINC38752292
REMARK  6 active torsions:
REMARK  status: ('A' for Active; 'I' for Inactive)
REMARK    1  A    between atoms: C_1  and  O_2
REMARK    2  A    between atoms: O_2  and  C_3
REMARK    3  A    between atoms: C_5  and  C_10
REMARK    4  A    between atoms: C_8  and  O_9
REMARK    5  A    between atoms: C_25  and  N_29
REMARK    6  A    between atoms: C_26  and  C_27
REMARK                            x       y       z     vdW  Elec       q    Type
REMARK                         _______ _______ _______ _____ _____    ______ ____
ROOT
ATOM      1  C   UNL     1       2.462   0.334   4.204  0.00  0.00    +0.084 C 
ATOM      2  C   UNL     1       1.802  -0.014   5.543  0.00  0.00    +0.154 C 
ATOM      3  C   UNL     1       2.735   0.536   6.607  0.00  0.00    +0.129 C 
ATOM      4  C   UNL     1       2.232   1.478   7.492  0.00  0.00    +0.035 A 
ATOM      5  C   UNL     1       3.033   2.020   8.519  0.00  0.00    +0.013 A 
ATOM      6  C   UNL     1       2.502   2.937   9.373  0.00  0.00    +0.001 A 
ATOM      7  C   UNL     1       1.180   3.355   9.254  0.00  0.00    +0.002 A 
ATOM      8  C   UNL     1       0.358   2.870   8.281  0.00  0.00    +0.024 A 
ATOM      9  C   UNL     1       0.839   1.922   7.364  0.00  0.00    +0.044 A 
ATOM     10  N   UNL     1       0.034   1.452   6.403  0.00  0.00    -0.284 N 
ATOM     11  C   UNL     1       0.393   0.535   5.504  0.00  0.00    +0.229 C 
ATOM     12  O   UNL     1      -0.390   0.146   4.656  0.00  0.00    -0.275 OA
ATOM     13  O   UNL     1       3.997   0.102   6.635  0.00  0.00    -0.444 OA
ATOM     14  C   UNL     1       4.611  -0.052   5.438  0.00  0.00    +0.198 C 
ATOM     15  C   UNL     1       3.934   0.038   4.273  0.00  0.00    +0.095 C 
ATOM     16  H   UNL     1      -0.873   1.793   6.360  0.00  0.00    +0.155 HD
ENDROOT
BRANCH   1  19
ATOM     17  C   UNL     1       0.626  -0.619   1.042  0.00  0.00    +0.162 A 
ATOM     18  C   UNL     1       1.202   0.137   2.051  0.00  0.00    +0.053 A 
ATOM     19  C   UNL     1       1.836  -0.490   3.108  0.00  0.00    -0.034 A 
ATOM     20  C   UNL     1       1.897  -1.870   3.161  0.00  0.00    +0.008 A 
ATOM     21  C   UNL     1       1.325  -2.630   2.158  0.00  0.00    +0.049 A 
ATOM     22  C   UNL     1       0.683  -2.008   1.099  0.00  0.00    +0.158 A 
BRANCH  17  24
ATOM     23  C   UNL     1      -0.017   1.425   0.010  0.00  0.00    +0.277 C 
ATOM     24  O   UNL     1       0.002  -0.004   0.002  0.00  0.00    -0.491 OA
ENDBRANCH  17  24
BRANCH  22  25
ATOM     25  O   UNL     1       0.115  -2.754   0.114  0.00  0.00    -0.503 OA
ATOM     26  H   UNL     1       0.711  -2.957  -0.620  0.00  0.00    +0.292 HD
ENDBRANCH  22  25
ENDBRANCH   1  19
BRANCH  14  27
ATOM     27  N   UNL     1       5.960  -0.306   5.408  0.00  0.00    -0.328 N 
ATOM     28  H   UNL     1       6.460  -0.374   6.237  0.00  0.00    +0.145 HD
ATOM     29  H   UNL     1       6.414  -0.419   4.558  0.00  0.00    +0.145 HD
ENDBRANCH  14  27
BRANCH  15  30
ATOM     30  C   UNL     1       4.652  -0.157   3.049  0.00  0.00    +0.100 C 
ATOM     31  N   UNL     1       5.221  -0.311   2.078  0.00  0.00    -0.191 NA
ENDBRANCH  15  30
TORSDOF 5
