REMARK  Name = ZINC39441240
REMARK  6 active torsions:
REMARK  status: ('A' for Active; 'I' for Inactive)
REMARK    1  A    between atoms: C_1  and  C_2
REMARK    2  A    between atoms: C_2  and  C_4
REMARK    3  A    between atoms: C_2  and  S_16
REMARK    4  A    between atoms: S_16  and  C_17
REMARK    5  A    between atoms: C_23  and  N_31
REMARK    6  A    between atoms: N_24  and  C_25
REMARK                            x       y       z     vdW  Elec       q    Type
REMARK                         _______ _______ _______ _____ _____    ______ ____
ROOT
ATOM      1  C   UNL     1      -0.107   0.043   2.715  0.00  0.00    +0.228 C 
ATOM      2  N   UNL     1      -1.426  -0.597   2.732  0.00  0.00    -0.284 N 
ATOM      3  C   UNL     1      -2.433  -0.100   1.991  0.00  0.00    +0.242 C 
ATOM      4  O   UNL     1      -3.488  -0.707   1.923  0.00  0.00    -0.271 OA
ATOM      5  C   UNL     1      -2.282   1.109   1.296  0.00  0.00    +0.106 C 
ATOM      6  C   UNL     1      -1.188   1.895   1.536  0.00  0.00    +0.095 C 
ATOM      7  N   UNL     1      -0.274   1.484   2.484  0.00  0.00    -0.260 N 
ATOM      8  H   UNL     1      -1.573  -1.383   3.281  0.00  0.00    +0.152 HD
ENDROOT
BRANCH   7   9
ATOM      9  C   UNL     1       0.474   2.415   3.211  0.00  0.00    +0.037 A 
ATOM     10  C   UNL     1       1.850   2.494   3.031  0.00  0.00    +0.023 A 
ATOM     11  C   UNL     1       2.586   3.416   3.750  0.00  0.00    +0.002 A 
ATOM     12  C   UNL     1       1.956   4.259   4.647  0.00  0.00    +0.000 A 
ATOM     13  C   UNL     1       0.587   4.182   4.827  0.00  0.00    +0.002 A 
ATOM     14  C   UNL     1      -0.156   3.267   4.108  0.00  0.00    +0.023 A 
ENDBRANCH   7   9
BRANCH   6  15
ATOM     15  N   UNL     1      -1.003   3.067   0.848  0.00  0.00    -0.346 N 
ATOM     16  H   UNL     1      -1.613   3.312   0.134  0.00  0.00    +0.143 HD
ATOM     17  H   UNL     1      -0.263   3.651   1.075  0.00  0.00    +0.143 HD
ENDBRANCH   6  15
BRANCH   1  18
ATOM     18  S   UNL     1       0.896  -0.672   1.383  0.00  0.00    -0.108 S 
BRANCH  18  20
ATOM     19  C   UNL     1       0.229  -3.207   2.164  0.00  0.00    +0.027 C 
ATOM     20  C   UNL     1       1.434  -2.271   2.049  0.00  0.00    +0.112 C 
BRANCH  20  21
ATOM     21  C   UNL     1       2.457  -2.881   1.126  0.00  0.00    +0.123 A 
ATOM     22  N   UNL     1       2.903  -4.136   1.398  0.00  0.00    -0.309 N 
ATOM     23  H   UNL     1       2.560  -4.611   2.170  0.00  0.00    +0.170 HD
ATOM     24  C   UNL     1       3.822  -4.728   0.600  0.00  0.00    +0.259 A 
ATOM     25  O   UNL     1       4.230  -5.851   0.830  0.00  0.00    -0.267 OA
ATOM     26  C   UNL     1       4.308  -3.962  -0.558  0.00  0.00    +0.065 A 
ATOM     27  C   UNL     1       5.253  -4.480  -1.440  0.00  0.00    +0.015 A 
ATOM     28  C   UNL     1       5.674  -3.718  -2.508  0.00  0.00    +0.001 A 
ATOM     29  C   UNL     1       5.164  -2.442  -2.710  0.00  0.00    +0.002 A 
ATOM     30  C   UNL     1       4.230  -1.911  -1.849  0.00  0.00    +0.028 A 
ATOM     31  C   UNL     1       3.787  -2.664  -0.760  0.00  0.00    +0.078 A 
ATOM     32  N   UNL     1       2.864  -2.183   0.110  0.00  0.00    -0.233 NA
ENDBRANCH  20  21
ENDBRANCH  18  20
ENDBRANCH   1  18
TORSDOF 5
