REMARK  Name = ZINC36597628
REMARK  18 active torsions:
REMARK  status: ('A' for Active; 'I' for Inactive)
REMARK    1  A    between atoms: C_1  and  C_2
REMARK    2  A    between atoms: C_5  and  C_8
REMARK    3  A    between atoms: C_8  and  C_10
REMARK    4  A    between atoms: C_8  and  N_21
REMARK    5  A    between atoms: N_12  and  C_13
REMARK    6  A    between atoms: C_13  and  C_14
REMARK    7  A    between atoms: C_13  and  C_15
REMARK    8  A    between atoms: C_13  and  C_16
REMARK    9  A    between atoms: C_16  and  C_17
REMARK   10  A    between atoms: C_17  and  C_18
REMARK   11  A    between atoms: C_17  and  C_19
REMARK   12  A    between atoms: C_17  and  C_20
REMARK   13  A    between atoms: N_21  and  C_22
REMARK   14  A    between atoms: C_22  and  C_23
REMARK   15  A    between atoms: C_26  and  C_28
REMARK   16  A    between atoms: C_29  and  C_31
REMARK   17  A    between atoms: C_32  and  O_38
REMARK   18  A    between atoms: C_36  and  O_37
REMARK                            x       y       z     vdW  Elec       q    Type
REMARK                         _______ _______ _______ _____ _____    ______ ____
ROOT
ATOM      1  C   UNL     1       1.393  -2.086   1.252  0.00  0.00    +0.193 C 
ENDROOT
BRANCH   1   6
ATOM      2  C   UNL     1       0.065   2.963  -1.226  0.00  0.00    +0.044 C 
ATOM      3  C   UNL     1       0.411   1.646  -0.580  0.00  0.00    -0.050 A 
ATOM      4  C   UNL     1       0.765   0.563  -1.363  0.00  0.00    +0.004 A 
ATOM      5  C   UNL     1       1.083  -0.644  -0.770  0.00  0.00    +0.006 A 
ATOM      6  C   UNL     1       1.048  -0.769   0.606  0.00  0.00    -0.018 A 
ATOM      7  C   UNL     1       0.695   0.314   1.390  0.00  0.00    +0.006 A 
ATOM      8  C   UNL     1       0.381   1.522   0.797  0.00  0.00    +0.004 A 
ENDBRANCH   1   6
BRANCH   1   9
ATOM      9  C   UNL     1       2.848  -2.086   1.646  0.00  0.00    +0.239 C 
ATOM     10  O   UNL     1       3.178  -2.475   2.746  0.00  0.00    -0.273 OA
ATOM     11  N   UNL     1       3.781  -1.654   0.775  0.00  0.00    -0.308 N 
ATOM     12  H   UNL     1       3.517  -1.343  -0.105  0.00  0.00    +0.149 HD
BRANCH  11  13
ATOM     13  C   UNL     1       5.196  -1.655   1.158  0.00  0.00    +0.030 C 
ATOM     14  C   UNL     1       5.422  -0.632   2.273  0.00  0.00    +0.031 C 
ATOM     15  C   UNL     1       5.589  -3.047   1.655  0.00  0.00    +0.031 C 
BRANCH  13  16
ATOM     16  C   UNL     1       6.052  -1.284  -0.055  0.00  0.00    +0.031 C 
BRANCH  16  17
ATOM     17  C   UNL     1       5.549  -2.042  -1.285  0.00  0.00    -0.036 C 
ATOM     18  C   UNL     1       4.144  -1.555  -1.645  0.00  0.00    +0.010 C 
ATOM     19  C   UNL     1       6.494  -1.790  -2.461  0.00  0.00    +0.010 C 
ATOM     20  C   UNL     1       5.506  -3.541  -0.978  0.00  0.00    +0.010 C 
ENDBRANCH  16  17
ENDBRANCH  13  16
ENDBRANCH  11  13
ENDBRANCH   1   9
BRANCH   1  21
ATOM     21  N   UNL     1       0.564  -2.277   2.445  0.00  0.00    -0.274 N 
ATOM     22  C   UNL     1      -0.777  -2.350   2.329  0.00  0.00    +0.255 C 
ATOM     23  O   UNL     1      -1.299  -2.258   1.235  0.00  0.00    -0.270 OA
BRANCH  22  24
ATOM     24  C   UNL     1      -1.610  -2.542   3.529  0.00  0.00    +0.119 A 
ATOM     25  C   UNL     1      -2.091  -1.433   4.239  0.00  0.00    +0.133 A 
ATOM     26  C   UNL     1      -2.875  -1.625   5.365  0.00  0.00    +0.046 A 
ATOM     27  C   UNL     1      -3.182  -2.904   5.790  0.00  0.00    +0.007 A 
ATOM     28  C   UNL     1      -2.712  -4.005   5.098  0.00  0.00    +0.046 A 
ATOM     29  C   UNL     1      -1.931  -3.836   3.965  0.00  0.00    +0.133 A 
BRANCH  29  30
ATOM     30  O   UNL     1      -1.477  -4.917   3.284  0.00  0.00    -0.506 OA
ATOM     31  H   UNL     1      -0.618  -5.242   3.590  0.00  0.00    +0.292 HD
ENDBRANCH  29  30
BRANCH  25  32
ATOM     32  O   UNL     1      -1.791  -0.176   3.824  0.00  0.00    -0.506 OA
ATOM     33  H   UNL     1      -2.430   0.195   3.200  0.00  0.00    +0.292 HD
ENDBRANCH  25  32
ENDBRANCH  22  24
BRANCH  21  34
ATOM     34  C   UNL     1       1.193  -2.388   3.764  0.00  0.00    +0.183 C 
BRANCH  34  35
ATOM     35  C   UNL     1       1.790  -1.059   4.149  0.00  0.00    +0.122 A 
ATOM     36  C   UNL     1       1.161  -0.081   4.825  0.00  0.00    +0.046 A 
ATOM     37  C   UNL     1       2.086   0.979   4.968  0.00  0.00    +0.045 A 
ATOM     38  C   UNL     1       3.225   0.584   4.371  0.00  0.00    +0.102 A 
ATOM     39  O   UNL     1       3.042  -0.653   3.882  0.00  0.00    -0.463 OA
ATOM     40  C   UNL     1       4.494   1.391   4.273  0.00  0.00    +0.086 C 
ENDBRANCH  34  35
ENDBRANCH  21  34
ENDBRANCH   1  21
TORSDOF 11
