REMARK  Name = ZINC39560269
REMARK  9 active torsions:
REMARK  status: ('A' for Active; 'I' for Inactive)
REMARK    1  A    between atoms: C_1  and  C_2
REMARK    2  A    between atoms: C_2  and  C_26
REMARK    3  A    between atoms: C_6  and  O_25
REMARK    4  A    between atoms: C_8  and  O_23
REMARK    5  A    between atoms: C_9  and  C_12
REMARK    6  A    between atoms: C_12  and  C_14
REMARK    7  A    between atoms: C_15  and  C_16
REMARK    8  A    between atoms: C_19  and  O_22
REMARK    9  A    between atoms: O_23  and  C_24
REMARK                            x       y       z     vdW  Elec       q    Type
REMARK                         _______ _______ _______ _____ _____    ______ ____
ROOT
ATOM      1  C   UNL     1       0.000   1.550   0.015  0.00  0.00    +0.055 C 
ATOM      2  C   UNL     1       0.012   0.020   0.002  0.00  0.00    +0.105 C 
ATOM      3  C   UNL     1       0.752  -0.480  -1.246  0.00  0.00    +0.052 C 
ATOM      4  C   UNL     1       2.147   0.150  -1.260  0.00  0.00    +0.046 C 
ATOM      5  C   UNL     1       2.791  -0.008   0.095  0.00  0.00    +0.037 A 
ATOM      6  C   UNL     1       4.171   0.143   0.199  0.00  0.00    +0.127 A 
ATOM      7  C   UNL     1       4.807   0.010   1.425  0.00  0.00    +0.092 A 
ATOM      8  C   UNL     1       4.070  -0.274   2.560  0.00  0.00    +0.138 A 
ATOM      9  C   UNL     1       2.679  -0.428   2.465  0.00  0.00    +0.105 A 
ATOM     10  C   UNL     1       2.041  -0.296   1.216  0.00  0.00    +0.142 A 
ATOM     11  O   UNL     1       0.697  -0.466   1.156  0.00  0.00    -0.485 OA
ATOM     12  C   UNL     1      -1.424  -0.507  -0.005  0.00  0.00    +0.055 C 
ENDROOT
BRANCH   9  13
ATOM     13  C   UNL     1       1.887  -0.728   3.668  0.00  0.00    +0.193 C 
ATOM     14  O   UNL     1       1.612  -1.883   3.945  0.00  0.00    -0.287 OA
BRANCH  13  15
ATOM     15  C   UNL     1       1.429   0.360   4.532  0.00  0.00    +0.052 C 
ATOM     16  C   UNL     1       0.793   0.080   5.691  0.00  0.00    +0.012 C 
BRANCH  16  17
ATOM     17  C   UNL     1       0.333   1.173   6.559  0.00  0.00    -0.025 A 
ATOM     18  C   UNL     1       0.548   2.505   6.185  0.00  0.00    +0.011 A 
ATOM     19  C   UNL     1       0.115   3.525   7.001  0.00  0.00    +0.046 A 
ATOM     20  C   UNL     1      -0.535   3.235   8.196  0.00  0.00    +0.117 A 
ATOM     21  C   UNL     1      -0.750   1.914   8.572  0.00  0.00    +0.046 A 
ATOM     22  C   UNL     1      -0.326   0.886   7.760  0.00  0.00    +0.011 A 
BRANCH  20  23
ATOM     23  O   UNL     1      -0.960   4.244   8.997  0.00  0.00    -0.507 OA
ATOM     24  H   UNL     1      -1.860   4.544   8.809  0.00  0.00    +0.292 HD
ENDBRANCH  20  23
ENDBRANCH  16  17
ENDBRANCH  13  15
ENDBRANCH   9  13
BRANCH   8  25
ATOM     25  O   UNL     1       4.689  -0.404   3.760  0.00  0.00    -0.494 OA
ATOM     26  C   UNL     1       6.108  -0.234   3.780  0.00  0.00    +0.277 C 
ENDBRANCH   8  25
BRANCH   6  27
ATOM     27  O   UNL     1       4.903   0.423  -0.909  0.00  0.00    -0.506 OA
ATOM     28  H   UNL     1       5.009   1.368  -1.082  0.00  0.00    +0.292 HD
ENDBRANCH   6  27
TORSDOF 6
