REMARK  Name = ZINC01860398
REMARK  4 active torsions:
REMARK  status: ('A' for Active; 'I' for Inactive)
REMARK    1  A    between atoms: C_12  and  C_34
REMARK    2  A    between atoms: C_14  and  C_27
REMARK    3  A    between atoms: C_34  and  C_36
REMARK    4  A    between atoms: C_39  and  N_42
REMARK                            x       y       z     vdW  Elec       q    Type
REMARK                         _______ _______ _______ _____ _____    ______ ____
ROOT
ATOM      1  C   UNL     1      -0.460   0.047   0.147  0.00  0.00    +0.001 A 
ATOM      2  C   UNL     1       0.520   0.975  -0.163  0.00  0.00    +0.002 A 
ATOM      3  C   UNL     1       1.854   0.600  -0.193  0.00  0.00    +0.024 A 
ATOM      4  C   UNL     1       2.199  -0.703   0.084  0.00  0.00    +0.038 A 
ATOM      5  C   UNL     1       1.205  -1.658   0.386  0.00  0.00    -0.004 A 
ATOM      6  C   UNL     1      -0.127  -1.265   0.421  0.00  0.00    +0.010 A 
ATOM      7  C   UNL     1       1.616  -3.054   0.628  0.00  0.00    +0.007 C 
ATOM      8  C   UNL     1       2.879  -3.356   0.922  0.00  0.00    -0.003 C 
ATOM      9  C   UNL     1       3.913  -2.268   1.016  0.00  0.00    +0.119 C 
ATOM     10  N   UNL     1       3.508  -1.173   0.105  0.00  0.00    -0.311 N 
ATOM     11  C   UNL     1       4.643  -0.798  -0.739  0.00  0.00    +0.154 C 
ATOM     12  C   UNL     1       5.890  -1.453  -0.090  0.00  0.00    +0.073 C 
ATOM     13  C   UNL     1       5.290  -2.734   0.552  0.00  0.00    +0.127 C 
ATOM     14  C   UNL     1       6.135  -3.234   1.691  0.00  0.00    +0.180 C 
ATOM     15  O   UNL     1       6.434  -2.622   2.694  0.00  0.00    -0.291 OA
ATOM     16  C   UNL     1       6.526  -4.605   1.353  0.00  0.00    +0.029 A 
ATOM     17  C   UNL     1       7.309  -5.506   2.081  0.00  0.00    +0.012 A 
ATOM     18  C   UNL     1       7.524  -6.756   1.515  0.00  0.00    +0.001 A 
ATOM     19  C   UNL     1       6.993  -7.107   0.289  0.00  0.00    +0.001 A 
ATOM     20  C   UNL     1       6.211  -6.231  -0.453  0.00  0.00    +0.012 A 
ATOM     21  C   UNL     1       5.980  -4.966   0.094  0.00  0.00    +0.029 A 
ATOM     22  C   UNL     1       5.203  -3.849  -0.452  0.00  0.00    +0.180 C 
ATOM     23  O   UNL     1       4.607  -3.829  -1.507  0.00  0.00    -0.291 OA
ENDROOT
BRANCH  12  24
ATOM     24  C   UNL     1       6.921  -1.800  -1.133  0.00  0.00    -0.005 A 
ATOM     25  C   UNL     1       6.521  -2.250  -2.378  0.00  0.00    +0.007 A 
ATOM     26  C   UNL     1       7.467  -2.568  -3.334  0.00  0.00    +0.000 A 
ATOM     27  C   UNL     1       8.813  -2.437  -3.048  0.00  0.00    +0.003 A 
ATOM     28  C   UNL     1       9.215  -1.987  -1.805  0.00  0.00    +0.038 A 
ATOM     29  C   UNL     1       8.269  -1.663  -0.847  0.00  0.00    +0.127 A 
ATOM     30  F   UNL     1       8.661  -1.219   0.367  0.00  0.00    -0.205 F 
ENDBRANCH  12  24
BRANCH  11  31
ATOM     31  C   UNL     1       4.797   0.701  -0.766  0.00  0.00    +0.184 C 
ATOM     32  O   UNL     1       5.140   1.294   0.234  0.00  0.00    -0.290 OA
BRANCH  31  33
ATOM     33  C   UNL     1       4.530   1.446  -2.008  0.00  0.00    +0.019 A 
ATOM     34  C   UNL     1       4.128   0.767  -3.162  0.00  0.00    +0.013 A 
ATOM     35  C   UNL     1       3.880   1.471  -4.321  0.00  0.00    +0.033 A 
ATOM     36  C   UNL     1       4.028   2.847  -4.344  0.00  0.00    +0.126 A 
ATOM     37  C   UNL     1       4.426   3.527  -3.205  0.00  0.00    +0.033 A 
ATOM     38  C   UNL     1       4.672   2.837  -2.037  0.00  0.00    +0.013 A 
BRANCH  36  39
ATOM     39  N   UNL     1       3.761   3.596  -5.592  0.00  0.00    +0.056 N 
ATOM     40  O   UNL     1       3.414   3.006  -6.589  0.00  0.00    -0.126 OA
ATOM     41  O   UNL     1       3.890   4.798  -5.616  0.00  0.00    -0.126 OA
ENDBRANCH  36  39
ENDBRANCH  31  33
ENDBRANCH  11  31
TORSDOF 4
