REMARK  Name = ZINC63386476
REMARK  8 active torsions:
REMARK  status: ('A' for Active; 'I' for Inactive)
REMARK    1  A    between atoms: C_1  and  O_2
REMARK    2  A    between atoms: O_2  and  C_3
REMARK    3  A    between atoms: C_9  and  C_12
REMARK    4  A    between atoms: C_12  and  C_13
REMARK    5  A    between atoms: C_13  and  N_14
REMARK    6  A    between atoms: C_15  and  C_17
REMARK    7  A    between atoms: C_26  and  O_27
REMARK    8  A    between atoms: O_27  and  C_28
REMARK                            x       y       z     vdW  Elec       q    Type
REMARK                         _______ _______ _______ _____ _____    ______ ____
ROOT
ATOM      1  N   UNL     1      -0.752  -6.781  -1.509  0.00  0.00    -0.313 N 
ATOM      2  C   UNL     1      -1.922  -7.385  -1.796  0.00  0.00    +0.239 C 
ATOM      3  O   UNL     1      -2.617  -6.964  -2.697  0.00  0.00    -0.273 OA
ATOM      4  H   UNL     1      -0.196  -7.118  -0.789  0.00  0.00    +0.149 HD
ENDROOT
BRANCH   2   5
ATOM      5  C   UNL     1      -2.367  -8.584  -0.999  0.00  0.00    +0.190 C 
ATOM      6  C   UNL     1      -1.678  -9.831  -1.505  0.00  0.00    +0.020 C 
ATOM      7  C   UNL     1      -2.659 -10.656  -1.929  0.00  0.00    +0.038 A 
ATOM      8  C   UNL     1      -3.970 -10.001  -1.722  0.00  0.00    +0.047 A 
ATOM      9  N   UNL     1      -3.804  -8.812  -1.188  0.00  0.00    -0.370 N 
ATOM     10  C   UNL     1      -5.138 -10.709  -2.106  0.00  0.00    +0.026 A 
ATOM     11  C   UNL     1      -5.045 -11.947  -2.644  0.00  0.00    +0.006 A 
ATOM     12  C   UNL     1      -3.824 -12.592  -2.851  0.00  0.00    +0.046 A 
ATOM     13  C   UNL     1      -2.641 -12.005  -2.520  0.00  0.00    +0.129 A 
ATOM     14  H   UNL     1      -4.512  -8.189  -0.956  0.00  0.00    +0.161 HD
BRANCH  13  15
ATOM     15  O   UNL     1      -1.468 -12.650  -2.731  0.00  0.00    -0.494 OA
ATOM     16  C   UNL     1      -1.540 -13.954  -3.309  0.00  0.00    +0.277 C 
ENDBRANCH  13  15
ENDBRANCH   2   5
BRANCH   1  17
ATOM     17  C   UNL     1      -0.319  -5.616  -2.284  0.00  0.00    +0.108 C 
BRANCH  17  18
ATOM     18  C   UNL     1       1.031  -5.126  -1.758  0.00  0.00    +0.052 C 
BRANCH  18  25
ATOM     19  C   UNL     1       0.606  -0.607  -1.056  0.00  0.00    +0.121 A 
ATOM     20  C   UNL     1       1.172   0.195  -2.062  0.00  0.00    +0.047 A 
ATOM     21  C   UNL     1       1.790  -0.325  -3.144  0.00  0.00    +0.029 A 
ATOM     22  C   UNL     1       1.886  -1.780  -3.299  0.00  0.00    +0.043 A 
ATOM     23  N   UNL     1       2.419  -2.528  -4.232  0.00  0.00    -0.380 N 
ATOM     24  C   UNL     1       2.222  -3.937  -3.871  0.00  0.00    +0.144 C 
ATOM     25  C   UNL     1       1.476  -3.927  -2.555  0.00  0.00    -0.040 C 
ATOM     26  C   UNL     1       1.290  -2.626  -2.239  0.00  0.00    +0.002 A 
ATOM     27  C   UNL     1       0.646  -1.960  -1.102  0.00  0.00    +0.055 A 
ATOM     28  H   UNL     1       2.869  -2.205  -5.029  0.00  0.00    +0.160 HD
BRANCH  19  30
ATOM     29  C   UNL     1      -0.017   1.425   0.010  0.00  0.00    +0.277 C 
ATOM     30  O   UNL     1       0.002  -0.004   0.002  0.00  0.00    -0.495 OA
ENDBRANCH  19  30
ENDBRANCH  18  25
ENDBRANCH  17  18
ENDBRANCH   1  17
TORSDOF 6
