REMARK  Name = ZINC64801867
REMARK  6 active torsions:
REMARK  status: ('A' for Active; 'I' for Inactive)
REMARK    1  A    between atoms: C_1  and  C_2
REMARK    2  A    between atoms: C_6  and  S_8
REMARK    3  A    between atoms: S_8  and  N_11
REMARK    4  A    between atoms: N_11  and  C_12
REMARK    5  A    between atoms: C_15  and  N_18
REMARK    6  A    between atoms: C_21  and  C_31
REMARK                            x       y       z     vdW  Elec       q    Type
REMARK                         _______ _______ _______ _____ _____    ______ ____
ROOT
ATOM      1  C   UNL     1       2.394  -1.914   3.365  0.00  0.00    +0.048 A 
ATOM      2  C   UNL     1       2.792  -1.085   2.325  0.00  0.00    +0.026 A 
ATOM      3  C   UNL     1       3.510   0.063   2.593  0.00  0.00    +0.025 A 
ATOM      4  C   UNL     1       3.835   0.389   3.903  0.00  0.00    +0.032 A 
ATOM      5  C   UNL     1       3.437  -0.440   4.944  0.00  0.00    +0.025 A 
ATOM      6  C   UNL     1       2.713  -1.585   4.676  0.00  0.00    +0.026 A 
ENDROOT
BRANCH   4   7
ATOM      7  N   UNL     1       4.565   1.554   4.175  0.00  0.00    -0.299 N 
ATOM      8  C   UNL     1       5.456   1.581   5.235  0.00  0.00    +0.128 A 
ATOM      9  C   UNL     1       6.101   2.768   5.589  0.00  0.00    +0.067 A 
ATOM     10  C   UNL     1       6.982   2.749   6.652  0.00  0.00    +0.045 A 
ATOM     11  N   UNL     1       7.188   1.612   7.302  0.00  0.00    -0.219 NA
ATOM     12  C   UNL     1       6.562   0.500   6.945  0.00  0.00    +0.220 A 
ATOM     13  N   UNL     1       5.706   0.478   5.935  0.00  0.00    -0.199 NA
ATOM     14  N   UNL     1       6.805  -0.666   7.650  0.00  0.00    -0.300 N 
ATOM     15  C   UNL     1       6.133  -1.919   7.277  0.00  0.00    +0.108 C 
ATOM     16  C   UNL     1       7.194  -3.003   7.065  0.00  0.00    +0.019 C 
ATOM     17  C   UNL     1       8.069  -3.107   8.316  0.00  0.00    +0.003 C 
ATOM     18  C   UNL     1       8.782  -1.774   8.554  0.00  0.00    +0.019 C 
ATOM     19  C   UNL     1       7.744  -0.677   8.780  0.00  0.00    +0.108 C 
ATOM     20  C   UNL     1       7.701   4.006   7.069  0.00  0.00    +0.066 C 
ATOM     21  H   UNL     1       4.446   2.341   3.621  0.00  0.00    +0.154 HD
ENDBRANCH   4   7
BRANCH   1  22
ATOM     22  N   UNL     1       1.665  -3.077   3.094  0.00  0.00    -0.216 N 
ATOM     23  H   UNL     1       1.908  -3.913   3.523  0.00  0.00    +0.174 HD
BRANCH  22  24
ATOM     24  S   UNL     1       0.389  -3.028   2.039  0.00  0.00    +0.072 S 
ATOM     25  O   UNL     1      -0.184  -4.328   2.035  0.00  0.00    -0.150 OA
ATOM     26  O   UNL     1       0.864  -2.400   0.856  0.00  0.00    -0.150 OA
BRANCH  24  32
ATOM     27  C   UNL     1      -3.918  -2.176   4.876  0.00  0.00    +0.044 C 
ATOM     28  C   UNL     1      -2.796  -1.615   4.041  0.00  0.00    -0.049 A 
ATOM     29  C   UNL     1      -2.713  -0.253   3.820  0.00  0.00    +0.003 A 
ATOM     30  C   UNL     1      -1.683   0.261   3.055  0.00  0.00    +0.002 A 
ATOM     31  C   UNL     1      -0.736  -0.586   2.511  0.00  0.00    +0.029 A 
ATOM     32  C   UNL     1      -0.818  -1.948   2.733  0.00  0.00    +0.109 A 
ATOM     33  C   UNL     1      -1.846  -2.462   3.502  0.00  0.00    +0.032 A 
ENDBRANCH  24  32
ENDBRANCH  22  24
ENDBRANCH   1  22
TORSDOF 4
