REMARK  Name = ZINC08876459
REMARK  10 active torsions:
REMARK  status: ('A' for Active; 'I' for Inactive)
REMARK    1  A    between atoms: C_1  and  C_2
REMARK    2  A    between atoms: C_2  and  C_3
REMARK    3  A    between atoms: C_3  and  C_5
REMARK    4  A    between atoms: C_3  and  N_6
REMARK    5  A    between atoms: C_7  and  C_9
REMARK    6  A    between atoms: C_9  and  C_11
REMARK    7  A    between atoms: C_9  and  N_15
REMARK    8  A    between atoms: C_11  and  C_13
REMARK    9  A    between atoms: C_11  and  C_14
REMARK   10  A    between atoms: C_16  and  C_18
REMARK                            x       y       z     vdW  Elec       q    Type
REMARK                         _______ _______ _______ _____ _____    ______ ____
ROOT
ATOM      1  C   UNL     1      -1.757  -0.848   0.444  0.00  0.00    +0.167 C 
ATOM      2  C   UNL     1      -0.567  -1.819   0.444  0.00  0.00    +0.069 C 
ATOM      3  C   UNL     1       0.729  -1.055   0.536  0.00  0.00    -0.015 A 
ATOM      4  C   UNL     1       2.038  -1.583   0.874  0.00  0.00    +0.003 A 
ATOM      5  C   UNL     1       2.477  -2.865   1.217  0.00  0.00    +0.010 A 
ATOM      6  C   UNL     1       3.817  -3.011   1.482  0.00  0.00    +0.001 A 
ATOM      7  C   UNL     1       4.700  -1.946   1.416  0.00  0.00    +0.002 A 
ATOM      8  C   UNL     1       4.292  -0.667   1.079  0.00  0.00    +0.026 A 
ATOM      9  C   UNL     1       2.937  -0.489   0.805  0.00  0.00    +0.047 A 
ATOM     10  N   UNL     1       2.211   0.611   0.450  0.00  0.00    -0.356 N 
ATOM     11  H   UNL     1       2.573   1.502   0.324  0.00  0.00    +0.166 HD
ATOM     12  C   UNL     1       0.895   0.267   0.300  0.00  0.00    +0.046 A 
ATOM     13  C   UNL     1      -0.248   1.188  -0.052  0.00  0.00    +0.155 C 
ATOM     14  N   UNL     1      -1.393   0.308  -0.381  0.00  0.00    -0.273 N 
ATOM     15  C   UNL     1      -1.948   0.742  -1.520  0.00  0.00    +0.248 C 
ATOM     16  O   UNL     1      -3.028   0.389  -1.954  0.00  0.00    -0.270 OA
ATOM     17  C   UNL     1      -1.054   1.710  -2.165  0.00  0.00    +0.042 A 
ATOM     18  C   UNL     1       0.015   1.981  -1.286  0.00  0.00    -0.009 A 
ATOM     19  C   UNL     1       1.028   2.847  -1.631  0.00  0.00    +0.006 A 
ATOM     20  C   UNL     1       0.942   3.458  -2.879  0.00  0.00    +0.000 A 
ATOM     21  C   UNL     1      -0.109   3.212  -3.739  0.00  0.00    +0.001 A 
ATOM     22  C   UNL     1      -1.135   2.338  -3.410  0.00  0.00    +0.013 A 
ENDROOT
BRANCH   1  24
ATOM     23  N   UNL     1      -2.373  -1.306   2.796  0.00  0.00    -0.302 N 
ATOM     24  C   UNL     1      -2.048  -0.399   1.853  0.00  0.00    +0.235 C 
ATOM     25  O   UNL     1      -1.990   0.778   2.139  0.00  0.00    -0.274 OA
ATOM     26  H   UNL     1      -2.420  -2.248   2.567  0.00  0.00    +0.150 HD
BRANCH  23  27
ATOM     27  C   UNL     1      -2.657  -0.870   4.165  0.00  0.00    +0.161 C 
BRANCH  27  29
ATOM     28  N   UNL     1      -2.018  -1.744   6.389  0.00  0.00    -0.311 N 
ATOM     29  C   UNL     1      -2.388  -2.005   5.120  0.00  0.00    +0.234 C 
ATOM     30  O   UNL     1      -2.506  -3.152   4.745  0.00  0.00    -0.274 OA
ATOM     31  H   UNL     1      -1.995  -0.829   6.709  0.00  0.00    +0.149 HD
BRANCH  28  32
ATOM     32  C   UNL     1      -1.649  -2.844   7.285  0.00  0.00    +0.070 C 
ATOM     33  C   UNL     1      -0.174  -3.195   7.081  0.00  0.00    +0.028 C 
BRANCH  32  35
ATOM     34  C   UNL     1      -3.370  -2.186   8.972  0.00  0.00    +0.005 C 
ATOM     35  C   UNL     1      -1.876  -2.417   8.736  0.00  0.00    +0.018 C 
ENDBRANCH  32  35
ENDBRANCH  28  32
ENDBRANCH  27  29
BRANCH  27  36
ATOM     36  C   UNL     1      -4.124  -0.449   4.273  0.00  0.00    +0.012 C 
ATOM     37  C   UNL     1      -4.404   0.067   5.686  0.00  0.00    +0.009 C 
ATOM     38  C   UNL     1      -4.412   0.659   3.259  0.00  0.00    +0.009 C 
ENDBRANCH  27  36
ENDBRANCH  23  27
ENDBRANCH   1  24
TORSDOF 6
