REMARK  Name = ZINC06553057
REMARK  9 active torsions:
REMARK  status: ('A' for Active; 'I' for Inactive)
REMARK    1  A    between atoms: C_1  and  C_2
REMARK    2  A    between atoms: C_2  and  O_3
REMARK    3  A    between atoms: O_3  and  C_4
REMARK    4  A    between atoms: C_6  and  C_11
REMARK    5  A    between atoms: C_9  and  O_10
REMARK    6  A    between atoms: C_13  and  C_25
REMARK    7  A    between atoms: C_15  and  C_20
REMARK    8  A    between atoms: C_15  and  O_24
REMARK    9  A    between atoms: C_25  and  C_27
REMARK                            x       y       z     vdW  Elec       q    Type
REMARK                         _______ _______ _______ _____ _____    ______ ____
ROOT
ATOM      1  C   UNL     1       0.042  -4.719   0.763  0.00  0.00    +0.120 C 
ATOM      2  C   UNL     1       0.890  -5.562   1.721  0.00  0.00    +0.144 C 
ATOM      3  C   UNL     1       0.022  -6.700   2.268  0.00  0.00    +0.243 C 
ATOM      4  N   UNL     1      -0.536  -7.460   1.149  0.00  0.00    -0.264 N 
ATOM      5  C   UNL     1      -0.776  -6.880  -0.037  0.00  0.00    +0.302 C 
ATOM      6  O   UNL     1      -1.250  -7.555  -0.931  0.00  0.00    -0.253 OA
ATOM      7  N   UNL     1      -0.518  -5.585  -0.275  0.00  0.00    -0.292 N 
ATOM      8  H   UNL     1      -0.735  -8.402   1.266  0.00  0.00    +0.153 HD
ATOM      9  H   UNL     1      -0.704  -5.216  -1.152  0.00  0.00    +0.151 HD
ENDROOT
BRANCH   1  12
ATOM     10  C   UNL     1       1.762  -1.422   0.094  0.00  0.00    +0.162 A 
ATOM     11  C   UNL     1       0.969  -2.396   0.680  0.00  0.00    +0.055 A 
ATOM     12  C   UNL     1       0.905  -3.661   0.125  0.00  0.00    -0.023 A 
ATOM     13  C   UNL     1       1.631  -3.957  -1.013  0.00  0.00    +0.009 A 
ATOM     14  C   UNL     1       2.425  -2.991  -1.602  0.00  0.00    +0.049 A 
ATOM     15  C   UNL     1       2.489  -1.719  -1.055  0.00  0.00    +0.158 A 
BRANCH  15  16
ATOM     16  O   UNL     1       3.264  -0.765  -1.636  0.00  0.00    -0.503 OA
ATOM     17  H   UNL     1       4.173  -0.742  -1.306  0.00  0.00    +0.292 HD
ENDBRANCH  15  16
BRANCH  10  18
ATOM     18  O   UNL     1       1.826  -0.177   0.638  0.00  0.00    -0.489 OA
BRANCH  18  20
ATOM     19  C   UNL     1       1.252   1.501   2.280  0.00  0.00    +0.048 C 
ATOM     20  C   UNL     1       1.054   0.055   1.818  0.00  0.00    +0.226 C 
ENDBRANCH  18  20
ENDBRANCH  10  18
ENDBRANCH   1  12
BRANCH   3  21
ATOM     21  C   UNL     1       0.877  -7.624   3.138  0.00  0.00    +0.436 C 
ATOM     22  F   UNL     1       1.522  -6.870   4.125  0.00  0.00    -0.166 F 
ATOM     23  F   UNL     1       0.059  -8.584   3.744  0.00  0.00    -0.166 F 
ATOM     24  F   UNL     1       1.833  -8.262   2.340  0.00  0.00    -0.166 F 
ENDBRANCH   3  21
BRANCH   3  25
ATOM     25  O   UNL     1      -1.042  -6.155   3.052  0.00  0.00    -0.364 OA
ATOM     26  H   UNL     1      -1.633  -6.820   3.430  0.00  0.00    +0.212 HD
ENDBRANCH   3  25
BRANCH   2  27
ATOM     27  C   UNL     1       2.072  -6.134   0.981  0.00  0.00    +0.173 C 
ATOM     28  O   UNL     1       1.896  -6.899   0.057  0.00  0.00    -0.292 OA
BRANCH  27  29
ATOM     29  C   UNL     1       3.438  -5.763   1.379  0.00  0.00    +0.018 A 
ATOM     30  C   UNL     1       3.644  -4.793   2.367  0.00  0.00    +0.013 A 
ATOM     31  C   UNL     1       4.927  -4.451   2.735  0.00  0.00    +0.020 A 
ATOM     32  C   UNL     1       6.012  -5.064   2.129  0.00  0.00    +0.041 A 
ATOM     33  C   UNL     1       5.816  -6.025   1.150  0.00  0.00    +0.020 A 
ATOM     34  C   UNL     1       4.539  -6.381   0.776  0.00  0.00    +0.013 A 
ATOM     35 CL   UNL     1       7.625  -4.625   2.599  0.00  0.00    -0.084 Cl
ENDBRANCH  27  29
ENDBRANCH   2  27
TORSDOF 8
