REMARK  Name = ZINC62257842
REMARK  9 active torsions:
REMARK  status: ('A' for Active; 'I' for Inactive)
REMARK    1  A    between atoms: C_1  and  C_2
REMARK    2  A    between atoms: C_5  and  C_8
REMARK    3  A    between atoms: C_8  and  O_9
REMARK    4  A    between atoms: O_9  and  C_10
REMARK    5  A    between atoms: C_13  and  C_16
REMARK    6  A    between atoms: C_16  and  N_17
REMARK    7  A    between atoms: N_17  and  C_18
REMARK    8  A    between atoms: N_22  and  C_24
REMARK    9  A    between atoms: C_24  and  C_25
REMARK                            x       y       z     vdW  Elec       q    Type
REMARK                         _______ _______ _______ _____ _____    ______ ____
ROOT
ATOM      1  C   UNL     1       2.223 -10.308  -0.067  0.00  0.00    -0.046 C 
ENDROOT
BRANCH   1   5
ATOM      2  C   UNL     1       1.608  -6.079  -0.040  0.00  0.00    +0.121 A 
ATOM      3  C   UNL     1       0.520  -6.939  -0.044  0.00  0.00    +0.046 A 
ATOM      4  C   UNL     1       0.721  -8.306  -0.053  0.00  0.00    +0.005 A 
ATOM      5  C   UNL     1       2.006  -8.817  -0.058  0.00  0.00    -0.064 A 
ATOM      6  C   UNL     1       3.092  -7.961  -0.053  0.00  0.00    +0.005 A 
ATOM      7  C   UNL     1       2.896  -6.594  -0.050  0.00  0.00    +0.046 A 
BRANCH   2   8
ATOM      8  O   UNL     1       1.413  -4.734  -0.032  0.00  0.00    -0.487 OA
BRANCH   8   9
ATOM      9  C   UNL     1       0.059  -4.275  -0.021  0.00  0.00    +0.264 C 
BRANCH   9  14
ATOM     10  C   UNL     1      -0.018   1.503   0.010  0.00  0.00    +0.044 C 
ATOM     11  C   UNL     1       0.002  -0.004   0.002  0.00  0.00    -0.050 A 
ATOM     12  C   UNL     1       0.006  -0.689  -1.199  0.00  0.00    +0.004 A 
ATOM     13  C   UNL     1       0.025  -2.071  -1.206  0.00  0.00    +0.007 A 
ATOM     14  C   UNL     1       0.040  -2.768  -0.013  0.00  0.00    -0.010 A 
ATOM     15  C   UNL     1       0.037  -2.084   1.188  0.00  0.00    +0.007 A 
ATOM     16  C   UNL     1       0.023  -0.702   1.195  0.00  0.00    +0.004 A 
ENDBRANCH   9  14
ENDBRANCH   8   9
ENDBRANCH   2   8
ENDBRANCH   1   5
BRANCH   1  17
ATOM     17  N   UNL     1       2.292 -10.784  -1.455  0.00  0.00    +0.384 N 
ATOM     18  H   UNL     1       1.428 -10.567  -1.928  0.00  0.00    -0.085 HD
ATOM     19  H   UNL     1       3.058 -10.330  -1.928  0.00  0.00    -0.085 HD
BRANCH  17  20
ATOM     20  C   UNL     1       2.503 -12.238  -1.464  0.00  0.00    -0.057 C 
ATOM     21  C   UNL     1       1.281 -12.936  -0.862  0.00  0.00    -0.013 C 
ATOM     22  C   UNL     1       1.483 -14.452  -0.930  0.00  0.00    +0.014 C 
ATOM     23  C   UNL     1       1.710 -14.867  -2.386  0.00  0.00    +0.085 C 
ATOM     24  N   UNL     1       2.890 -14.172  -2.916  0.00  0.00    -0.296 NA
ATOM     25  C   UNL     1       2.700 -12.716  -2.904  0.00  0.00    +0.069 C 
BRANCH  24  26
ATOM     26  C   UNL     1       3.220 -14.650  -4.265  0.00  0.00    +0.180 C 
BRANCH  26  27
ATOM     27  C   UNL     1       3.652 -16.092  -4.197  0.00  0.00    +0.225 C 
ATOM     28  O   UNL     1       3.683 -16.665  -3.128  0.00  0.00    -0.275 OA
ATOM     29  N   UNL     1       4.005 -16.744  -5.322  0.00  0.00    -0.328 N 
ATOM     30  H   UNL     1       3.980 -16.285  -6.176  0.00  0.00    +0.145 HD
ATOM     31  H   UNL     1       4.283 -17.672  -5.278  0.00  0.00    +0.145 HD
ENDBRANCH  26  27
ENDBRANCH  24  26
ENDBRANCH  17  20
ENDBRANCH   1  17
TORSDOF 8
