REMARK  Name = ZINC07181020
REMARK  7 active torsions:
REMARK  status: ('A' for Active; 'I' for Inactive)
REMARK    1  A    between atoms: C_1  and  C_2
REMARK    2  A    between atoms: C_2  and  C_4
REMARK    3  A    between atoms: C_2  and  O_16
REMARK    4  A    between atoms: C_4  and  C_6
REMARK    5  A    between atoms: O_16  and  C_17
REMARK    6  A    between atoms: C_17  and  C_19
REMARK    7  A    between atoms: C_24  and  N_25
REMARK                            x       y       z     vdW  Elec       q    Type
REMARK                         _______ _______ _______ _____ _____    ______ ____
ROOT
ATOM      1  C   UNL     1      -0.004   1.469   0.051  0.00  0.00    +0.061 C 
ATOM      2  C   UNL     1      -0.004  -0.061   0.019  0.00  0.00    +0.244 C 
ENDROOT
BRANCH   2   3
ATOM      3  C   UNL     1       0.711  -0.589   1.237  0.00  0.00    +0.205 C 
ATOM      4  O   UNL     1       1.863  -0.962   1.150  0.00  0.00    -0.288 OA
BRANCH   3   5
ATOM      5  C   UNL     1       0.038  -0.650   2.483  0.00  0.00    +0.046 A 
ATOM      6  C   UNL     1      -1.262  -0.273   2.741  0.00  0.00    +0.095 A 
ATOM      7  N   UNL     1      -1.543  -0.478   4.041  0.00  0.00    -0.360 N 
ATOM      8  H   UNL     1      -2.398  -0.287   4.458  0.00  0.00    +0.165 HD
ATOM      9  C   UNL     1      -0.448  -0.998   4.701  0.00  0.00    +0.047 A 
ATOM     10  C   UNL     1       0.588  -1.136   3.764  0.00  0.00    +0.010 A 
ATOM     11  C   UNL     1       1.821  -1.647   4.155  0.00  0.00    +0.011 A 
ATOM     12  C   UNL     1       2.020  -2.022   5.466  0.00  0.00    +0.001 A 
ATOM     13  C   UNL     1       0.997  -1.889   6.394  0.00  0.00    +0.002 A 
ATOM     14  C   UNL     1      -0.227  -1.377   6.021  0.00  0.00    +0.026 A 
ENDBRANCH   3   5
ENDBRANCH   2   3
BRANCH   2  15
ATOM     15  O   UNL     1       0.666  -0.513  -1.159  0.00  0.00    -0.450 OA
BRANCH  15  16
ATOM     16  C   UNL     1      -0.090  -0.694  -2.260  0.00  0.00    +0.342 C 
ATOM     17  O   UNL     1      -1.284  -0.474  -2.221  0.00  0.00    -0.245 OA
BRANCH  16  18
ATOM     18  C   UNL     1       0.532  -1.158  -3.512  0.00  0.00    +0.081 A 
ATOM     19  C   UNL     1       1.921  -1.295  -3.599  0.00  0.00    +0.032 A 
ATOM     20  C   UNL     1       2.497  -1.730  -4.773  0.00  0.00    +0.019 A 
ATOM     21  C   UNL     1       1.705  -2.034  -5.871  0.00  0.00    +0.017 A 
ATOM     22  C   UNL     1       0.334  -1.904  -5.801  0.00  0.00    +0.024 A 
ATOM     23  C   UNL     1      -0.266  -1.472  -4.624  0.00  0.00    +0.039 A 
ATOM     24 BR   UNL     1       4.375  -1.914  -4.888  0.00  0.00    -0.050 Br
BRANCH  23  25
ATOM     25  N   UNL     1      -1.647  -1.347  -4.549  0.00  0.00    -0.357 N 
ATOM     26  H   UNL     1      -2.057  -0.966  -3.757  0.00  0.00    +0.142 HD
ATOM     27  H   UNL     1      -2.201  -1.639  -5.289  0.00  0.00    +0.142 HD
ENDBRANCH  23  25
ENDBRANCH  16  18
ENDBRANCH  15  16
ENDBRANCH   2  15
TORSDOF 6
