REMARK  Name = ZINC42506316
REMARK  13 active torsions:
REMARK  status: ('A' for Active; 'I' for Inactive)
REMARK    1  A    between atoms: C_1  and  C_2
REMARK    2  A    between atoms: C_2  and  C_4
REMARK    3  A    between atoms: C_2  and  N_14
REMARK    4  A    between atoms: C_15  and  C_17
REMARK    5  A    between atoms: C_17  and  C_19
REMARK    6  A    between atoms: C_17  and  N_20
REMARK    7  A    between atoms: N_20  and  C_21
REMARK    8  A    between atoms: N_20  and  C_22
REMARK    9  A    between atoms: C_22  and  C_23
REMARK   10  A    between atoms: N_25  and  C_26
REMARK   11  A    between atoms: C_26  and  C_27
REMARK   12  A    between atoms: C_26  and  C_28
REMARK   13  A    between atoms: C_26  and  C_29
REMARK                            x       y       z     vdW  Elec       q    Type
REMARK                         _______ _______ _______ _____ _____    ______ ____
ROOT
ATOM      1  N   UNL     1       0.224  -0.397   1.174  0.00  0.00    -0.310 N 
ATOM      2  C   UNL     1      -0.275  -0.905   2.318  0.00  0.00    +0.200 C 
ATOM      3  O   UNL     1      -1.460  -1.143   2.411  0.00  0.00    -0.278 OA
ATOM      4  H   UNL     1       1.172  -0.206   1.100  0.00  0.00    +0.149 HD
ENDROOT
BRANCH   1   6
ATOM      5  C   UNL     1      -1.304   1.249   0.205  0.00  0.00    +0.033 C 
ATOM      6  C   UNL     1      -0.667  -0.132   0.041  0.00  0.00    +0.100 C 
BRANCH   6   7
ATOM      7  C   UNL     1       0.125  -0.172  -1.241  0.00  0.00    -0.027 A 
ATOM      8  C   UNL     1       1.394   0.374  -1.289  0.00  0.00    +0.006 A 
ATOM      9  C   UNL     1       2.111   0.337  -2.466  0.00  0.00    +0.004 A 
ATOM     10  C   UNL     1       1.570  -0.246  -3.605  0.00  0.00    -0.044 A 
ATOM     11  C   UNL     1       0.308  -0.794  -3.556  0.00  0.00    -0.044 A 
ATOM     12  C   UNL     1      -0.412  -0.757  -2.368  0.00  0.00    +0.009 A 
ATOM     13  C   UNL     1      -0.336  -1.456  -4.746  0.00  0.00    +0.035 C 
ATOM     14  C   UNL     1       0.372  -1.047  -6.036  0.00  0.00    +0.005 C 
ATOM     15  C   UNL     1       1.877  -1.275  -5.856  0.00  0.00    +0.005 C 
ATOM     16  C   UNL     1       2.405  -0.245  -4.859  0.00  0.00    +0.035 C 
ENDBRANCH   6   7
ENDBRANCH   1   6
BRANCH   2  17
ATOM     17  C   UNL     1       0.642  -1.177   3.483  0.00  0.00    +0.016 C 
ATOM     18  C   UNL     1       1.237  -2.579   3.347  0.00  0.00    -0.004 C 
BRANCH  17  19
ATOM     19  N   UNL     1      -0.120  -1.088   4.737  0.00  0.00    +0.391 N 
ATOM     20  C   UNL     1       0.763  -1.396   5.869  0.00  0.00    -0.094 C 
ATOM     21  H   UNL     1      -0.882  -1.749   4.715  0.00  0.00    -0.080 HD
BRANCH  19  22
ATOM     22  C   UNL     1      -0.655   0.272   4.889  0.00  0.00    +0.019 C 
BRANCH  22  23
ATOM     23  C   UNL     1      -1.578   0.318   6.079  0.00  0.00    +0.197 C 
ATOM     24  O   UNL     1      -1.772  -0.683   6.736  0.00  0.00    -0.278 OA
ATOM     25  N   UNL     1      -2.189   1.472   6.413  0.00  0.00    -0.312 N 
ATOM     26  H   UNL     1      -2.035   2.272   5.888  0.00  0.00    +0.149 HD
BRANCH  25  27
ATOM     27  C   UNL     1      -3.087   1.517   7.571  0.00  0.00    +0.026 C 
ATOM     28  C   UNL     1      -2.313   1.129   8.832  0.00  0.00    +0.031 C 
ATOM     29  C   UNL     1      -3.644   2.933   7.729  0.00  0.00    +0.031 C 
ATOM     30  C   UNL     1      -4.241   0.535   7.359  0.00  0.00    +0.031 C 
ENDBRANCH  25  27
ENDBRANCH  22  23
ENDBRANCH  19  22
ENDBRANCH  17  19
ENDBRANCH   2  17
TORSDOF 7
