REMARK  Name = ZINC22473294
REMARK  8 active torsions:
REMARK  status: ('A' for Active; 'I' for Inactive)
REMARK    1  A    between atoms: C_4  and  C_7
REMARK    2  A    between atoms: C_7  and  N_8
REMARK    3  A    between atoms: N_8  and  C_9
REMARK    4  A    between atoms: C_9  and  C_10
REMARK    5  A    between atoms: C_10  and  C_11
REMARK    6  A    between atoms: C_11  and  N_12
REMARK    7  A    between atoms: C_15  and  O_16
REMARK    8  A    between atoms: C_24  and  C_26
REMARK                            x       y       z     vdW  Elec       q    Type
REMARK                         _______ _______ _______ _____ _____    ______ ____
ROOT
ATOM      1  N   UNL     1      -3.719   3.121   0.156  0.00  0.00    -0.293 N 
ATOM      2  C   UNL     1      -2.577   3.828   0.047  0.00  0.00    +0.247 C 
ATOM      3  O   UNL     1      -1.513   3.250  -0.067  0.00  0.00    -0.270 OA
ENDROOT
BRANCH   2   4
ATOM      4  C   UNL     1      -2.617   5.302   0.066  0.00  0.00    +0.045 A 
ATOM      5  C   UNL     1      -3.219   5.973   1.121  0.00  0.00    +0.014 A 
ATOM      6  C   UNL     1      -3.265   7.361   1.142  0.00  0.00    +0.001 A 
ATOM      7  C   UNL     1      -2.714   8.101   0.139  0.00  0.00    +0.008 A 
ATOM      8  C   UNL     1      -2.089   7.463  -0.947  0.00  0.00    -0.017 A 
ATOM      9  C   UNL     1      -2.037   6.048  -0.989  0.00  0.00    -0.006 A 
ATOM     10  C   UNL     1      -1.413   5.414  -2.071  0.00  0.00    +0.009 A 
ATOM     11  C   UNL     1      -0.865   6.163  -3.069  0.00  0.00    +0.001 A 
ATOM     12  C   UNL     1      -0.915   7.555  -3.030  0.00  0.00    +0.001 A 
ATOM     13  C   UNL     1      -1.513   8.204  -1.993  0.00  0.00    +0.008 A 
ENDBRANCH   2   4
BRANCH   1  14
ATOM     14  C   UNL     1      -3.670   1.660   0.259  0.00  0.00    +0.143 C 
BRANCH  14  18
ATOM     15  C   UNL     1      -3.768   0.518   4.374  0.00  0.00    +0.000 A 
ATOM     16  C   UNL     1      -4.948   0.760   3.695  0.00  0.00    +0.000 A 
ATOM     17  C   UNL     1      -4.916   1.130   2.363  0.00  0.00    +0.005 A 
ATOM     18  C   UNL     1      -3.705   1.258   1.710  0.00  0.00    -0.030 A 
ATOM     19  C   UNL     1      -2.525   1.010   2.387  0.00  0.00    +0.005 A 
ATOM     20  C   UNL     1      -2.557   0.646   3.720  0.00  0.00    +0.000 A 
ENDBRANCH  14  18
ENDBRANCH   1  14
BRANCH   1  21
ATOM     21  C   UNL     1      -5.010   3.813   0.171  0.00  0.00    +0.110 C 
BRANCH  21  22
ATOM     22  C   UNL     1      -5.532   3.950  -1.261  0.00  0.00    +0.040 C 
BRANCH  22  23
ATOM     23  C   UNL     1      -6.881   4.673  -1.245  0.00  0.00    +0.114 C 
BRANCH  23  24
ATOM     24  N   UNL     1      -7.380   4.804  -2.616  0.00  0.00    -0.384 N 
ATOM     25  C   UNL     1      -8.586   5.426  -2.853  0.00  0.00    +0.053 A 
ATOM     26  C   UNL     1      -9.336   5.929  -1.821  0.00  0.00    +0.113 A 
ATOM     27  C   UNL     1     -10.559   6.556  -2.094  0.00  0.00    +0.286 A 
ATOM     28  O   UNL     1     -11.028   6.683  -3.346  0.00  0.00    -0.425 OA
ATOM     29  C   UNL     1     -10.345   6.211  -4.411  0.00  0.00    +0.141 A 
ATOM     30  C   UNL     1      -9.107   5.576  -4.222  0.00  0.00    +0.041 A 
ATOM     31  C   UNL     1      -8.395   5.093  -5.321  0.00  0.00    +0.013 A 
ATOM     32  C   UNL     1      -8.910   5.250  -6.589  0.00  0.00    +0.001 A 
ATOM     33  C   UNL     1     -10.129   5.883  -6.776  0.00  0.00    +0.004 A 
ATOM     34  C   UNL     1     -10.849   6.354  -5.697  0.00  0.00    +0.047 A 
ATOM     35  H   UNL     1      -6.792   4.407  -3.456  0.00  0.00    +0.160 HD
BRANCH  27  36
ATOM     36  O   UNL     1     -11.216   7.000  -1.168  0.00  0.00    -0.480 OA
ATOM     37  H   UNL     1     -12.179   7.495  -1.364  0.00  0.00    +0.295 HD
ENDBRANCH  27  36
ENDBRANCH  23  24
ENDBRANCH  22  23
ENDBRANCH  21  22
ENDBRANCH   1  21
TORSDOF 8
