REMARK  Name = ZINC10028258
REMARK  15 active torsions:
REMARK  status: ('A' for Active; 'I' for Inactive)
REMARK    1  A    between atoms: C_1  and  C_2
REMARK    2  A    between atoms: C_2  and  O_3
REMARK    3  A    between atoms: O_3  and  C_4
REMARK    4  A    between atoms: N_13  and  C_14
REMARK    5  A    between atoms: C_14  and  C_15
REMARK    6  A    between atoms: C_15  and  C_16
REMARK    7  A    between atoms: C_16  and  N_65
REMARK    8  A    between atoms: C_17  and  N_65
REMARK    9  A    between atoms: C_18  and  N_65
REMARK   10  A    between atoms: C_19  and  C_21
REMARK   11  A    between atoms: C_21  and  C_22
REMARK   12  A    between atoms: C_22  and  S_23
REMARK   13  A    between atoms: S_23  and  C_26
REMARK   14  A    between atoms: C_29  and  O_32
REMARK   15  A    between atoms: O_32  and  C_33
REMARK                            x       y       z     vdW  Elec       q    Type
REMARK                         _______ _______ _______ _____ _____    ______ ____
ROOT
ATOM      1  C   UNL     1      -0.148   1.182   2.380  0.00  0.00    +0.122 A 
ATOM      2  C   UNL     1       0.998   0.394   2.430  0.00  0.00    +0.048 A 
ATOM      3  C   UNL     1       1.553   0.014   3.623  0.00  0.00    +0.032 A 
ATOM      4  C   UNL     1       0.975   0.413   4.850  0.00  0.00    +0.081 A 
ATOM      5  C   UNL     1      -0.188   1.212   4.764  0.00  0.00    +0.044 A 
ATOM      6  C   UNL     1      -0.738   1.595   3.566  0.00  0.00    +0.063 A 
ATOM      7  S   UNL     1      -0.585   1.487   6.474  0.00  0.00    -0.052 S 
ATOM      8  C   UNL     1       0.770   0.556   7.173  0.00  0.00    +0.168 A 
ATOM      9  N   UNL     1       1.395   0.125   6.103  0.00  0.00    -0.224 NA
ATOM     10  N   UNL     1       1.083   0.343   8.506  0.00  0.00    -0.250 N 
ATOM     11  C   UNL     1       0.310   0.876   9.473  0.00  0.00    +0.223 C 
ATOM     12  O   UNL     1      -0.659   1.542   9.176  0.00  0.00    -0.275 OA
ENDROOT
BRANCH   1  13
ATOM     13  O   UNL     1      -0.682   1.547   1.184  0.00  0.00    -0.492 OA
BRANCH  13  15
ATOM     14  C   UNL     1      -0.753   1.593  -1.232  0.00  0.00    +0.048 C 
ATOM     15  C   UNL     1      -0.013   1.086   0.008  0.00  0.00    +0.225 C 
ENDBRANCH  13  15
ENDBRANCH   1  13
BRANCH  10  16
ATOM     16  C   UNL     1       2.253  -0.461   8.865  0.00  0.00    +0.114 C 
BRANCH  16  17
ATOM     17  C   UNL     1       3.478   0.447   8.988  0.00  0.00    +0.001 C 
BRANCH  17  18
ATOM     18  C   UNL     1       4.701  -0.393   9.363  0.00  0.00    -0.078 C 
BRANCH  18  21
ATOM     19  C   UNL     1       5.732   1.408  10.610  0.00  0.00    -0.097 C 
ATOM     20  C   UNL     1       7.109  -0.311   9.605  0.00  0.00    -0.097 C 
ATOM     21  N   UNL     1       5.879   0.495   9.457  0.00  0.00    +0.376 N 
ATOM     22  H   UNL     1       5.947   1.052   8.597  0.00  0.00    -0.083 HD
ENDBRANCH  18  21
ENDBRANCH  17  18
ENDBRANCH  16  17
ENDBRANCH  10  16
BRANCH  11  23
ATOM     23  C   UNL     1       0.649   0.645  10.923  0.00  0.00    +0.119 C 
BRANCH  23  24
ATOM     24  C   UNL     1      -0.379   1.354  11.807  0.00  0.00    +0.181 C 
BRANCH  24  25
ATOM     25  S   UNL     1       0.030   1.075  13.552  0.00  0.00    -0.003 S 
ATOM     26  O   UNL     1      -0.159  -0.293  13.887  0.00  0.00    -0.169 OA
ATOM     27  O   UNL     1       1.240   1.742  13.883  0.00  0.00    -0.169 OA
BRANCH  25  28
ATOM     28  C   UNL     1      -1.218   1.935  14.452  0.00  0.00    +0.088 A 
ATOM     29  C   UNL     1      -1.025   3.257  14.807  0.00  0.00    +0.030 A 
ATOM     30  C   UNL     1      -2.004   3.935  15.508  0.00  0.00    +0.047 A 
ATOM     31  C   UNL     1      -3.176   3.284  15.865  0.00  0.00    +0.120 A 
ATOM     32  C   UNL     1      -3.365   1.956  15.511  0.00  0.00    +0.047 A 
ATOM     33  C   UNL     1      -2.385   1.284  14.806  0.00  0.00    +0.030 A 
BRANCH  31  34
ATOM     34  O   UNL     1      -4.139   3.947  16.558  0.00  0.00    -0.495 OA
ATOM     35  C   UNL     1      -3.877   5.313  16.888  0.00  0.00    +0.277 C 
ENDBRANCH  31  34
ENDBRANCH  25  28
ENDBRANCH  24  25
ENDBRANCH  23  24
ENDBRANCH  11  23
TORSDOF 11
