REMARK  Name = ZINC41087508
REMARK  9 active torsions:
REMARK  status: ('A' for Active; 'I' for Inactive)
REMARK    1  A    between atoms: C_1  and  C_2
REMARK    2  A    between atoms: C_6  and  C_22
REMARK    3  A    between atoms: C_8  and  O_11
REMARK    4  A    between atoms: O_11  and  C_12
REMARK    5  A    between atoms: C_12  and  C_14
REMARK    6  A    between atoms: C_16  and  N_21
REMARK    7  A    between atoms: C_18  and  N_20
REMARK    8  A    between atoms: C_22  and  C_23
REMARK    9  A    between atoms: C_22  and  C_24
REMARK                            x       y       z     vdW  Elec       q    Type
REMARK                         _______ _______ _______ _____ _____    ______ ____
ROOT
ATOM      1  C   UNL     1       1.308   2.038   2.997  0.00  0.00    +0.340 C 
ATOM      2  O   UNL     1       2.245   1.387   3.415  0.00  0.00    -0.245 OA
ENDROOT
BRANCH   1   3
ATOM      3  C   UNL     1       1.359   3.514   3.037  0.00  0.00    +0.062 A 
ATOM      4  C   UNL     1       0.282   4.264   2.562  0.00  0.00    +0.037 A 
ATOM      5  C   UNL     1       0.332   5.649   2.602  0.00  0.00    +0.027 A 
ATOM      6  C   UNL     1       1.453   6.291   3.113  0.00  0.00    +0.045 A 
ATOM      7  C   UNL     1       2.527   5.548   3.586  0.00  0.00    +0.027 A 
ATOM      8  C   UNL     1       2.481   4.162   3.555  0.00  0.00    +0.037 A 
BRANCH   7   9
ATOM      9  N   UNL     1       3.653   6.197   4.098  0.00  0.00    -0.358 N 
ATOM     10  H   UNL     1       3.684   7.166   4.123  0.00  0.00    +0.142 HD
ATOM     11  H   UNL     1       4.404   5.679   4.428  0.00  0.00    +0.142 HD
ENDBRANCH   7   9
BRANCH   5  12
ATOM     12  N   UNL     1      -0.745   6.401   2.127  0.00  0.00    -0.358 N 
ATOM     13  H   UNL     1      -1.528   5.954   1.770  0.00  0.00    +0.142 HD
ATOM     14  H   UNL     1      -0.711   7.370   2.155  0.00  0.00    +0.142 HD
ENDBRANCH   5  12
ENDBRANCH   1   3
BRANCH   1  15
ATOM     15  O   UNL     1       0.224   1.414   2.497  0.00  0.00    -0.458 OA
BRANCH  15  21
ATOM     16  C   UNL     1      -0.019   1.526   0.010  0.00  0.00    +0.007 C 
ATOM     17  C   UNL     1       0.002  -0.004   0.002  0.00  0.00    -0.011 C 
ATOM     18  C   UNL     1      -1.427  -0.534   0.139  0.00  0.00    +0.004 C 
ATOM     19  C   UNL     1      -2.031  -0.040   1.454  0.00  0.00    +0.007 C 
ATOM     20  C   UNL     1      -1.185  -0.545   2.625  0.00  0.00    +0.032 C 
ATOM     21  C   UNL     1       0.244  -0.015   2.489  0.00  0.00    +0.180 C 
ATOM     22  C   UNL     1       0.848  -0.509   1.173  0.00  0.00    +0.048 C 
BRANCH  20  23
ATOM     23  C   UNL     1      -1.789  -0.050   3.941  0.00  0.00    -0.011 C 
ATOM     24  C   UNL     1      -3.218  -0.580   4.078  0.00  0.00    +0.007 C 
ATOM     25  C   UNL     1      -0.944  -0.555   5.112  0.00  0.00    +0.007 C 
ENDBRANCH  20  23
ENDBRANCH  15  21
ENDBRANCH   1  15
TORSDOF 6
