REMARK  Name = ZINC03275124
REMARK  6 active torsions:
REMARK  status: ('A' for Active; 'I' for Inactive)
REMARK    1  A    between atoms: C_4  and  C_7
REMARK    2  A    between atoms: C_10  and  N_18
REMARK    3  A    between atoms: N_18  and  N_19
REMARK    4  A    between atoms: C_20  and  C_22
REMARK    5  A    between atoms: C_22  and  N_23
REMARK    6  A    between atoms: C_26  and  C_28
REMARK                            x       y       z     vdW  Elec       q    Type
REMARK                         _______ _______ _______ _____ _____    ______ ____
ROOT
ATOM      1  C   UNL     1       3.711  -0.707  -0.038  0.00  0.00    +0.229 C 
ATOM      2  C   UNL     1       4.045  -1.161   1.359  0.00  0.00    +0.047 C 
ATOM      3  C   UNL     1       3.615  -2.352   1.795  0.00  0.00    +0.055 C 
ATOM      4  C   UNL     1       2.826  -3.189   0.861  0.00  0.00    +0.039 A 
ATOM      5  C   UNL     1       2.064  -4.261   1.312  0.00  0.00    +0.013 A 
ATOM      6  C   UNL     1       1.344  -5.014   0.405  0.00  0.00    +0.001 A 
ATOM      7  C   UNL     1       1.380  -4.706  -0.944  0.00  0.00    +0.004 A 
ATOM      8  C   UNL     1       2.136  -3.641  -1.401  0.00  0.00    +0.046 A 
ATOM      9  C   UNL     1       2.861  -2.878  -0.505  0.00  0.00    +0.131 A 
ATOM     10  O   UNL     1       3.613  -1.827  -0.918  0.00  0.00    -0.479 OA
ENDROOT
BRANCH   1  14
ATOM     11  C   UNL     1      -0.017   1.378   0.010  0.00  0.00    +0.000 A 
ATOM     12  C   UNL     1       1.171   2.086   0.002  0.00  0.00    +0.000 A 
ATOM     13  C   UNL     1       2.377   1.411  -0.013  0.00  0.00    +0.007 A 
ATOM     14  C   UNL     1       2.396   0.029  -0.020  0.00  0.00    -0.003 A 
ATOM     15  C   UNL     1       1.208  -0.679  -0.012  0.00  0.00    +0.007 A 
ATOM     16  C   UNL     1       0.002  -0.004   0.002  0.00  0.00    +0.000 A 
ENDBRANCH   1  14
BRANCH   3  17
ATOM     17  N   UNL     1       3.900  -2.791   3.088  0.00  0.00    -0.264 N 
ATOM     18  H   UNL     1       3.581  -3.656   3.388  0.00  0.00    +0.170 HD
BRANCH  17  19
ATOM     19  N   UNL     1       4.648  -1.982   3.954  0.00  0.00    -0.235 N 
ATOM     20  C   UNL     1       4.924  -2.406   5.203  0.00  0.00    +0.250 C 
ATOM     21  O   UNL     1       4.524  -3.488   5.578  0.00  0.00    -0.272 OA
ATOM     22  H   UNL     1       4.967  -1.116   3.654  0.00  0.00    +0.173 HD
BRANCH  20  23
ATOM     23  C   UNL     1       5.728  -1.536   6.134  0.00  0.00    +0.240 C 
BRANCH  23  24
ATOM     24  N   UNL     1       5.890  -2.216   7.421  0.00  0.00    -0.262 N 
ATOM     25  C   UNL     1       7.060  -2.474   8.041  0.00  0.00    +0.109 A 
ATOM     26  C   UNL     1       6.780  -3.114   9.200  0.00  0.00    +0.053 A 
ATOM     27  C   UNL     1       5.391  -3.251   9.291  0.00  0.00    +0.165 A 
ATOM     28  N   UNL     1       4.856  -2.708   8.228  0.00  0.00    -0.167 NA
BRANCH  27  29
ATOM     29  C   UNL     1       4.640  -3.906  10.422  0.00  0.00    +0.436 C 
ATOM     30  F   UNL     1       4.334  -2.948  11.395  0.00  0.00    -0.164 F 
ATOM     31  F   UNL     1       3.457  -4.468   9.932  0.00  0.00    -0.164 F 
ATOM     32  F   UNL     1       5.433  -4.909  10.990  0.00  0.00    -0.164 F 
ENDBRANCH  27  29
ENDBRANCH  23  24
ENDBRANCH  20  23
ENDBRANCH  17  19
ENDBRANCH   3  17
TORSDOF 6
