REMARK  Name = ZINC05866177
REMARK  6 active torsions:
REMARK  status: ('A' for Active; 'I' for Inactive)
REMARK    1  A    between atoms: C_1  and  C_2
REMARK    2  A    between atoms: C_3  and  C_18
REMARK    3  A    between atoms: C_4  and  C_10
REMARK    4  A    between atoms: C_15  and  O_16
REMARK    5  A    between atoms: O_16  and  C_17
REMARK    6  A    between atoms: C_18  and  C_20
REMARK                            x       y       z     vdW  Elec       q    Type
REMARK                         _______ _______ _______ _____ _____    ______ ____
ROOT
ATOM      1  C   UNL     1       0.125   1.233   0.044  0.00  0.00    +0.061 C 
ATOM      2  C   UNL     1       0.059  -0.269   0.153  0.00  0.00    +0.018 C 
ATOM      3  C   UNL     1      -1.132  -0.894   0.022  0.00  0.00    +0.041 C 
ATOM      4  C   UNL     1      -1.152  -2.405   0.138  0.00  0.00    +0.144 C 
ATOM      5  N   UNL     1       0.137  -3.072   0.386  0.00  0.00    -0.288 N 
ATOM      6  C   UNL     1       1.244  -2.309   0.494  0.00  0.00    +0.304 C 
ATOM      7  O   UNL     1       2.312  -2.851   0.699  0.00  0.00    -0.252 OA
ATOM      8  N   UNL     1       1.205  -0.976   0.378  0.00  0.00    -0.273 N 
ATOM      9  H   UNL     1       0.189  -4.037   0.471  0.00  0.00    +0.151 HD
ATOM     10  H   UNL     1       2.037  -0.485   0.462  0.00  0.00    +0.156 HD
ENDROOT
BRANCH   4  11
ATOM     11  C   UNL     1      -2.088  -2.772   1.260  0.00  0.00    +0.019 A 
ATOM     12  C   UNL     1      -1.597  -2.954   2.538  0.00  0.00    +0.009 A 
ATOM     13  C   UNL     1      -2.456  -3.292   3.568  0.00  0.00    +0.001 A 
ATOM     14  C   UNL     1      -3.808  -3.448   3.322  0.00  0.00    +0.004 A 
ATOM     15  C   UNL     1      -4.303  -3.267   2.045  0.00  0.00    +0.046 A 
ATOM     16  C   UNL     1      -3.445  -2.923   1.011  0.00  0.00    +0.125 A 
BRANCH  16  17
ATOM     17  O   UNL     1      -3.931  -2.739  -0.244  0.00  0.00    -0.495 OA
ATOM     18  C   UNL     1      -5.349  -2.802  -0.407  0.00  0.00    +0.277 C 
ENDBRANCH  16  17
ENDBRANCH   4  11
BRANCH   3  19
ATOM     19  C   UNL     1      -2.320  -0.163  -0.216  0.00  0.00    +0.193 C 
ATOM     20  O   UNL     1      -2.772   0.564   0.650  0.00  0.00    -0.287 OA
BRANCH  19  21
ATOM     21  C   UNL     1      -3.014  -0.281  -1.518  0.00  0.00    +0.022 A 
ATOM     22  C   UNL     1      -2.517  -1.139  -2.501  0.00  0.00    +0.013 A 
ATOM     23  C   UNL     1      -3.167  -1.245  -3.712  0.00  0.00    +0.021 A 
ATOM     24  C   UNL     1      -4.312  -0.503  -3.954  0.00  0.00    +0.041 A 
ATOM     25  C   UNL     1      -4.809   0.350  -2.982  0.00  0.00    +0.021 A 
ATOM     26  C   UNL     1      -4.170   0.460  -1.765  0.00  0.00    +0.013 A 
ATOM     27 CL   UNL     1      -5.125  -0.641  -5.481  0.00  0.00    -0.084 Cl
ENDBRANCH  19  21
ENDBRANCH   3  19
TORSDOF 4
