REMARK  Name = ZINC08738700
REMARK  6 active torsions:
REMARK  status: ('A' for Active; 'I' for Inactive)
REMARK    1  A    between atoms: C_1  and  C_2
REMARK    2  A    between atoms: C_2  and  O_3
REMARK    3  A    between atoms: O_3  and  C_4
REMARK    4  A    between atoms: C_4  and  C_6
REMARK    5  A    between atoms: C_7  and  C_26
REMARK    6  A    between atoms: C_18  and  C_20
REMARK                            x       y       z     vdW  Elec       q    Type
REMARK                         _______ _______ _______ _____ _____    ______ ____
ROOT
ATOM      1  C   UNL     1       1.172  -2.371   2.644  0.00  0.00    +0.087 C 
ATOM      2  C   UNL     1       1.513  -3.720   2.648  0.00  0.00    +0.086 C 
ATOM      3  N   UNL     1       2.430  -4.197   3.490  0.00  0.00    -0.217 NA
ATOM      4  C   UNL     1       3.091  -3.475   4.377  0.00  0.00    +0.193 C 
ATOM      5  N   UNL     1       4.045  -3.853   5.284  0.00  0.00    -0.285 N 
ATOM      6  C   UNL     1       4.443  -2.729   6.000  0.00  0.00    +0.055 A 
ATOM      7  C   UNL     1       5.362  -2.534   7.021  0.00  0.00    +0.025 A 
ATOM      8  C   UNL     1       5.547  -1.272   7.549  0.00  0.00    +0.002 A 
ATOM      9  C   UNL     1       4.819  -0.199   7.064  0.00  0.00    +0.002 A 
ATOM     10  C   UNL     1       3.902  -0.382   6.048  0.00  0.00    +0.025 A 
ATOM     11  C   UNL     1       3.709  -1.647   5.510  0.00  0.00    +0.058 A 
ATOM     12  N   UNL     1       2.881  -2.135   4.508  0.00  0.00    -0.259 N 
ATOM     13  C   UNL     1       1.896  -1.478   3.635  0.00  0.00    +0.151 C 
ATOM     14  H   UNL     1       4.385  -4.753   5.407  0.00  0.00    +0.155 HD
ENDROOT
BRANCH  13  15
ATOM     15  C   UNL     1       2.602  -0.395   2.859  0.00  0.00    -0.019 A 
ATOM     16  C   UNL     1       3.812  -0.647   2.230  0.00  0.00    +0.025 A 
ATOM     17  C   UNL     1       4.430   0.370   1.528  0.00  0.00    +0.111 A 
ATOM     18  N   UNL     1       3.883   1.568   1.453  0.00  0.00    -0.263 NA
ATOM     19  C   UNL     1       2.734   1.843   2.039  0.00  0.00    +0.111 A 
ATOM     20  C   UNL     1       2.055   0.874   2.753  0.00  0.00    +0.025 A 
ENDBRANCH  13  15
BRANCH   2  21
ATOM     21  C   UNL     1       0.845  -4.642   1.702  0.00  0.00    +0.001 A 
ATOM     22  C   UNL     1       1.003  -4.468   0.326  0.00  0.00    +0.010 A 
ATOM     23  C   UNL     1       0.378  -5.331  -0.551  0.00  0.00    +0.001 A 
ATOM     24  C   UNL     1      -0.404  -6.366  -0.069  0.00  0.00    +0.000 A 
ATOM     25  C   UNL     1      -0.564  -6.543   1.294  0.00  0.00    +0.001 A 
ATOM     26  C   UNL     1       0.060  -5.691   2.181  0.00  0.00    +0.010 A 
ENDBRANCH   2  21
BRANCH   1  27
ATOM     27  C   UNL     1       0.211  -1.861   1.764  0.00  0.00    +0.339 C 
ATOM     28  O   UNL     1      -0.429  -2.618   1.056  0.00  0.00    -0.245 OA
BRANCH  27  29
ATOM     29  O   UNL     1      -0.006  -0.528   1.699  0.00  0.00    -0.462 OA
BRANCH  29  31
ATOM     30  C   UNL     1      -1.106   1.447   0.846  0.00  0.00    +0.048 C 
ATOM     31  C   UNL     1      -1.002  -0.078   0.779  0.00  0.00    +0.229 C 
ENDBRANCH  29  31
ENDBRANCH  27  29
ENDBRANCH   1  27
TORSDOF 5
