REMARK  Name = ZINC15033868
REMARK  9 active torsions:
REMARK  status: ('A' for Active; 'I' for Inactive)
REMARK    1  A    between atoms: C_1  and  C_2
REMARK    2  A    between atoms: C_4  and  C_33
REMARK    3  A    between atoms: C_5  and  N_9
REMARK    4  A    between atoms: C_6  and  C_8
REMARK    5  A    between atoms: C_10  and  C_12
REMARK    6  A    between atoms: C_12  and  N_13
REMARK    7  A    between atoms: C_14  and  C_16
REMARK    8  A    between atoms: C_16  and  N_17
REMARK    9  A    between atoms: C_25  and  C_27
REMARK                            x       y       z     vdW  Elec       q    Type
REMARK                         _______ _______ _______ _____ _____    ______ ____
ROOT
ATOM      1  N   UNL     1       0.858  -6.983   2.265  0.00  0.00    -0.306 N 
ATOM      2  C   UNL     1       0.984  -8.311   2.462  0.00  0.00    +0.228 C 
ATOM      3  O   UNL     1       0.718  -9.085   1.567  0.00  0.00    -0.274 OA
ATOM      4  H   UNL     1       1.071  -6.364   2.981  0.00  0.00    +0.149 HD
ENDROOT
BRANCH   1   5
ATOM      5  C   UNL     1       0.399  -6.476   0.969  0.00  0.00    +0.200 C 
BRANCH   5   7
ATOM      6  N   UNL     1      -0.052  -4.280  -0.077  0.00  0.00    -0.284 N 
ATOM      7  C   UNL     1       0.345  -4.970   1.011  0.00  0.00    +0.234 C 
ATOM      8  O   UNL     1       0.659  -4.380   2.022  0.00  0.00    -0.274 OA
ATOM      9  H   UNL     1      -0.370  -4.753  -0.862  0.00  0.00    +0.155 HD
BRANCH   6  14
ATOM     10  C   UNL     1       0.136   1.390  -0.065  0.00  0.00    +0.044 C 
ATOM     11  C   UNL     1       0.086  -0.116  -0.068  0.00  0.00    -0.050 A 
ATOM     12  C   UNL     1       0.759  -0.827  -1.045  0.00  0.00    +0.008 A 
ATOM     13  C   UNL     1       0.715  -2.207  -1.051  0.00  0.00    -0.029 A 
ATOM     14  C   UNL     1      -0.005  -2.882  -0.074  0.00  0.00    +0.039 A 
ATOM     15  C   UNL     1      -0.679  -2.165   0.906  0.00  0.00    -0.029 A 
ATOM     16  C   UNL     1      -0.628  -0.785   0.909  0.00  0.00    +0.008 A 
ATOM     17  C   UNL     1      -1.463  -2.893   1.968  0.00  0.00    +0.045 C 
ATOM     18  C   UNL     1       1.448  -2.981  -2.117  0.00  0.00    +0.045 C 
ENDBRANCH   6  14
ENDBRANCH   5   7
ENDBRANCH   1   5
BRANCH   2  19
ATOM     19  C   UNL     1       1.456  -8.833   3.794  0.00  0.00    +0.181 C 
BRANCH  19  20
ATOM     20  N   UNL     1       1.509 -10.301   3.754  0.00  0.00    -0.283 NA
ATOM     21  C   UNL     1       2.515 -10.765   2.788  0.00  0.00    +0.091 C 
ATOM     22  C   UNL     1       2.255 -12.249   2.478  0.00  0.00    +0.058 C 
ATOM     23  C   UNL     1       2.040 -12.955   3.776  0.00  0.00    -0.004 A 
ATOM     24  C   UNL     1       1.803 -12.376   4.987  0.00  0.00    -0.016 A 
ATOM     25  C   UNL     1       1.635 -13.240   6.067  0.00  0.00    +0.013 A 
ATOM     26  C   UNL     1       1.708 -14.579   5.881  0.00  0.00    +0.046 A 
ATOM     27  S   UNL     1       2.026 -14.690   4.126  0.00  0.00    -0.101 S 
ATOM     28  C   UNL     1       1.734 -10.856   5.095  0.00  0.00    +0.118 C 
BRANCH  28  29
ATOM     29  C   UNL     1       0.596 -10.464   6.002  0.00  0.00    -0.026 A 
ATOM     30  C   UNL     1      -0.702 -10.475   5.527  0.00  0.00    +0.005 A 
ATOM     31  C   UNL     1      -1.746 -10.116   6.359  0.00  0.00    +0.000 A 
ATOM     32  C   UNL     1      -1.492  -9.746   7.666  0.00  0.00    +0.000 A 
ATOM     33  C   UNL     1      -0.194  -9.736   8.142  0.00  0.00    +0.000 A 
ATOM     34  C   UNL     1       0.850 -10.099   7.311  0.00  0.00    +0.005 A 
ENDBRANCH  28  29
ENDBRANCH  19  20
ENDBRANCH   2  19
TORSDOF 6
