REMARK  Name = ZINC20837504
REMARK  11 active torsions:
REMARK  status: ('A' for Active; 'I' for Inactive)
REMARK    1  A    between atoms: C_1  and  C_2
REMARK    2  A    between atoms: C_2  and  C_29
REMARK    3  A    between atoms: C_4  and  N_10
REMARK    4  A    between atoms: C_6  and  C_8
REMARK    5  A    between atoms: C_6  and  C_9
REMARK    6  A    between atoms: C_11  and  C_13
REMARK    7  A    between atoms: C_13  and  S_14
REMARK    8  A    between atoms: S_14  and  C_15
REMARK    9  A    between atoms: N_20  and  N_21
REMARK   10  A    between atoms: C_22  and  C_23
REMARK   11  A    between atoms: N_26  and  C_28
REMARK                            x       y       z     vdW  Elec       q    Type
REMARK                         _______ _______ _______ _____ _____    ______ ____
ROOT
ATOM      1  C   UNL     1       9.677  -5.003  -0.118  0.00  0.00    +0.173 C 
ENDROOT
BRANCH   1   3
ATOM      2  N   UNL     1      12.091  -5.544  -0.144  0.00  0.00    -0.312 N 
ATOM      3  C   UNL     1      10.818  -5.987  -0.135  0.00  0.00    +0.224 C 
ATOM      4  O   UNL     1      10.591  -7.179  -0.140  0.00  0.00    -0.275 OA
ATOM      5  H   UNL     1      12.297  -4.463  -0.140  0.00  0.00    +0.149 HD
BRANCH   2   9
ATOM      6  C   UNL     1      15.409  -7.848  -1.896  0.00  0.00    -0.010 C 
ATOM      7  C   UNL     1      15.612  -6.807  -0.789  0.00  0.00    -0.072 C 
ATOM      8  C   UNL     1      14.432  -5.837  -0.778  0.00  0.00    +0.009 C 
ATOM      9  C   UNL     1      13.203  -6.503  -0.161  0.00  0.00    +0.070 C 
ATOM     10  C   UNL     1      13.539  -6.908   1.274  0.00  0.00    +0.009 C 
ATOM     11  C   UNL     1      14.709  -7.889   1.289  0.00  0.00    -0.072 C 
ATOM     12  N   UNL     1      15.832  -7.442   0.493  0.00  0.00    +0.386 N 
ATOM     13  C   UNL     1      14.224  -9.271   0.836  0.00  0.00    -0.010 C 
ATOM     14  C   UNL     1      15.180  -8.028   2.754  0.00  0.00    -0.010 C 
ATOM     15  C   UNL     1      16.877  -5.996  -1.150  0.00  0.00    -0.010 C 
ATOM     16  H   UNL     1      16.434  -8.352   0.353  0.00  0.00    -0.084 HD
ATOM     17  H   UNL     1      16.367  -6.748   1.159  0.00  0.00    -0.084 HD
ENDBRANCH   2   9
ENDBRANCH   1   3
BRANCH   1  18
ATOM     18  S   UNL     1       8.102  -5.903  -0.109  0.00  0.00    -0.075 S 
BRANCH  18  19
ATOM     19  C   UNL     1       6.884  -4.631  -0.089  0.00  0.00    +0.211 A 
ATOM     20  N   UNL     1       5.530  -4.815  -0.078  0.00  0.00    -0.186 NA
ATOM     21  C   UNL     1       4.936  -3.583  -0.065  0.00  0.00    +0.232 A 
ATOM     22  N   UNL     1       5.883  -2.677  -0.074  0.00  0.00    -0.245 N 
ATOM     23  N   UNL     1       7.117  -3.340  -0.084  0.00  0.00    -0.144 NA
ATOM     24  N   UNL     1       3.571  -3.337  -0.051  0.00  0.00    -0.205 N 
ATOM     25  H   UNL     1       2.861  -4.176  -0.049  0.00  0.00    +0.177 HD
ATOM     26  H   UNL     1       5.622  -1.608  -0.074  0.00  0.00    +0.192 HD
BRANCH  24  27
ATOM     27  N   UNL     1       3.098  -2.018  -0.039  0.00  0.00    -0.187 NA
ATOM     28  C   UNL     1       1.821  -1.787  -0.025  0.00  0.00    +0.141 C 
BRANCH  28  29
ATOM     29  C   UNL     1       1.322  -0.398  -0.013  0.00  0.00    +0.032 A 
ATOM     30  C   UNL     1       2.109   0.774  -0.014  0.00  0.00    +0.143 A 
ATOM     31  N   UNL     1       1.306   1.803  -0.001  0.00  0.00    -0.179 NA
ATOM     32  N   UNL     1      -0.016   1.344   0.009  0.00  0.00    -0.274 N 
ATOM     33  C   UNL     1       0.002  -0.004   0.002  0.00  0.00    +0.117 A 
ATOM     34  C   UNL     1      -1.216   2.186   0.020  0.00  0.00    +0.172 C 
ENDBRANCH  28  29
ENDBRANCH  24  27
ENDBRANCH  18  19
ENDBRANCH   1  18
TORSDOF 6
