REMARK  Name = ZINC63908658
REMARK  4 active torsions:
REMARK  status: ('A' for Active; 'I' for Inactive)
REMARK    1  A    between atoms: C_7  and  C_10
REMARK    2  A    between atoms: N_12  and  N_13
REMARK    3  A    between atoms: C_14  and  C_16
REMARK    4  A    between atoms: N_19  and  C_21
REMARK                            x       y       z     vdW  Elec       q    Type
REMARK                         _______ _______ _______ _____ _____    ______ ____
ROOT
ATOM      1  N   UNL     1       0.203  -5.517  -0.029  0.00  0.00    -0.229 N 
ATOM      2  C   UNL     1       0.676  -6.779  -0.041  0.00  0.00    +0.281 C 
ATOM      3  O   UNL     1       1.875  -6.980  -0.053  0.00  0.00    -0.267 OA
ATOM      4  H   UNL     1      -0.753  -5.357  -0.019  0.00  0.00    +0.173 HD
ENDROOT
BRANCH   2   5
ATOM      5  C   UNL     1      -0.263  -7.919  -0.038  0.00  0.00    +0.152 A 
ATOM      6  C   UNL     1       0.076  -9.287  -0.043  0.00  0.00    +0.006 A 
ATOM      7  C   UNL     1      -1.096  -9.961  -0.046  0.00  0.00    +0.049 A 
ATOM      8  N   UNL     1      -2.087  -9.036  -0.029  0.00  0.00    -0.236 N 
ATOM      9  N   UNL     1      -1.583  -7.852  -0.024  0.00  0.00    -0.161 NA
ATOM     10  C   UNL     1      -1.244 -11.460  -0.079  0.00  0.00    +0.056 C 
ATOM     11  C   UNL     1      -0.304 -12.080   0.960  0.00  0.00    +0.006 C 
ATOM     12  C   UNL     1       1.062 -12.340   0.332  0.00  0.00    +0.001 C 
ATOM     13  C   UNL     1       1.393 -11.272  -0.707  0.00  0.00    +0.005 C 
ATOM     14  C   UNL     1       1.451  -9.897  -0.034  0.00  0.00    +0.039 C 
BRANCH   8  15
ATOM     15  C   UNL     1      -3.458  -9.326  -0.015  0.00  0.00    +0.066 A 
ATOM     16  C   UNL     1      -3.941 -10.433  -0.700  0.00  0.00    +0.030 A 
ATOM     17  C   UNL     1      -5.292 -10.718  -0.685  0.00  0.00    +0.040 A 
ATOM     18  C   UNL     1      -6.165  -9.900   0.014  0.00  0.00    +0.124 A 
ATOM     19  C   UNL     1      -5.685  -8.796   0.698  0.00  0.00    +0.040 A 
ATOM     20  C   UNL     1      -4.334  -8.511   0.689  0.00  0.00    +0.030 A 
ATOM     21  F   UNL     1      -7.487 -10.180   0.027  0.00  0.00    -0.205 F 
ENDBRANCH   8  15
ENDBRANCH   2   5
BRANCH   1  24
ATOM     22  C   UNL     1       0.622  -3.174  -0.021  0.00  0.00    +0.258 C 
ATOM     23  O   UNL     1      -0.578  -2.973  -0.008  0.00  0.00    -0.269 OA
ATOM     24  N   UNL     1       1.094  -4.436  -0.032  0.00  0.00    -0.230 N 
ATOM     25  H   UNL     1       2.051  -4.596  -0.043  0.00  0.00    +0.173 HD
BRANCH  22  32
ATOM     26  C   UNL     1      -0.016   1.346   0.009  0.00  0.00    +0.001 A 
ATOM     27  C   UNL     1       1.158   2.116   0.002  0.00  0.00    +0.002 A 
ATOM     28  C   UNL     1       2.384   1.551  -0.013  0.00  0.00    +0.026 A 
ATOM     29  C   UNL     1       2.495   0.083  -0.022  0.00  0.00    +0.043 A 
ATOM     30  N   UNL     1       3.529  -0.711  -0.036  0.00  0.00    -0.380 N 
ATOM     31  C   UNL     1       3.066  -2.103  -0.040  0.00  0.00    +0.154 C 
ATOM     32  C   UNL     1       1.555  -2.042  -0.024  0.00  0.00    +0.044 C 
ATOM     33  C   UNL     1       1.237  -0.701  -0.013  0.00  0.00    +0.008 A 
ATOM     34  C   UNL     1       0.002  -0.004   0.002  0.00  0.00    +0.010 A 
ATOM     35  H   UNL     1       4.456  -0.427  -0.044  0.00  0.00    +0.160 HD
ENDBRANCH  22  32
ENDBRANCH   1  24
TORSDOF 4
