REMARK  Name = ZINC22568967
REMARK  5 active torsions:
REMARK  status: ('A' for Active; 'I' for Inactive)
REMARK    1  A    between atoms: C_1  and  C_2
REMARK    2  A    between atoms: C_2  and  O_3
REMARK    3  A    between atoms: O_3  and  C_4
REMARK    4  A    between atoms: C_7  and  N_10
REMARK    5  A    between atoms: N_23  and  C_24
REMARK                            x       y       z     vdW  Elec       q    Type
REMARK                         _______ _______ _______ _____ _____    ______ ____
ROOT
ATOM      1  N   UNL     1       1.134  -5.955   1.754  0.00  0.00    -0.239 N 
ATOM      2  C   UNL     1       0.756  -7.084   1.062  0.00  0.00    +0.195 C 
ATOM      3  N   UNL     1       0.793  -7.896   2.175  0.00  0.00    -0.284 N 
ATOM      4  C   UNL     1       1.713  -6.891   2.718  0.00  0.00    +0.214 C 
ATOM      5  C   UNL     1       3.179  -7.182   2.564  0.00  0.00    +0.025 A 
ATOM      6  C   UNL     1       3.966  -7.551   1.496  0.00  0.00    +0.010 A 
ATOM      7  C   UNL     1       5.323  -7.752   1.672  0.00  0.00    +0.001 A 
ATOM      8  C   UNL     1       5.887  -7.581   2.924  0.00  0.00    +0.002 A 
ATOM      9  C   UNL     1       5.103  -7.210   3.996  0.00  0.00    +0.024 A 
ATOM     10  C   UNL     1       3.736  -7.007   3.828  0.00  0.00    +0.041 A 
ATOM     11  N   UNL     1       2.749  -6.633   4.743  0.00  0.00    -0.282 N 
ATOM     12  C   UNL     1       1.533  -6.543   4.170  0.00  0.00    +0.265 C 
ATOM     13  O   UNL     1       0.494  -6.240   4.719  0.00  0.00    -0.271 OA
ATOM     14  N   UNL     1       0.463  -7.309  -0.214  0.00  0.00    -0.182 NA
ATOM     15  H   UNL     1       2.919  -6.460   5.682  0.00  0.00    +0.155 HD
ATOM     16  H   UNL     1       0.400  -8.735   2.461  0.00  0.00    +0.152 HD
ENDROOT
BRANCH  14  17
ATOM     17  C   UNL     1       0.119  -8.537  -0.614  0.00  0.00    +0.233 C 
ATOM     18  N   UNL     1       0.033  -9.628   0.208  0.00  0.00    -0.208 NA
ATOM     19  C   UNL     1      -0.324 -10.662  -0.492  0.00  0.00    +0.119 C 
ATOM     20  C   UNL     1      -0.652 -12.105  -0.556  0.00  0.00    +0.029 A 
ATOM     21  C   UNL     1      -0.701 -13.121   0.376  0.00  0.00    +0.012 A 
ATOM     22  C   UNL     1      -1.057 -14.411  -0.019  0.00  0.00    +0.001 A 
ATOM     23  C   UNL     1      -1.358 -14.669  -1.337  0.00  0.00    +0.002 A 
ATOM     24  C   UNL     1      -1.312 -13.652  -2.287  0.00  0.00    +0.028 A 
ATOM     25  C   UNL     1      -0.960 -12.361  -1.909  0.00  0.00    +0.076 A 
ATOM     26  N   UNL     1      -0.841 -11.203  -2.631  0.00  0.00    -0.227 NA
ATOM     27  C   UNL     1      -0.482 -10.183  -1.900  0.00  0.00    +0.161 C 
ATOM     28  N   UNL     1      -0.192  -8.864  -1.863  0.00  0.00    -0.307 N 
ATOM     29  H   UNL     1      -0.206  -8.259  -2.622  0.00  0.00    +0.170 HD
ENDBRANCH  14  17
BRANCH   1  33
ATOM     30  C   UNL     1       0.802  -1.825   1.306  0.00  0.00    +0.121 A 
ATOM     31  C   UNL     1       0.259  -2.672   0.350  0.00  0.00    +0.047 A 
ATOM     32  C   UNL     1       0.369  -4.040   0.498  0.00  0.00    +0.027 A 
ATOM     33  C   UNL     1       1.023  -4.569   1.603  0.00  0.00    +0.039 A 
ATOM     34  C   UNL     1       1.567  -3.720   2.559  0.00  0.00    +0.027 A 
ATOM     35  C   UNL     1       1.461  -2.352   2.407  0.00  0.00    +0.047 A 
BRANCH  30  36
ATOM     36  O   UNL     1       0.693  -0.477   1.160  0.00  0.00    -0.492 OA
BRANCH  36  38
ATOM     37  C   UNL     1      -0.019   1.526   0.010  0.00  0.00    +0.048 C 
ATOM     38  C   UNL     1       0.002  -0.004   0.002  0.00  0.00    +0.225 C 
ENDBRANCH  36  38
ENDBRANCH  30  36
ENDBRANCH   1  33
TORSDOF 4
