REMARK  Name = ZINC39711409
REMARK  14 active torsions:
REMARK  status: ('A' for Active; 'I' for Inactive)
REMARK    1  A    between atoms: C_1  and  C_2
REMARK    2  A    between atoms: C_2  and  N_3
REMARK    3  A    between atoms: N_3  and  C_4
REMARK    4  A    between atoms: N_3  and  C_11
REMARK    5  A    between atoms: C_4  and  C_5
REMARK    6  A    between atoms: C_11  and  C_13
REMARK    7  A    between atoms: C_11  and  C_28
REMARK    8  A    between atoms: C_18  and  O_25
REMARK    9  A    between atoms: O_25  and  C_26
REMARK   10  A    between atoms: C_26  and  C_27
REMARK   11  A    between atoms: N_33  and  C_34
REMARK   12  A    between atoms: C_34  and  C_35
REMARK   13  A    between atoms: C_34  and  C_36
REMARK   14  A    between atoms: C_34  and  C_37
REMARK                            x       y       z     vdW  Elec       q    Type
REMARK                         _______ _______ _______ _____ _____    ______ ____
ROOT
ATOM      1  C   UNL     1       1.939  -0.243  -1.173  0.00  0.00    -0.009 C 
ENDROOT
BRANCH   1   2
ATOM      2  C   UNL     1       2.623  -0.874  -2.388  0.00  0.00    +0.088 C 
ATOM      3  C   UNL     1       4.117  -0.881  -2.129  0.00  0.00    -0.006 C 
ATOM      4  C   UNL     1       4.910  -0.235  -3.030  0.00  0.00    -0.004 A 
ATOM      5  C   UNL     1       6.362  -0.193  -2.855  0.00  0.00    +0.055 A 
ATOM      6  C   UNL     1       7.115   0.465  -3.780  0.00  0.00    +0.121 A 
ATOM      7  C   UNL     1       6.526   1.094  -4.882  0.00  0.00    +0.047 A 
ATOM      8  C   UNL     1       5.186   1.089  -5.097  0.00  0.00    +0.027 A 
ATOM      9  C   UNL     1       4.319   0.437  -4.200  0.00  0.00    +0.041 A 
ATOM     10  N   UNL     1       3.005   0.440  -4.424  0.00  0.00    -0.285 N 
ATOM     11  C   UNL     1       2.135  -0.150  -3.623  0.00  0.00    +0.223 C 
ATOM     12  O   UNL     1       0.947  -0.113  -3.879  0.00  0.00    -0.275 OA
ATOM     13  H   UNL     1       2.671   0.898  -5.211  0.00  0.00    +0.155 HD
BRANCH   6  14
ATOM     14  O   UNL     1       8.466   0.511  -3.629  0.00  0.00    -0.492 OA
BRANCH  14  15
ATOM     15  C   UNL     1       9.207   1.214  -4.628  0.00  0.00    +0.225 C 
ATOM     16  C   UNL     1      10.698   1.158  -4.291  0.00  0.00    +0.048 C 
ENDBRANCH  14  15
ENDBRANCH   6  14
ENDBRANCH   1   2
BRANCH   1  17
ATOM     17  C   UNL     1       2.296   1.243  -1.102  0.00  0.00    +0.205 C 
ATOM     18  N   UNL     1       1.845   1.938  -2.316  0.00  0.00    -0.152 NA
ATOM     19  N   UNL     1       2.825   2.414  -2.890  0.00  0.00    -0.070 NA
ATOM     20  N   UNL     1       4.023   2.152  -2.227  0.00  0.00    -0.179 N 
ATOM     21  N   UNL     1       3.763   1.421  -1.094  0.00  0.00    -0.183 NA
ATOM     22  H   UNL     1       4.902   2.441  -2.519  0.00  0.00    +0.191 HD
BRANCH  21  23
ATOM     23  C   UNL     1       4.199   2.140   0.111  0.00  0.00    +0.035 C 
ATOM     24  C   UNL     1       3.795   1.345   1.354  0.00  0.00    +0.029 C 
ATOM     25  C   UNL     1       5.720   2.305   0.083  0.00  0.00    +0.029 C 
ATOM     26  C   UNL     1       3.538   3.519   0.150  0.00  0.00    +0.029 C 
ENDBRANCH  21  23
ENDBRANCH   1  17
BRANCH   1  27
ATOM     27  N   UNL     1       0.483  -0.391  -1.299  0.00  0.00    +0.387 N 
ATOM     28  H   UNL     1       0.167   0.083  -2.132  0.00  0.00    -0.081 HD
BRANCH  27  30
ATOM     29  C   UNL     1      -0.539   1.652  -0.417  0.00  0.00    -0.017 C 
ATOM     30  C   UNL     1      -0.172   0.196  -0.123  0.00  0.00    -0.081 C 
ENDBRANCH  27  30
BRANCH  27  31
ATOM     31  C   UNL     1       0.142  -1.817  -1.388  0.00  0.00    -0.042 C 
BRANCH  31  32
ATOM     32  C   UNL     1      -1.336  -1.966  -1.645  0.00  0.00    -0.064 A 
ATOM     33  C   UNL     1      -2.216  -2.053  -0.583  0.00  0.00    +0.002 A 
ATOM     34  C   UNL     1      -3.572  -2.189  -0.819  0.00  0.00    +0.000 A 
ATOM     35  C   UNL     1      -4.046  -2.237  -2.116  0.00  0.00    +0.000 A 
ATOM     36  C   UNL     1      -3.166  -2.148  -3.178  0.00  0.00    +0.000 A 
ATOM     37  C   UNL     1      -1.811  -2.008  -2.942  0.00  0.00    +0.002 A 
ENDBRANCH  31  32
ENDBRANCH  27  31
ENDBRANCH   1  27
TORSDOF 9
