REMARK  Name = ZINC19820116
REMARK  13 active torsions:
REMARK  status: ('A' for Active; 'I' for Inactive)
REMARK    1  A    between atoms: C_1  and  C_2
REMARK    2  A    between atoms: C_2  and  O_3
REMARK    3  A    between atoms: O_3  and  C_4
REMARK    4  A    between atoms: C_4  and  C_6
REMARK    5  A    between atoms: C_8  and  C_29
REMARK    6  A    between atoms: N_19  and  C_22
REMARK    7  A    between atoms: C_22  and  C_23
REMARK    8  A    between atoms: C_31  and  O_39
REMARK    9  A    between atoms: C_32  and  O_37
REMARK   10  A    between atoms: C_33  and  O_35
REMARK   11  A    between atoms: O_35  and  C_36
REMARK   12  A    between atoms: O_37  and  C_38
REMARK   13  A    between atoms: O_39  and  C_40
REMARK                            x       y       z     vdW  Elec       q    Type
REMARK                         _______ _______ _______ _____ _____    ______ ____
ROOT
ATOM      1  C   UNL     1      -4.500   4.826   0.748  0.00  0.00    +0.211 C 
ATOM      2  C   UNL     1      -3.152   4.877   0.023  0.00  0.00    +0.143 C 
ATOM      3  N   UNL     1      -2.561   3.537   0.038  0.00  0.00    -0.303 N 
ATOM      4  C   UNL     1      -1.236   3.167   0.028  0.00  0.00    +0.071 A 
ATOM      5  C   UNL     1      -0.034   3.860   0.020  0.00  0.00    +0.028 A 
ATOM      6  C   UNL     1       1.159   3.169   0.007  0.00  0.00    +0.002 A 
ATOM      7  C   UNL     1       1.169   1.782   0.001  0.00  0.00    +0.002 A 
ATOM      8  C   UNL     1      -0.013   1.076   0.008  0.00  0.00    +0.030 A 
ATOM      9  C   UNL     1      -1.231   1.759   0.017  0.00  0.00    +0.091 A 
ATOM     10  N   UNL     1      -2.529   1.350   0.037  0.00  0.00    -0.214 NA
ATOM     11  C   UNL     1      -3.313   2.388   0.053  0.00  0.00    +0.207 A 
ATOM     12  N   UNL     1      -4.701   2.429   0.095  0.00  0.00    -0.236 N 
ATOM     13  C   UNL     1      -5.293   3.619   0.330  0.00  0.00    +0.238 C 
ATOM     14  O   UNL     1      -6.494   3.717   0.200  0.00  0.00    -0.274 OA
ENDROOT
BRANCH   2  15
ATOM     15  C   UNL     1      -3.361   5.323  -1.401  0.00  0.00    -0.016 A 
ATOM     16  C   UNL     1      -4.174   4.586  -2.242  0.00  0.00    +0.055 A 
ATOM     17  C   UNL     1      -4.373   4.995  -3.552  0.00  0.00    +0.165 A 
ATOM     18  C   UNL     1      -3.744   6.142  -4.022  0.00  0.00    +0.204 A 
ATOM     19  C   UNL     1      -2.923   6.877  -3.176  0.00  0.00    +0.165 A 
ATOM     20  C   UNL     1      -2.734   6.464  -1.866  0.00  0.00    +0.055 A 
BRANCH  19  21
ATOM     21  O   UNL     1      -2.306   8.000  -3.631  0.00  0.00    -0.491 OA
ATOM     22  C   UNL     1      -1.477   8.705  -2.706  0.00  0.00    +0.277 C 
ENDBRANCH  19  21
BRANCH  18  23
ATOM     23  O   UNL     1      -3.932   6.543  -5.309  0.00  0.00    -0.488 OA
ATOM     24  C   UNL     1      -3.021   6.036  -6.286  0.00  0.00    +0.277 C 
ENDBRANCH  18  23
BRANCH  17  25
ATOM     25  O   UNL     1      -5.178   4.273  -4.376  0.00  0.00    -0.491 OA
ATOM     26  C   UNL     1      -5.791   3.106  -3.825  0.00  0.00    +0.277 C 
ENDBRANCH  17  25
ENDBRANCH   2  15
BRANCH   1  27
ATOM     27  C   UNL     1      -4.260   4.769   2.235  0.00  0.00    +0.322 C 
ATOM     28  O   UNL     1      -3.131   4.741   2.664  0.00  0.00    -0.250 OA
BRANCH  27  29
ATOM     29  O   UNL     1      -5.301   4.749   3.082  0.00  0.00    -0.464 OA
BRANCH  29  31
ATOM     30  C   UNL     1      -6.297   4.679   5.303  0.00  0.00    +0.048 C 
ATOM     31  C   UNL     1      -4.995   4.694   4.501  0.00  0.00    +0.229 C 
ENDBRANCH  29  31
ENDBRANCH  27  29
ENDBRANCH   1  27
BRANCH  12  32
ATOM     32  C   UNL     1      -5.498   1.216  -0.109  0.00  0.00    +0.151 C 
BRANCH  32  33
ATOM     33  C   UNL     1      -5.737   0.543   1.218  0.00  0.00    -0.030 A 
ATOM     34  C   UNL     1      -4.845  -0.407   1.681  0.00  0.00    +0.005 A 
ATOM     35  C   UNL     1      -5.062  -1.022   2.900  0.00  0.00    +0.000 A 
ATOM     36  C   UNL     1      -6.175  -0.694   3.651  0.00  0.00    +0.000 A 
ATOM     37  C   UNL     1      -7.069   0.252   3.185  0.00  0.00    +0.000 A 
ATOM     38  C   UNL     1      -6.850   0.870   1.968  0.00  0.00    +0.005 A 
ENDBRANCH  32  33
ENDBRANCH  12  32
TORSDOF 9
