REMARK  Name = ZINC43251595
REMARK  8 active torsions:
REMARK  status: ('A' for Active; 'I' for Inactive)
REMARK    1  A    between atoms: C_1  and  C_2
REMARK    2  A    between atoms: C_6  and  C_7
REMARK    3  A    between atoms: C_7  and  C_9
REMARK    4  A    between atoms: C_7  and  S_13
REMARK    5  A    between atoms: C_9  and  C_11
REMARK    6  A    between atoms: C_9  and  N_12
REMARK    7  A    between atoms: S_13  and  C_14
REMARK    8  A    between atoms: C_18  and  N_20
REMARK                            x       y       z     vdW  Elec       q    Type
REMARK                         _______ _______ _______ _____ _____    ______ ____
ROOT
ATOM      1  C   UNL     1       0.030  -0.179   2.581  0.00  0.00    +0.076 C 
ENDROOT
BRANCH   1   7
ATOM      2  C   UNL     1      -0.018   1.503   0.010  0.00  0.00    +0.044 C 
ATOM      3  C   UNL     1       0.002  -0.004   0.002  0.00  0.00    -0.039 A 
ATOM      4  C   UNL     1       0.006  -0.699  -1.193  0.00  0.00    +0.011 A 
ATOM      5  C   UNL     1       0.024  -2.054  -1.165  0.00  0.00    +0.046 A 
ATOM      6  S   UNL     1       0.037  -2.387   0.589  0.00  0.00    -0.100 S 
ATOM      7  C   UNL     1       0.023  -0.698   1.166  0.00  0.00    +0.004 A 
ENDBRANCH   1   7
BRANCH   1   8
ATOM      8  C   UNL     1       1.431  -0.335   3.175  0.00  0.00    -0.060 C 
ATOM      9  C   UNL     1       2.411   0.557   2.411  0.00  0.00    -0.013 C 
BRANCH   8  10
ATOM     10  N   UNL     1       1.856  -1.737   3.063  0.00  0.00    +0.381 N 
ATOM     11  H   UNL     1       1.871  -2.008   2.091  0.00  0.00    -0.090 HD
ATOM     12  H   UNL     1       2.781  -1.840   3.455  0.00  0.00    -0.090 HD
ATOM     13  H   UNL     1       1.210  -2.325   3.567  0.00  0.00    -0.090 HD
ENDBRANCH   8  10
ENDBRANCH   1   8
BRANCH   1  14
ATOM     14  S   UNL     1      -1.158  -1.121   3.577  0.00  0.00    -0.079 S 
BRANCH  14  15
ATOM     15  C   UNL     1      -1.141  -0.309   5.141  0.00  0.00    +0.192 A 
ATOM     16  N   UNL     1      -0.356   0.744   5.313  0.00  0.00    -0.207 NA
ATOM     17  C   UNL     1      -0.317   1.382   6.480  0.00  0.00    +0.122 A 
ATOM     18  C   UNL     1      -1.116   0.929   7.526  0.00  0.00    +0.086 A 
ATOM     19  C   UNL     1      -1.928  -0.180   7.308  0.00  0.00    +0.122 A 
ATOM     20  N   UNL     1      -1.919  -0.765   6.112  0.00  0.00    -0.207 NA
ATOM     21  N   UNL     1       0.507   2.482   6.652  0.00  0.00    -0.343 N 
ATOM     22  H   UNL     1       1.062   2.792   5.919  0.00  0.00    +0.144 HD
ATOM     23  H   UNL     1       0.530   2.943   7.506  0.00  0.00    +0.144 HD
BRANCH  19  24
ATOM     24  N   UNL     1      -2.740  -0.666   8.321  0.00  0.00    -0.343 N 
ATOM     25  H   UNL     1      -2.745  -0.233   9.189  0.00  0.00    +0.144 HD
ATOM     26  H   UNL     1      -3.304  -1.439   8.162  0.00  0.00    +0.144 HD
ENDBRANCH  19  24
ENDBRANCH  14  15
ENDBRANCH   1  14
TORSDOF 6
