REMARK  Name = ZINC13064442
REMARK  13 active torsions:
REMARK  status: ('A' for Active; 'I' for Inactive)
REMARK    1  A    between atoms: C_1  and  C_2
REMARK    2  A    between atoms: C_2  and  C_3
REMARK    3  A    between atoms: C_3  and  C_5
REMARK    4  A    between atoms: C_3  and  N_69
REMARK    5  A    between atoms: N_9  and  C_10
REMARK    6  A    between atoms: C_10  and  C_11
REMARK    7  A    between atoms: C_11  and  O_12
REMARK    8  A    between atoms: O_12  and  C_13
REMARK    9  A    between atoms: C_14  and  C_15
REMARK   10  A    between atoms: C_14  and  N_69
REMARK   11  A    between atoms: C_18  and  C_21
REMARK   12  A    between atoms: C_22  and  C_23
REMARK   13  A    between atoms: C_22  and  N_69
REMARK                            x       y       z     vdW  Elec       q    Type
REMARK                         _______ _______ _______ _____ _____    ______ ____
ROOT
ATOM      1  N   UNL     1       1.540   4.152   2.883  0.00  0.00    +0.392 N 
ATOM      2  H   UNL     1       1.089   4.521   3.728  0.00  0.00    -0.080 HD
ENDROOT
BRANCH   1   3
ATOM      3  C   UNL     1       0.514   3.518   2.029  0.00  0.00    +0.003 C 
BRANCH   3   4
ATOM      4  C   UNL     1       1.159   2.818   0.860  0.00  0.00    +0.138 A 
ATOM      5  N   UNL     1       2.350   2.272   0.835  0.00  0.00    -0.115 NA
ATOM      6  N   UNL     1       2.538   1.781  -0.341  0.00  0.00    -0.023 NA
ATOM      7  N   UNL     1       1.495   1.996  -1.066  0.00  0.00    -0.044 NA
ATOM      8  N   UNL     1       0.621   2.630  -0.359  0.00  0.00    -0.229 N 
BRANCH   8   9
ATOM      9  C   UNL     1      -0.704   3.068  -0.804  0.00  0.00    +0.175 C 
BRANCH   9  10
ATOM     10  C   UNL     1      -1.693   1.907  -0.681  0.00  0.00    +0.183 C 
BRANCH  10  11
ATOM     11  O   UNL     1      -2.986   2.334  -1.115  0.00  0.00    -0.381 OA
ATOM     12  C   UNL     1      -3.989   1.319  -1.040  0.00  0.00    +0.194 C 
ENDBRANCH  10  11
ENDBRANCH   9  10
ENDBRANCH   8   9
ENDBRANCH   3   4
BRANCH   3  14
ATOM     13  C   UNL     1      -1.027   3.229   3.974  0.00  0.00    +0.002 C 
ATOM     14  C   UNL     1      -0.265   2.501   2.866  0.00  0.00    -0.011 C 
ENDBRANCH   3  14
ENDBRANCH   1   3
BRANCH   1  15
ATOM     15  C   UNL     1       2.556   3.154   3.278  0.00  0.00    -0.042 C 
BRANCH  15  16
ATOM     16  C   UNL     1       3.302   3.674   4.480  0.00  0.00    -0.064 A 
ATOM     17  C   UNL     1       4.524   4.300   4.316  0.00  0.00    +0.002 A 
ATOM     18  C   UNL     1       5.207   4.781   5.418  0.00  0.00    +0.003 A 
ATOM     19  C   UNL     1       4.672   4.628   6.684  0.00  0.00    -0.050 A 
ATOM     20  C   UNL     1       3.452   3.998   6.847  0.00  0.00    +0.003 A 
ATOM     21  C   UNL     1       2.768   3.521   5.745  0.00  0.00    +0.002 A 
ATOM     22  C   UNL     1       5.418   5.149   7.885  0.00  0.00    +0.044 C 
ENDBRANCH  15  16
ENDBRANCH   1  15
BRANCH   1  23
ATOM     23  C   UNL     1       2.183   5.267   2.156  0.00  0.00    -0.036 C 
BRANCH  23  24
ATOM     24  C   UNL     1       1.301   6.484   2.264  0.00  0.00    +0.001 A 
ATOM     25  C   UNL     1       1.489   7.369   3.276  0.00  0.00    +0.017 A 
ATOM     26  C   UNL     1       0.621   8.542   3.350  0.00  0.00    +0.002 A 
ATOM     27  C   UNL     1       0.771   9.490   4.370  0.00  0.00    +0.059 A 
ATOM     28  C   UNL     1      -0.066  10.585   4.417  0.00  0.00    +0.163 A 
ATOM     29  C   UNL     1      -1.063  10.751   3.450  0.00  0.00    +0.164 A 
ATOM     30  C   UNL     1      -1.219   9.818   2.439  0.00  0.00    +0.075 A 
ATOM     31  C   UNL     1      -0.385   8.710   2.378  0.00  0.00    +0.053 A 
ATOM     32  N   UNL     1      -0.528   7.770   1.378  0.00  0.00    -0.322 N 
ATOM     33  H   UNL     1      -1.221   7.885   0.709  0.00  0.00    +0.169 HD
ATOM     34  C   UNL     1       0.280   6.697   1.316  0.00  0.00    +0.251 A 
ATOM     35  O   UNL     1       0.124   5.887   0.418  0.00  0.00    -0.268 OA
ATOM     36  O   UNL     1      -1.890  11.830   3.487  0.00  0.00    -0.485 OA
ATOM     37  C   UNL     1      -1.954  12.551   4.722  0.00  0.00    +0.270 C 
ATOM     38  C   UNL     1      -0.521  12.776   5.223  0.00  0.00    +0.270 C 
ATOM     39  O   UNL     1       0.092  11.496   5.416  0.00  0.00    -0.485 OA
ENDBRANCH  23  24
ENDBRANCH   1  23
TORSDOF 10
