REMARK  Name = ZINC08707282
REMARK  11 active torsions:
REMARK  status: ('A' for Active; 'I' for Inactive)
REMARK    1  A    between atoms: C_1  and  C_2
REMARK    2  A    between atoms: C_4  and  C_18
REMARK    3  A    between atoms: C_5  and  C_17
REMARK    4  A    between atoms: N_6  and  C_7
REMARK    5  A    between atoms: C_10  and  O_13
REMARK    6  A    between atoms: O_13  and  C_14
REMARK    7  A    between atoms: C_18  and  C_20
REMARK    8  A    between atoms: C_20  and  N_21
REMARK    9  A    between atoms: C_26  and  N_35
REMARK   10  A    between atoms: C_27  and  N_32
REMARK   11  A    between atoms: N_35  and  C_36
REMARK                            x       y       z     vdW  Elec       q    Type
REMARK                         _______ _______ _______ _____ _____    ______ ____
ROOT
ATOM      1  C   UNL     1       0.436   2.039   0.169  0.00  0.00    +0.184 C 
ATOM      2  O   UNL     1       0.232   0.850   0.292  0.00  0.00    -0.290 OA
ENDROOT
BRANCH   1   6
ATOM      3  C   UNL     1      -2.302   6.336   0.083  0.00  0.00    +0.064 C 
ATOM      4  C   UNL     1      -1.880   4.891   0.164  0.00  0.00    +0.022 A 
ATOM      5  C   UNL     1      -0.617   4.443   0.072  0.00  0.00    +0.034 A 
ATOM      6  C   UNL     1      -0.685   2.981   0.205  0.00  0.00    +0.040 A 
ATOM      7  C   UNL     1      -2.024   2.677   0.364  0.00  0.00    +0.031 A 
ATOM      8  N   UNL     1      -2.721   3.829   0.342  0.00  0.00    -0.317 N 
ATOM      9  C   UNL     1      -2.603   1.296   0.535  0.00  0.00    +0.064 C 
BRANCH   8  10
ATOM     10  C   UNL     1      -4.114   3.925   0.477  0.00  0.00    +0.047 A 
ATOM     11  C   UNL     1      -4.723   3.555   1.669  0.00  0.00    +0.030 A 
ATOM     12  C   UNL     1      -6.093   3.654   1.804  0.00  0.00    +0.048 A 
ATOM     13  C   UNL     1      -6.863   4.113   0.745  0.00  0.00    +0.127 A 
ATOM     14  C   UNL     1      -6.256   4.478  -0.448  0.00  0.00    +0.048 A 
ATOM     15  C   UNL     1      -4.885   4.384  -0.582  0.00  0.00    +0.030 A 
BRANCH  13  16
ATOM     16  O   UNL     1      -8.213   4.206   0.876  0.00  0.00    -0.434 OA
BRANCH  16  17
ATOM     17  C   UNL     1      -8.771   3.814   2.132  0.00  0.00    +0.541 C 
ATOM     18  F   UNL     1      -8.460   2.474   2.383  0.00  0.00    -0.166 F 
ATOM     19  F   UNL     1      -8.239   4.614   3.149  0.00  0.00    -0.166 F 
ENDBRANCH  16  17
ENDBRANCH  13  16
ENDBRANCH   8  10
ENDBRANCH   1   6
BRANCH   1  20
ATOM     20  C   UNL     1       1.841   2.547  -0.026  0.00  0.00    +0.205 C 
BRANCH  20  21
ATOM     21  N   UNL     1       2.772   1.417  -0.031  0.00  0.00    -0.291 N 
ATOM     22  C   UNL     1       3.073   0.798  -1.203  0.00  0.00    +0.203 A 
ATOM     23  N   UNL     1       3.888  -0.209  -1.290  0.00  0.00    -0.237 NA
ATOM     24  C   UNL     1       4.505  -0.720  -0.195  0.00  0.00    +0.080 A 
ATOM     25  C   UNL     1       5.381  -1.800  -0.286  0.00  0.00    +0.053 A 
ATOM     26  C   UNL     1       5.987  -2.286   0.862  0.00  0.00    +0.060 A 
ATOM     27  C   UNL     1       5.729  -1.703   2.104  0.00  0.00    +0.148 A 
ATOM     28  C   UNL     1       4.874  -0.644   2.212  0.00  0.00    +0.050 A 
ATOM     29  C   UNL     1       4.252  -0.138   1.070  0.00  0.00    +0.067 A 
ATOM     30  C   UNL     1       3.329   1.002   1.130  0.00  0.00    +0.262 A 
ATOM     31  O   UNL     1       3.071   1.551   2.186  0.00  0.00    -0.267 OA
BRANCH  27  32
ATOM     32  N   UNL     1       6.388  -2.239   3.316  0.00  0.00    +0.058 N 
ATOM     33  O   UNL     1       5.777  -2.291   4.369  0.00  0.00    -0.126 OA
ATOM     34  O   UNL     1       7.541  -2.627   3.261  0.00  0.00    -0.126 OA
ENDBRANCH  27  32
BRANCH  26  35
ATOM     35  N   UNL     1       6.861  -3.365   0.775  0.00  0.00    -0.345 N 
ATOM     36  C   UNL     1       7.237  -3.900  -0.536  0.00  0.00    +0.125 C 
ATOM     37  H   UNL     1       7.221  -3.764   1.583  0.00  0.00    +0.146 HD
ENDBRANCH  26  35
ENDBRANCH  20  21
ENDBRANCH   1  20
TORSDOF 8
