REMARK  Name = ZINC01786656
REMARK  11 active torsions:
REMARK  status: ('A' for Active; 'I' for Inactive)
REMARK    1  A    between atoms: C_1  and  C_2
REMARK    2  A    between atoms: C_3  and  C_23
REMARK    3  A    between atoms: C_15  and  C_19
REMARK    4  A    between atoms: C_16  and  N_18
REMARK    5  A    between atoms: C_19  and  O_21
REMARK    6  A    between atoms: O_21  and  C_22
REMARK    7  A    between atoms: C_23  and  O_25
REMARK    8  A    between atoms: O_25  and  C_26
REMARK    9  A    between atoms: C_26  and  C_27
REMARK   10  A    between atoms: C_27  and  O_28
REMARK   11  A    between atoms: O_28  and  C_29
REMARK                            x       y       z     vdW  Elec       q    Type
REMARK                         _______ _______ _______ _____ _____    ______ ____
ROOT
ATOM      1  C   UNL     1       1.132   3.429  -0.541  0.00  0.00    +0.087 C 
ATOM      2  C   UNL     1       1.141   2.001  -0.058  0.00  0.00    +0.116 C 
ATOM      3  C   UNL     1       2.296   1.465   0.358  0.00  0.00    +0.098 C 
ATOM      4  C   UNL     1       2.354   0.046   0.845  0.00  0.00    +0.145 C 
ATOM      5  C   UNL     1       2.504   0.009   2.345  0.00  0.00    -0.001 A 
ATOM      6  C   UNL     1       1.719   0.465   3.380  0.00  0.00    +0.022 A 
ATOM      7  C   UNL     1       2.128   0.283   4.690  0.00  0.00    +0.018 A 
ATOM      8  C   UNL     1       3.326  -0.358   4.954  0.00  0.00    +0.017 A 
ATOM      9  C   UNL     1       4.114  -0.816   3.919  0.00  0.00    +0.025 A 
ATOM     10  C   UNL     1       3.709  -0.636   2.598  0.00  0.00    +0.038 A 
ATOM     11  N   UNL     1       4.321  -1.002   1.398  0.00  0.00    -0.284 N 
ATOM     12  C   UNL     1       3.595  -0.640   0.325  0.00  0.00    +0.237 C 
ATOM     13  O   UNL     1       3.881  -0.829  -0.838  0.00  0.00    -0.274 OA
ATOM     14 BR   UNL     1       1.053   0.909   6.115  0.00  0.00    -0.050 Br
ATOM     15  C   UNL     1       1.124  -0.704   0.422  0.00  0.00    +0.117 C 
ATOM     16  C   UNL     1       0.021  -0.032  -0.004  0.00  0.00    +0.195 C 
ATOM     17  O   UNL     1      -0.009   1.310  -0.058  0.00  0.00    -0.446 OA
ATOM     18  H   UNL     1       5.172  -1.465   1.343  0.00  0.00    +0.155 HD
ENDROOT
BRANCH  16  19
ATOM     19  N   UNL     1      -1.086  -0.740  -0.388  0.00  0.00    -0.329 N 
ATOM     20  H   UNL     1      -0.984  -1.575  -0.872  0.00  0.00    +0.145 HD
ATOM     21  H   UNL     1      -1.972  -0.407  -0.176  0.00  0.00    +0.145 HD
ENDBRANCH  16  19
BRANCH  15  22
ATOM     22  C   UNL     1       1.112  -2.107   0.466  0.00  0.00    +0.341 C 
ATOM     23  O   UNL     1       0.148  -2.721   0.045  0.00  0.00    -0.245 OA
BRANCH  22  24
ATOM     24  O   UNL     1       2.170  -2.775   0.975  0.00  0.00    -0.465 OA
ATOM     25  C   UNL     1       2.090  -4.202   0.989  0.00  0.00    +0.280 C 
ENDBRANCH  22  24
ENDBRANCH  15  22
BRANCH   3  26
ATOM     26  C   UNL     1       3.478   2.246   0.335  0.00  0.00    +0.340 C 
ATOM     27  O   UNL     1       3.440   3.397  -0.058  0.00  0.00    -0.245 OA
BRANCH  26  28
ATOM     28  O   UNL     1       4.646   1.714   0.751  0.00  0.00    -0.459 OA
BRANCH  28  29
ATOM     29  C   UNL     1       5.798   2.559   0.701  0.00  0.00    +0.260 C 
BRANCH  29  30
ATOM     30  C   UNL     1       7.019   1.787   1.207  0.00  0.00    +0.200 C 
BRANCH  30  31
ATOM     31  O   UNL     1       7.303   0.707   0.315  0.00  0.00    -0.380 OA
ATOM     32  C   UNL     1       8.431  -0.081   0.699  0.00  0.00    +0.194 C 
ENDBRANCH  30  31
ENDBRANCH  29  30
ENDBRANCH  28  29
ENDBRANCH  26  28
ENDBRANCH   3  26
TORSDOF 8
