REMARK  Name = ZINC08921131
REMARK  11 active torsions:
REMARK  status: ('A' for Active; 'I' for Inactive)
REMARK    1  A    between atoms: C_1  and  C_2
REMARK    2  A    between atoms: C_4  and  O_9
REMARK    3  A    between atoms: O_9  and  C_10
REMARK    4  A    between atoms: C_10  and  C_11
REMARK    5  A    between atoms: C_11  and  C_12
REMARK    6  A    between atoms: C_12  and  C_13
REMARK    7  A    between atoms: N_15  and  N_16
REMARK    8  A    between atoms: C_17  and  C_19
REMARK    9  A    between atoms: C_19  and  C_20
REMARK   10  A    between atoms: C_26  and  C_32
REMARK   11  A    between atoms: C_27  and  C_31
REMARK                            x       y       z     vdW  Elec       q    Type
REMARK                         _______ _______ _______ _____ _____    ______ ____
ROOT
ATOM      1  N   UNL     1      -4.369  -4.398   0.020  0.00  0.00    -0.234 N 
ATOM      2  C   UNL     1      -4.597  -5.727   0.015  0.00  0.00    +0.236 C 
ATOM      3  O   UNL     1      -3.665  -6.502   0.002  0.00  0.00    -0.274 OA
ATOM      4  H   UNL     1      -5.115  -3.778   0.031  0.00  0.00    +0.173 HD
ENDROOT
BRANCH   1   7
ATOM      5  C   UNL     1      -2.826  -2.585   0.015  0.00  0.00    +0.229 C 
ATOM      6  O   UNL     1      -3.759  -1.810   0.028  0.00  0.00    -0.274 OA
ATOM      7  N   UNL     1      -3.055  -3.913   0.010  0.00  0.00    -0.234 N 
ATOM      8  H   UNL     1      -2.309  -4.534  -0.000  0.00  0.00    +0.173 HD
BRANCH   5   9
ATOM      9  C   UNL     1      -1.413  -2.063   0.004  0.00  0.00    +0.100 C 
BRANCH   9  10
ATOM     10  C   UNL     1      -1.433  -0.534   0.013  0.00  0.00    +0.050 C 
BRANCH  10  11
ATOM     11  C   UNL     1       0.002  -0.004   0.002  0.00  0.00    +0.229 C 
BRANCH  11  12
ATOM     12  O   UNL     1      -0.017   1.425   0.010  0.00  0.00    -0.492 OA
BRANCH  12  16
ATOM     13  C   UNL     1       2.523   5.592   0.008  0.00  0.00    +0.045 C 
ATOM     14  C   UNL     1       2.463   4.086   0.001  0.00  0.00    -0.029 A 
ATOM     15  C   UNL     1       1.240   3.444   0.009  0.00  0.00    +0.050 A 
ATOM     16  C   UNL     1       1.185   2.058   0.002  0.00  0.00    +0.121 A 
ATOM     17  C   UNL     1       2.360   1.319  -0.008  0.00  0.00    +0.047 A 
ATOM     18  C   UNL     1       3.580   1.965  -0.021  0.00  0.00    +0.024 A 
ATOM     19  C   UNL     1       3.633   3.348  -0.014  0.00  0.00    +0.044 A 
ATOM     20 CL   UNL     1       5.169   4.157  -0.024  0.00  0.00    -0.083 Cl
ENDBRANCH  12  16
ENDBRANCH  11  12
ENDBRANCH  10  11
ENDBRANCH   9  10
ENDBRANCH   5   9
ENDBRANCH   1   7
BRANCH   2  21
ATOM     21  C   UNL     1      -6.011  -6.248   0.026  0.00  0.00    +0.171 C 
BRANCH  21  22
ATOM     22  C   UNL     1      -5.991  -7.755   0.018  0.00  0.00    +0.120 A 
ATOM     23  N   UNL     1      -7.164  -8.438   0.031  0.00  0.00    -0.310 N 
ATOM     24  H   UNL     1      -8.000  -7.946   0.045  0.00  0.00    +0.170 HD
ATOM     25  C   UNL     1      -7.191  -9.784   0.018  0.00  0.00    +0.260 A 
ATOM     26  O   UNL     1      -8.253 -10.382   0.025  0.00  0.00    -0.267 OA
ATOM     27  C   UNL     1      -5.951 -10.502   0.003  0.00  0.00    +0.075 A 
ATOM     28  C   UNL     1      -5.717 -11.934  -0.007  0.00  0.00    -0.026 A 
ATOM     29  C   UNL     1      -4.455 -12.392  -0.022  0.00  0.00    -0.008 A 
ATOM     30  S   UNL     1      -3.476 -10.902  -0.023  0.00  0.00    -0.073 S 
ATOM     31  C   UNL     1      -4.790  -9.710  -0.004  0.00  0.00    +0.116 A 
ATOM     32  N   UNL     1      -4.844  -8.381   0.003  0.00  0.00    -0.226 NA
ATOM     33  C   UNL     1      -3.980 -13.822  -0.034  0.00  0.00    +0.052 C 
ATOM     34  C   UNL     1      -6.877 -12.896  -0.001  0.00  0.00    +0.045 C 
ENDBRANCH  21  22
ENDBRANCH   2  21
TORSDOF 8
