REMARK  Name = ZINC67299285
REMARK  6 active torsions:
REMARK  status: ('A' for Active; 'I' for Inactive)
REMARK    1  A    between atoms: C_4  and  N_11
REMARK    2  A    between atoms: C_5  and  C_7
REMARK    3  A    between atoms: C_13  and  C_23
REMARK    4  A    between atoms: C_18  and  O_22
REMARK    5  A    between atoms: N_25  and  C_26
REMARK    6  A    between atoms: C_26  and  C_27
REMARK                            x       y       z     vdW  Elec       q    Type
REMARK                         _______ _______ _______ _____ _____    ______ ____
ROOT
ATOM      1  N   UNL     1       3.593  -0.655  -0.096  0.00  0.00    -0.325 N 
ATOM      2  C   UNL     1       4.714   0.028  -0.183  0.00  0.00    +0.212 A 
ATOM      3  C   UNL     1       6.018  -0.655  -0.290  0.00  0.00    +0.097 A 
ATOM      4  C   UNL     1       7.053   0.038  -0.901  0.00  0.00    +0.030 A 
ATOM      5  C   UNL     1       6.801   1.360  -1.349  0.00  0.00    +0.018 A 
ATOM      6  C   UNL     1       7.741   2.030  -2.147  0.00  0.00    +0.015 A 
ATOM      7  C   UNL     1       7.471   3.285  -2.607  0.00  0.00    +0.046 A 
ATOM      8  C   UNL     1       6.268   3.912  -2.286  0.00  0.00    +0.120 A 
ATOM      9  C   UNL     1       5.335   3.273  -1.483  0.00  0.00    +0.092 A 
ATOM     10  C   UNL     1       5.597   2.002  -1.000  0.00  0.00    +0.141 A 
ATOM     11  O   UNL     1       4.711   1.386  -0.185  0.00  0.00    -0.438 OA
ATOM     12  H   UNL     1       3.615  -1.625  -0.083  0.00  0.00    +0.169 HD
ENDROOT
BRANCH   1  16
ATOM     13  C   UNL     1      -0.029   1.333   0.125  0.00  0.00    +0.001 A 
ATOM     14  C   UNL     1       1.000   1.677   0.985  0.00  0.00    +0.002 A 
ATOM     15  C   UNL     1       2.209   1.019   0.917  0.00  0.00    +0.026 A 
ATOM     16  C   UNL     1       2.396   0.001  -0.022  0.00  0.00    +0.054 A 
ATOM     17  C   UNL     1       1.353  -0.341  -0.887  0.00  0.00    +0.078 A 
ATOM     18  C   UNL     1       0.148   0.327  -0.808  0.00  0.00    +0.014 A 
BRANCH  17  19
ATOM     19  C   UNL     1       1.544  -1.437  -1.904  0.00  0.00    +0.419 C 
ATOM     20  F   UNL     1       0.369  -1.594  -2.646  0.00  0.00    -0.166 F 
ATOM     21  F   UNL     1       2.596  -1.098  -2.762  0.00  0.00    -0.166 F 
ATOM     22  F   UNL     1       1.845  -2.635  -1.248  0.00  0.00    -0.166 F 
ENDBRANCH  17  19
ENDBRANCH   1  16
BRANCH   3  23
ATOM     23  C   UNL     1       6.212  -2.018   0.231  0.00  0.00    +0.250 C 
ATOM     24  O   UNL     1       5.272  -2.628   0.703  0.00  0.00    -0.270 OA
ATOM     25  N   UNL     1       7.432  -2.589   0.184  0.00  0.00    -0.304 N 
ATOM     26  H   UNL     1       8.167  -2.129  -0.251  0.00  0.00    +0.149 HD
BRANCH  25  27
ATOM     27  C   UNL     1       7.648  -3.905   0.791  0.00  0.00    +0.179 C 
BRANCH  27  28
ATOM     28  C   UNL     1       9.086  -4.315   0.602  0.00  0.00    +0.122 A 
ATOM     29  C   UNL     1      10.096  -4.055   1.452  0.00  0.00    +0.046 A 
ATOM     30  C   UNL     1      11.263  -4.618   0.886  0.00  0.00    +0.041 A 
ATOM     31  C   UNL     1      10.896  -5.189  -0.276  0.00  0.00    +0.195 A 
ATOM     32  O   UNL     1       9.576  -5.007  -0.440  0.00  0.00    -0.466 OA
ENDBRANCH  27  28
ENDBRANCH  25  27
ENDBRANCH   3  23
BRANCH   8  33
ATOM     33  O   UNL     1       6.008   5.155  -2.762  0.00  0.00    -0.507 OA
ATOM     34  H   UNL     1       5.557   5.163  -3.617  0.00  0.00    +0.292 HD
ENDBRANCH   8  33
TORSDOF 6
