REMARK  Name = ZINC11558183
REMARK  10 active torsions:
REMARK  status: ('A' for Active; 'I' for Inactive)
REMARK    1  A    between atoms: C_1  and  C_2
REMARK    2  A    between atoms: C_2  and  C_3
REMARK    3  A    between atoms: C_2  and  C_4
REMARK    4  A    between atoms: C_4  and  C_6
REMARK    5  A    between atoms: C_4  and  N_21
REMARK    6  A    between atoms: N_8  and  C_9
REMARK    7  A    between atoms: C_9  and  C_10
REMARK    8  A    between atoms: C_10  and  C_12
REMARK    9  A    between atoms: C_10  and  N_57
REMARK   10  A    between atoms: C_22  and  C_24
REMARK                            x       y       z     vdW  Elec       q    Type
REMARK                         _______ _______ _______ _____ _____    ______ ____
ROOT
ATOM      1  C   UNL     1      -3.554  -2.434   0.597  0.00  0.00    +0.234 C 
ATOM      2  O   UNL     1      -2.475  -2.692   1.087  0.00  0.00    -0.274 OA
ATOM      3  N   UNL     1      -4.560  -3.327   0.676  0.00  0.00    -0.315 N 
ATOM      4  H   UNL     1      -5.423  -3.121   0.285  0.00  0.00    +0.149 HD
ENDROOT
BRANCH   1   5
ATOM      5  C   UNL     1      -3.770  -1.115  -0.099  0.00  0.00    +0.162 C 
BRANCH   5   6
ATOM      6  N   UNL     1      -2.535  -0.329  -0.050  0.00  0.00    -0.300 N 
ATOM      7  C   UNL     1      -2.588   1.015  -0.132  0.00  0.00    +0.246 C 
ATOM      8  O   UNL     1      -3.661   1.575  -0.247  0.00  0.00    -0.270 OA
ATOM      9  H   UNL     1      -1.679  -0.776   0.042  0.00  0.00    +0.150 HD
BRANCH   7  10
ATOM     10  C   UNL     1      -1.343   1.808  -0.082  0.00  0.00    +0.055 A 
ATOM     11  C   UNL     1      -0.108   1.168   0.050  0.00  0.00    +0.016 A 
ATOM     12  C   UNL     1       1.051   1.912   0.090  0.00  0.00    +0.021 A 
ATOM     13  C   UNL     1       0.994   3.294   0.006  0.00  0.00    +0.042 A 
ATOM     14  C   UNL     1      -0.226   3.937  -0.120  0.00  0.00    +0.040 A 
ATOM     15  C   UNL     1      -1.395   3.202  -0.162  0.00  0.00    +0.054 A 
ATOM     16 CL   UNL     1      -2.924   4.008  -0.320  0.00  0.00    -0.083 Cl
ATOM     17 CL   UNL     1       2.459   4.224   0.058  0.00  0.00    -0.083 Cl
ENDBRANCH   7  10
ENDBRANCH   5   6
BRANCH   5  19
ATOM     18  C   UNL     1      -4.376  -0.027  -2.265  0.00  0.00    +0.009 C 
ATOM     19  C   UNL     1      -4.157  -1.366  -1.558  0.00  0.00    +0.012 C 
ATOM     20  C   UNL     1      -3.035  -2.135  -2.258  0.00  0.00    +0.009 C 
ENDBRANCH   5  19
ENDBRANCH   1   5
BRANCH   3  21
ATOM     21  C   UNL     1      -4.350  -4.609   1.353  0.00  0.00    +0.096 C 
BRANCH  21  22
ATOM     22  C   UNL     1      -5.671  -5.380   1.406  0.00  0.00    +0.016 C 
BRANCH  22  27
ATOM     23  C   UNL     1      -5.058  -6.287   3.581  0.00  0.00    -0.078 C 
ATOM     24  C   UNL     1      -5.428  -7.568   4.371  0.00  0.00    -0.020 C 
ATOM     25  C   UNL     1      -6.763  -8.001   3.723  0.00  0.00    -0.020 C 
ATOM     26  C   UNL     1      -6.767  -7.341   2.331  0.00  0.00    -0.078 C 
ATOM     27  N   UNL     1      -5.497  -6.623   2.217  0.00  0.00    +0.387 N 
ATOM     28  H   UNL     1      -4.798  -7.224   1.766  0.00  0.00    -0.081 HD
ENDBRANCH  22  27
BRANCH  22  29
ATOM     29  C   UNL     1      -6.097  -5.743   0.007  0.00  0.00    +0.093 A 
ATOM     30  C   UNL     1      -7.021  -5.096  -0.727  0.00  0.00    +0.043 A 
ATOM     31  C   UNL     1      -7.102  -5.768  -1.968  0.00  0.00    +0.041 A 
ATOM     32  C   UNL     1      -6.229  -6.790  -1.916  0.00  0.00    +0.195 A 
ATOM     33  O   UNL     1      -5.623  -6.770  -0.717  0.00  0.00    -0.469 OA
ENDBRANCH  22  29
ENDBRANCH  21  22
ENDBRANCH   3  21
TORSDOF 8
