REMARK  Name = ZINC12630176
REMARK  3 active torsions:
REMARK  status: ('A' for Active; 'I' for Inactive)
REMARK    1  A    between atoms: C_1  and  S_2
REMARK    2  A    between atoms: S_2  and  C_3
REMARK    3  A    between atoms: C_6  and  C_9
REMARK                            x       y       z     vdW  Elec       q    Type
REMARK                         _______ _______ _______ _____ _____    ______ ____
ROOT
ATOM      1  C   UNL     1      -5.834  -1.544   0.050  0.00  0.00    +0.209 C 
ATOM      2  N   UNL     1      -6.039  -2.720   0.915  0.00  0.00    -0.294 N 
ATOM      3  C   UNL     1      -5.798  -3.977   0.428  0.00  0.00    +0.160 C 
ATOM      4  N   UNL     1      -5.388  -4.960   1.286  0.00  0.00    -0.332 N 
ATOM      5  N   UNL     1      -5.954  -4.261  -0.854  0.00  0.00    -0.302 N 
ATOM      6  C   UNL     1      -6.299  -3.259  -1.698  0.00  0.00    +0.213 A 
ATOM      7  N   UNL     1      -6.262  -1.934  -1.299  0.00  0.00    -0.286 N 
ATOM      8  C   UNL     1      -6.674  -1.162  -2.359  0.00  0.00    +0.076 A 
ATOM      9  C   UNL     1      -6.855   0.202  -2.554  0.00  0.00    +0.077 A 
ATOM     10  C   UNL     1      -7.292   0.670  -3.778  0.00  0.00    +0.164 A 
ATOM     11  C   UNL     1      -7.554  -0.215  -4.820  0.00  0.00    +0.164 A 
ATOM     12  C   UNL     1      -7.381  -1.572  -4.644  0.00  0.00    +0.079 A 
ATOM     13  C   UNL     1      -6.939  -2.060  -3.410  0.00  0.00    +0.095 A 
ATOM     14  N   UNL     1      -6.682  -3.321  -2.946  0.00  0.00    -0.212 NA
ATOM     15  O   UNL     1      -7.984   0.268  -6.023  0.00  0.00    -0.488 OA
ATOM     16  C   UNL     1      -9.295   0.837  -6.036  0.00  0.00    +0.232 C 
ATOM     17  C   UNL     1      -9.256   2.291  -5.594  0.00  0.00    +0.082 C 
ATOM     18  C   UNL     1      -8.819   2.444  -4.146  0.00  0.00    +0.232 C 
ATOM     19  O   UNL     1      -7.469   2.010  -3.974  0.00  0.00    -0.488 OA
ATOM     20  H   UNL     1      -6.343  -2.603   1.829  0.00  0.00    +0.151 HD
ATOM     21  H   UNL     1      -5.271  -4.764   2.229  0.00  0.00    +0.145 HD
ATOM     22  H   UNL     1      -5.214  -5.854   0.952  0.00  0.00    +0.145 HD
ATOM     23  H   UNL     1      -5.824  -5.164  -1.182  0.00  0.00    +0.171 HD
ENDROOT
BRANCH   1  27
ATOM     24  C   UNL     1      -1.702  -0.454   0.016  0.00  0.00    +0.008 A 
ATOM     25  C   UNL     1      -2.682   0.531   0.025  0.00  0.00    +0.015 A 
ATOM     26  C   UNL     1      -4.016   0.176   0.036  0.00  0.00    +0.008 A 
ATOM     27  C   UNL     1      -4.377  -1.159   0.038  0.00  0.00    -0.007 A 
ATOM     28  C   UNL     1      -3.404  -2.143   0.029  0.00  0.00    +0.008 A 
ATOM     29  C   UNL     1      -2.068  -1.794   0.012  0.00  0.00    +0.015 A 
BRANCH  24  31
ATOM     30  C   UNL     1      -0.022   1.810   0.012  0.00  0.00    +0.090 C 
ATOM     31  S   UNL     1       0.002  -0.004   0.002  0.00  0.00    -0.129 S 
ENDBRANCH  24  31
ENDBRANCH   1  27
TORSDOF 2
