REMARK  Name = ZINC63269946
REMARK  7 active torsions:
REMARK  status: ('A' for Active; 'I' for Inactive)
REMARK    1  A    between atoms: C_7  and  C_10
REMARK    2  A    between atoms: C_10  and  C_11
REMARK    3  A    between atoms: C_11  and  N_12
REMARK    4  A    between atoms: C_13  and  C_15
REMARK    5  A    between atoms: C_15  and  N_16
REMARK    6  A    between atoms: C_17  and  C_19
REMARK    7  A    between atoms: C_19  and  N_20
REMARK                            x       y       z     vdW  Elec       q    Type
REMARK                         _______ _______ _______ _____ _____    ______ ____
ROOT
ATOM      1  C   UNL     1      -1.752  -6.557  -2.622  0.00  0.00    +0.200 C 
ENDROOT
BRANCH   1   3
ATOM      2  N   UNL     1      -0.458  -4.798  -1.460  0.00  0.00    -0.314 N 
ATOM      3  C   UNL     1      -0.811  -5.380  -2.623  0.00  0.00    +0.230 C 
ATOM      4  O   UNL     1      -0.371  -4.957  -3.671  0.00  0.00    -0.274 OA
ATOM      5  H   UNL     1      -0.810  -5.136  -0.622  0.00  0.00    +0.149 HD
BRANCH   2   6
ATOM      6  C   UNL     1       0.457  -3.653  -1.462  0.00  0.00    +0.108 C 
BRANCH   6   7
ATOM      7  C   UNL     1       0.691  -3.186  -0.024  0.00  0.00    +0.052 C 
BRANCH   7  14
ATOM      8  C   UNL     1      -0.016   1.348   0.009  0.00  0.00    +0.001 A 
ATOM      9  C   UNL     1       1.166   2.101   0.002  0.00  0.00    +0.002 A 
ATOM     10  C   UNL     1       2.391   1.535  -0.013  0.00  0.00    +0.026 A 
ATOM     11  C   UNL     1       2.529   0.120  -0.022  0.00  0.00    +0.043 A 
ATOM     12  N   UNL     1       3.587  -0.654  -0.037  0.00  0.00    -0.380 N 
ATOM     13  C   UNL     1       3.143  -2.053  -0.041  0.00  0.00    +0.144 C 
ATOM     14  C   UNL     1       1.631  -2.008  -0.025  0.00  0.00    -0.040 C 
ATOM     15  C   UNL     1       1.295  -0.698  -0.014  0.00  0.00    -0.001 A 
ATOM     16  C   UNL     1       0.002  -0.004   0.002  0.00  0.00    +0.010 A 
ATOM     17  H   UNL     1       4.509  -0.353  -0.045  0.00  0.00    +0.160 HD
ENDBRANCH   7  14
ENDBRANCH   6   7
ENDBRANCH   2   6
ENDBRANCH   1   3
BRANCH   1  18
ATOM     18  N   UNL     1      -1.976  -7.005  -3.998  0.00  0.00    -0.305 N 
ATOM     19  C   UNL     1      -2.789  -8.052  -4.242  0.00  0.00    +0.231 C 
ATOM     20  O   UNL     1      -3.335  -8.623  -3.322  0.00  0.00    -0.274 OA
ATOM     21  H   UNL     1      -1.539  -6.548  -4.734  0.00  0.00    +0.149 HD
BRANCH  19  22
ATOM     22  C   UNL     1      -3.019  -8.513  -5.659  0.00  0.00    +0.205 C 
BRANCH  22  23
ATOM     23  N   UNL     1      -3.934  -9.657  -5.657  0.00  0.00    -0.273 N 
ATOM     24  C   UNL     1      -3.390 -11.012  -5.554  0.00  0.00    +0.214 C 
ATOM     25  N   UNL     1      -4.320 -11.879  -4.821  0.00  0.00    -0.328 N 
ATOM     26  C   UNL     1      -5.678 -11.798  -5.108  0.00  0.00    +0.040 A 
ATOM     27  C   UNL     1      -6.522 -12.885  -4.950  0.00  0.00    +0.024 A 
ATOM     28  C   UNL     1      -7.867 -12.754  -5.238  0.00  0.00    +0.002 A 
ATOM     29  C   UNL     1      -8.378 -11.544  -5.680  0.00  0.00    +0.001 A 
ATOM     30  C   UNL     1      -7.550 -10.453  -5.846  0.00  0.00    +0.015 A 
ATOM     31  C   UNL     1      -6.191 -10.572  -5.566  0.00  0.00    +0.058 A 
ATOM     32  C   UNL     1      -5.262  -9.443  -5.745  0.00  0.00    +0.250 C 
ATOM     33  O   UNL     1      -5.690  -8.329  -5.975  0.00  0.00    -0.270 OA
ATOM     34  H   UNL     1      -3.993 -12.498  -4.149  0.00  0.00    +0.148 HD
ENDBRANCH  22  23
ENDBRANCH  19  22
ENDBRANCH   1  18
TORSDOF 7
