REMARK  Name = ZINC36022555
REMARK  6 active torsions:
REMARK  status: ('A' for Active; 'I' for Inactive)
REMARK    1  A    between atoms: C_1  and  C_2
REMARK    2  A    between atoms: C_2  and  C_3
REMARK    3  A    between atoms: C_3  and  C_5
REMARK    4  A    between atoms: C_3  and  C_11
REMARK    5  A    between atoms: N_13  and  N_14
REMARK    6  A    between atoms: C_15  and  C_17
REMARK                            x       y       z     vdW  Elec       q    Type
REMARK                         _______ _______ _______ _____ _____    ______ ____
ROOT
ATOM      1  C   UNL     1      -1.414  -2.036   0.129  0.00  0.00    +0.236 C 
ATOM      2  O   UNL     1      -1.912  -2.718  -0.742  0.00  0.00    -0.274 OA
ATOM      3  N   UNL     1      -0.842  -2.622   1.199  0.00  0.00    -0.234 N 
ATOM      4  H   UNL     1      -0.444  -2.077   1.895  0.00  0.00    +0.173 HD
ENDROOT
BRANCH   3   5
ATOM      5  N   UNL     1      -0.824  -4.019   1.307  0.00  0.00    -0.230 N 
ATOM      6  C   UNL     1      -0.252  -4.605   2.377  0.00  0.00    +0.261 C 
ATOM      7  O   UNL     1       0.247  -3.922   3.250  0.00  0.00    -0.269 OA
ATOM      8  H   UNL     1      -1.222  -4.564   0.610  0.00  0.00    +0.173 HD
BRANCH   6   9
ATOM      9  C   UNL     1      -0.233  -6.078   2.491  0.00  0.00    +0.052 A 
ATOM     10  C   UNL     1      -0.801  -6.866   1.488  0.00  0.00    +0.014 A 
ATOM     11  C   UNL     1      -0.779  -8.241   1.599  0.00  0.00    +0.001 A 
ATOM     12  C   UNL     1      -0.196  -8.840   2.703  0.00  0.00    +0.001 A 
ATOM     13  C   UNL     1       0.367  -8.066   3.701  0.00  0.00    +0.016 A 
ATOM     14  C   UNL     1       0.358  -6.689   3.599  0.00  0.00    +0.030 A 
ATOM     15 BR   UNL     1       1.137  -5.633   4.961  0.00  0.00    -0.050 Br
ENDBRANCH   6   9
ENDBRANCH   3   5
BRANCH   1  16
ATOM     16  C   UNL     1      -1.433  -0.534   0.013  0.00  0.00    +0.106 C 
BRANCH  16  17
ATOM     17  C   UNL     1      -2.125  -0.137  -1.266  0.00  0.00    -0.035 A 
ATOM     18  C   UNL     1      -1.625  -0.564  -2.483  0.00  0.00    +0.004 A 
ATOM     19  C   UNL     1      -2.260  -0.200  -3.656  0.00  0.00    +0.000 A 
ATOM     20  C   UNL     1      -3.393   0.590  -3.613  0.00  0.00    +0.000 A 
ATOM     21  C   UNL     1      -3.893   1.015  -2.396  0.00  0.00    +0.000 A 
ATOM     22  C   UNL     1      -3.261   0.648  -1.223  0.00  0.00    +0.004 A 
ENDBRANCH  16  17
BRANCH  16  24
ATOM     23  C   UNL     1      -0.019   1.526   0.010  0.00  0.00    +0.005 C 
ATOM     24  C   UNL     1       0.002  -0.004   0.002  0.00  0.00    +0.014 C 
ENDBRANCH  16  24
ENDBRANCH   1  16
TORSDOF 5
