REMARK  Name = ZINC63140565
REMARK  5 active torsions:
REMARK  status: ('A' for Active; 'I' for Inactive)
REMARK    1  A    between atoms: C_1  and  O_2
REMARK    2  A    between atoms: O_2  and  C_3
REMARK    3  A    between atoms: C_6  and  C_9
REMARK    4  A    between atoms: N_28  and  C_31
REMARK    5  A    between atoms: C_31  and  C_32
REMARK                            x       y       z     vdW  Elec       q    Type
REMARK                         _______ _______ _______ _____ _____    ______ ____
ROOT
ATOM      1  C   UNL     1      -4.981  -2.629   0.035  0.00  0.00    +0.133 C 
ATOM      2  C   UNL     1      -5.382  -2.999  -1.396  0.00  0.00    +0.131 C 
ATOM      3  C   UNL     1      -6.583  -3.931  -1.288  0.00  0.00    -0.034 C 
ATOM      4  C   UNL     1      -7.551  -3.382  -2.011  0.00  0.00    -0.001 A 
ATOM      5  C   UNL     1      -8.907  -3.845  -2.345  0.00  0.00    +0.010 A 
ATOM      6  C   UNL     1      -9.653  -3.009  -3.116  0.00  0.00    +0.001 A 
ATOM      7  C   UNL     1      -9.191  -1.774  -3.581  0.00  0.00    +0.002 A 
ATOM      8  C   UNL     1      -7.956  -1.272  -3.327  0.00  0.00    +0.026 A 
ATOM      9  C   UNL     1      -7.077  -2.063  -2.531  0.00  0.00    +0.043 A 
ATOM     10  N   UNL     1      -5.832  -1.833  -2.157  0.00  0.00    -0.375 N 
ATOM     11  C   UNL     1      -6.570  -5.167  -0.422  0.00  0.00    +0.065 C 
ATOM     12  C   UNL     1      -6.063  -4.728   0.964  0.00  0.00    +0.167 C 
ATOM     13  N   UNL     1      -4.882  -3.883   0.815  0.00  0.00    -0.279 N 
ATOM     14  C   UNL     1      -3.698  -4.194   1.354  0.00  0.00    +0.234 C 
ATOM     15  O   UNL     1      -2.772  -3.437   1.155  0.00  0.00    -0.274 OA
ATOM     16  C   UNL     1      -3.435  -5.407   2.183  0.00  0.00    +0.204 C 
ATOM     17  N   UNL     1      -4.625  -6.225   2.353  0.00  0.00    -0.287 N 
ATOM     18  C   UNL     1      -5.804  -5.932   1.809  0.00  0.00    +0.237 C 
ATOM     19  O   UNL     1      -6.729  -6.688   2.017  0.00  0.00    -0.274 OA
ATOM     20  H   UNL     1      -5.306  -1.039  -2.343  0.00  0.00    +0.160 HD
ENDROOT
BRANCH   1  24
ATOM     21  C   UNL     1      -1.200  -0.638   0.010  0.00  0.00    +0.120 A 
ATOM     22  C   UNL     1      -2.154  -0.305   0.960  0.00  0.00    +0.046 A 
ATOM     23  C   UNL     1      -3.376  -0.950   0.966  0.00  0.00    +0.009 A 
ATOM     24  C   UNL     1      -3.648  -1.927   0.026  0.00  0.00    -0.025 A 
ATOM     25  C   UNL     1      -2.698  -2.260  -0.922  0.00  0.00    +0.009 A 
ATOM     26  C   UNL     1      -1.478  -1.614  -0.936  0.00  0.00    +0.046 A 
BRANCH  21  28
ATOM     27  C   UNL     1       0.218   0.990   1.005  0.00  0.00    +0.277 C 
ATOM     28  O   UNL     1       0.002  -0.004   0.002  0.00  0.00    -0.495 OA
ENDBRANCH  21  28
ENDBRANCH   1  24
BRANCH  17  29
ATOM     29  C   UNL     1      -4.519  -7.441   3.163  0.00  0.00    +0.143 C 
BRANCH  29  30
ATOM     30  C   UNL     1      -4.829  -7.114   4.602  0.00  0.00    -0.029 A 
ATOM     31  C   UNL     1      -3.813  -6.727   5.456  0.00  0.00    +0.007 A 
ATOM     32  C   UNL     1      -4.096  -6.428   6.776  0.00  0.00    +0.022 A 
ATOM     33  C   UNL     1      -5.395  -6.515   7.242  0.00  0.00    +0.059 A 
ATOM     34  C   UNL     1      -6.412  -6.902   6.386  0.00  0.00    +0.060 A 
ATOM     35  C   UNL     1      -6.128  -7.197   5.064  0.00  0.00    +0.026 A 
ATOM     36 CL   UNL     1      -8.044  -7.013   6.969  0.00  0.00    -0.082 Cl
ATOM     37 CL   UNL     1      -5.751  -6.140   8.899  0.00  0.00    -0.082 Cl
ENDBRANCH  29  30
ENDBRANCH  17  29
TORSDOF 4
