REMARK  Name = ZINC21084553
REMARK  7 active torsions:
REMARK  status: ('A' for Active; 'I' for Inactive)
REMARK    1  A    between atoms: C_4  and  N_7
REMARK    2  A    between atoms: N_7  and  C_8
REMARK    3  A    between atoms: C_14  and  C_16
REMARK    4  A    between atoms: C_16  and  C_17
REMARK    5  A    between atoms: C_17  and  S_18
REMARK    6  A    between atoms: S_18  and  C_19
REMARK    7  A    between atoms: N_24  and  N_25
REMARK                            x       y       z     vdW  Elec       q    Type
REMARK                         _______ _______ _______ _____ _____    ______ ____
ROOT
ATOM      1  C   UNL     1       6.086   3.317  -0.146  0.00  0.00    +0.087 C 
ENDROOT
BRANCH   1   2
ATOM      2  C   UNL     1       7.551   3.760  -0.155  0.00  0.00    +0.108 C 
BRANCH   2   4
ATOM      3  N   UNL     1       8.814   5.882  -0.026  0.00  0.00    -0.240 N 
ATOM      4  C   UNL     1       7.627   5.249   0.059  0.00  0.00    +0.225 C 
ATOM      5  O   UNL     1       6.621   5.879   0.308  0.00  0.00    -0.275 OA
BRANCH   3   9
ATOM      6  C   UNL     1      12.216   3.784  -1.206  0.00  0.00    +0.000 A 
ATOM      7  C   UNL     1      11.669   4.739  -2.043  0.00  0.00    +0.002 A 
ATOM      8  C   UNL     1      10.542   5.436  -1.655  0.00  0.00    +0.024 A 
ATOM      9  C   UNL     1       9.957   5.177  -0.423  0.00  0.00    +0.041 A 
ATOM     10  C   UNL     1      10.511   4.221   0.418  0.00  0.00    +0.024 A 
ATOM     11  C   UNL     1      11.635   3.523   0.022  0.00  0.00    +0.002 A 
ENDBRANCH   3   9
BRANCH   3  12
ATOM     12  C   UNL     1       8.904   7.245   0.282  0.00  0.00    +0.041 A 
ATOM     13  C   UNL     1       8.179   8.174  -0.452  0.00  0.00    +0.024 A 
ATOM     14  C   UNL     1       8.266   9.517  -0.143  0.00  0.00    +0.002 A 
ATOM     15  C   UNL     1       9.084   9.938   0.890  0.00  0.00    +0.000 A 
ATOM     16  C   UNL     1       9.812   9.016   1.620  0.00  0.00    +0.002 A 
ATOM     17  C   UNL     1       9.724   7.671   1.319  0.00  0.00    +0.024 A 
ENDBRANCH   3  12
ENDBRANCH   2   4
ENDBRANCH   1   2
BRANCH   1  18
ATOM     18  S   UNL     1       5.994   1.524  -0.403  0.00  0.00    -0.084 S 
BRANCH  18  19
ATOM     19  C   UNL     1       4.267   1.177  -0.367  0.00  0.00    +0.210 A 
ATOM     20  N   UNL     1       3.692  -0.054  -0.518  0.00  0.00    -0.186 NA
ATOM     21  C   UNL     1       2.337   0.100  -0.428  0.00  0.00    +0.232 A 
ATOM     22  N   UNL     1       2.085   1.371  -0.235  0.00  0.00    -0.245 N 
ATOM     23  N   UNL     1       3.308   2.053  -0.191  0.00  0.00    -0.144 NA
ATOM     24  N   UNL     1       1.393  -0.913  -0.529  0.00  0.00    -0.205 N 
ATOM     25  H   UNL     1       1.716  -1.952  -0.693  0.00  0.00    +0.177 HD
ATOM     26  H   UNL     1       1.045   1.717  -0.140  0.00  0.00    +0.192 HD
BRANCH  24  27
ATOM     27  N   UNL     1       0.028  -0.613  -0.423  0.00  0.00    -0.189 NA
ATOM     28  C   UNL     1      -0.845  -1.532  -0.598  0.00  0.00    +0.037 C 
ATOM     29  C   UNL     1      -0.428  -2.975  -0.774  0.00  0.00    +0.052 C 
ATOM     30  C   UNL     1      -1.231  -3.834   0.216  0.00  0.00    +0.006 C 
ATOM     31  C   UNL     1      -2.725  -3.581   0.009  0.00  0.00    +0.001 C 
ATOM     32  C   UNL     1      -3.055  -2.124   0.339  0.00  0.00    +0.006 C 
ATOM     33  C   UNL     1      -2.321  -1.202  -0.640  0.00  0.00    +0.052 C 
ENDBRANCH  24  27
ENDBRANCH  18  19
ENDBRANCH   1  18
TORSDOF 7
