REMARK  Name = ZINC03656948
REMARK  9 active torsions:
REMARK  status: ('A' for Active; 'I' for Inactive)
REMARK    1  A    between atoms: C_1  and  O_2
REMARK    2  A    between atoms: O_2  and  C_3
REMARK    3  A    between atoms: C_6  and  O_28
REMARK    4  A    between atoms: C_7  and  C_9
REMARK    5  A    between atoms: C_18  and  C_26
REMARK    6  A    between atoms: C_19  and  N_25
REMARK    7  A    between atoms: C_20  and  C_21
REMARK    8  A    between atoms: C_20  and  C_23
REMARK    9  A    between atoms: O_28  and  C_29
REMARK                            x       y       z     vdW  Elec       q    Type
REMARK                         _______ _______ _______ _____ _____    ______ ____
ROOT
ATOM      1  C   UNL     1      -0.013   1.086   0.008  0.00  0.00    +0.070 C 
ATOM      2  C   UNL     1       1.297   1.859   0.172  0.00  0.00    +0.030 C 
ATOM      3  C   UNL     1       2.091   1.901  -1.112  0.00  0.00    +0.009 C 
ATOM      4  C   UNL     1       3.201   0.852  -1.129  0.00  0.00    +0.005 C 
ATOM      5  C   UNL     1       4.132   1.113   0.063  0.00  0.00    +0.027 C 
ATOM      6  C   UNL     1       3.317   0.971   1.322  0.00  0.00    -0.022 C 
ATOM      7  C   UNL     1       2.038   1.289   1.345  0.00  0.00    -0.029 C 
ATOM      8  C   UNL     1       1.248   1.029   2.577  0.00  0.00    +0.074 C 
ATOM      9  C   UNL     1      -0.107   1.028   2.511  0.00  0.00    +0.054 C 
ATOM     10  C   UNL     1      -0.875   1.301   1.253  0.00  0.00    +0.188 C 
ENDROOT
BRANCH   1  15
ATOM     11  C   UNL     1      -1.657   3.401  -2.486  0.00  0.00    +0.121 A 
ATOM     12  C   UNL     1      -2.095   2.505  -3.449  0.00  0.00    +0.049 A 
ATOM     13  C   UNL     1      -1.859   1.153  -3.293  0.00  0.00    +0.049 A 
ATOM     14  C   UNL     1      -1.184   0.691  -2.173  0.00  0.00    +0.124 A 
ATOM     15  C   UNL     1      -0.746   1.587  -1.209  0.00  0.00    +0.004 A 
ATOM     16  C   UNL     1      -0.987   2.939  -1.363  0.00  0.00    +0.053 A 
BRANCH  11  18
ATOM     17  C   UNL     1      -2.590   5.137  -3.817  0.00  0.00    +0.277 C 
ATOM     18  O   UNL     1      -1.889   4.732  -2.639  0.00  0.00    -0.495 OA
ENDBRANCH  11  18
BRANCH  14  19
ATOM     19  O   UNL     1      -0.952  -0.640  -2.019  0.00  0.00    -0.495 OA
ATOM     20  C   UNL     1      -1.431  -1.505  -3.051  0.00  0.00    +0.277 C 
ENDBRANCH  14  19
ENDBRANCH   1  15
BRANCH   9  21
ATOM     21  N   UNL     1      -0.810   0.764   3.653  0.00  0.00    -0.358 N 
ATOM     22  H   UNL     1      -1.910   0.756   3.632  0.00  0.00    +0.142 HD
ATOM     23  H   UNL     1      -0.276   0.559   4.592  0.00  0.00    +0.142 HD
ENDBRANCH   9  21
BRANCH  10  24
ATOM     24  C   UNL     1      -1.350   2.694   1.272  0.00  0.00    +0.091 C 
ATOM     25  N   UNL     1      -1.717   3.769   1.288  0.00  0.00    -0.194 NA
ENDBRANCH  10  24
BRANCH  10  26
ATOM     26  C   UNL     1      -2.037   0.399   1.194  0.00  0.00    +0.091 C 
ATOM     27  N   UNL     1      -2.933  -0.297   1.149  0.00  0.00    -0.194 NA
ENDBRANCH  10  26
BRANCH   8  28
ATOM     28  C   UNL     1       1.911   0.783   3.822  0.00  0.00    +0.101 C 
ATOM     29  N   UNL     1       2.437   0.588   4.810  0.00  0.00    -0.191 NA
ENDBRANCH   8  28
TORSDOF 7
