REMARK  Name = ZINC39691315
REMARK  11 active torsions:
REMARK  status: ('A' for Active; 'I' for Inactive)
REMARK    1  A    between atoms: C_1  and  C_2
REMARK    2  A    between atoms: C_2  and  C_3
REMARK    3  A    between atoms: C_3  and  C_4
REMARK    4  A    between atoms: C_4  and  C_6
REMARK    5  A    between atoms: C_4  and  C_7
REMARK    6  A    between atoms: C_11  and  C_20
REMARK    7  A    between atoms: N_22  and  C_23
REMARK    8  A    between atoms: C_23  and  C_24
REMARK    9  A    between atoms: C_24  and  N_25
REMARK   10  A    between atoms: C_26  and  C_28
REMARK   11  A    between atoms: C_28  and  C_29
REMARK                            x       y       z     vdW  Elec       q    Type
REMARK                         _______ _______ _______ _____ _____    ______ ____
ROOT
ATOM      1  C   UNL     1       0.836  -7.402  -2.395  0.00  0.00    +0.218 C 
ATOM      2  O   UNL     1       1.917  -7.599  -1.883  0.00  0.00    -0.275 OA
ATOM      3  N   UNL     1      -0.032  -8.421  -2.552  0.00  0.00    -0.314 N 
ATOM      4  H   UNL     1      -0.896  -8.264  -2.962  0.00  0.00    +0.149 HD
ENDROOT
BRANCH   1   9
ATOM      5  C   UNL     1       1.432  -2.532  -2.693  0.00  0.00    +0.218 C 
ATOM      6  O   UNL     1       1.761  -1.758  -3.567  0.00  0.00    -0.275 OA
ATOM      7  N   UNL     1       1.505  -3.861  -2.906  0.00  0.00    -0.300 N 
ATOM      8  C   UNL     1       1.145  -4.952  -1.970  0.00  0.00    +0.121 C 
ATOM      9  C   UNL     1       0.462  -6.017  -2.857  0.00  0.00    +0.100 C 
ATOM     10  C   UNL     1       1.005  -5.756  -4.272  0.00  0.00    -0.004 C 
ATOM     11  C   UNL     1       1.958  -4.561  -4.131  0.00  0.00    +0.115 C 
ATOM     12  C   UNL     1      -0.138  -5.404  -5.220  0.00  0.00    -0.010 C 
ATOM     13  C   UNL     1       0.420  -5.205  -6.632  0.00  0.00    -0.082 C 
ATOM     14  N   UNL     1       1.087  -6.436  -7.074  0.00  0.00    +0.379 N 
ATOM     15  C   UNL     1       2.241  -6.717  -6.212  0.00  0.00    -0.082 C 
ATOM     16  C   UNL     1       1.761  -6.979  -4.782  0.00  0.00    -0.010 C 
ATOM     17  H   UNL     1       0.437  -7.206  -7.025  0.00  0.00    -0.086 HD
ATOM     18  H   UNL     1       1.400  -6.324  -8.026  0.00  0.00    -0.086 HD
BRANCH   5  19
ATOM     19  C   UNL     1       0.942  -2.007  -1.368  0.00  0.00    +0.072 C 
ATOM     20  C   UNL     1       1.856  -2.511  -0.250  0.00  0.00    +0.017 C 
BRANCH  19  21
ATOM     21  C   UNL     1       0.956  -0.477  -1.389  0.00  0.00    +0.012 C 
BRANCH  21  23
ATOM     22  C   UNL     1       0.357   1.586  -0.113  0.00  0.00    +0.004 C 
ATOM     23  C   UNL     1       0.342   0.056  -0.093  0.00  0.00    -0.003 C 
ENDBRANCH  21  23
ENDBRANCH  19  21
ENDBRANCH   5  19
ENDBRANCH   1   9
BRANCH   3  24
ATOM     24  C   UNL     1       0.332  -9.768  -2.104  0.00  0.00    +0.123 C 
BRANCH  24  25
ATOM     25  C   UNL     1      -0.820 -10.731  -2.397  0.00  0.00    +0.123 C 
BRANCH  25  26
ATOM     26  N   UNL     1      -0.456 -12.078  -1.948  0.00  0.00    -0.314 N 
ATOM     27  C   UNL     1      -1.324 -13.098  -2.105  0.00  0.00    +0.217 C 
ATOM     28  O   UNL     1      -2.405 -12.900  -2.618  0.00  0.00    -0.275 OA
ATOM     29  H   UNL     1       0.408 -12.236  -1.538  0.00  0.00    +0.149 HD
BRANCH  27  30
ATOM     30  C   UNL     1      -0.950 -14.483  -1.644  0.00  0.00    +0.131 C 
BRANCH  30  31
ATOM     31  C   UNL     1      -2.084 -15.431  -1.932  0.00  0.00    -0.031 A 
ATOM     32  C   UNL     1      -3.007 -15.708  -0.970  0.00  0.00    +0.005 A 
ATOM     33  C   UNL     1      -4.062 -16.582  -1.218  0.00  0.00    +0.001 A 
ATOM     34  C   UNL     1      -4.202 -17.187  -2.430  0.00  0.00    +0.008 A 
ATOM     35  C   UNL     1      -3.269 -16.926  -3.448  0.00  0.00    -0.018 A 
ATOM     36  C   UNL     1      -2.199 -16.031  -3.198  0.00  0.00    -0.014 A 
ATOM     37  C   UNL     1      -1.270 -15.767  -4.218  0.00  0.00    +0.009 A 
ATOM     38  C   UNL     1      -1.413 -16.366  -5.431  0.00  0.00    +0.001 A 
ATOM     39  C   UNL     1      -2.469 -17.241  -5.680  0.00  0.00    +0.001 A 
ATOM     40  C   UNL     1      -3.380 -17.531  -4.712  0.00  0.00    +0.008 A 
ENDBRANCH  30  31
ENDBRANCH  27  30
ENDBRANCH  25  26
ENDBRANCH  24  25
ENDBRANCH   3  24
TORSDOF 9
