REMARK  Name = ZINC24626245
REMARK  8 active torsions:
REMARK  status: ('A' for Active; 'I' for Inactive)
REMARK    1  A    between atoms: C_1  and  C_2
REMARK    2  A    between atoms: C_2  and  C_4
REMARK    3  A    between atoms: C_2  and  N_11
REMARK    4  A    between atoms: C_12  and  C_14
REMARK    5  A    between atoms: C_14  and  C_16
REMARK    6  A    between atoms: C_14  and  N_27
REMARK    7  A    between atoms: C_16  and  C_17
REMARK    8  A    between atoms: C_28  and  C_30
REMARK                            x       y       z     vdW  Elec       q    Type
REMARK                         _______ _______ _______ _____ _____    ______ ____
ROOT
ATOM      1  C   UNL     1       4.378   0.902   0.705  0.00  0.00    +0.163 C 
ENDROOT
BRANCH   1   3
ATOM      2  N   UNL     1       6.234  -0.691   1.069  0.00  0.00    -0.307 N 
ATOM      3  C   UNL     1       5.828   0.590   0.969  0.00  0.00    +0.234 C 
ATOM      4  O   UNL     1       6.630   1.492   1.091  0.00  0.00    -0.274 OA
ATOM      5  H   UNL     1       5.507  -1.509   0.959  0.00  0.00    +0.149 HD
BRANCH   2   7
ATOM      6  C   UNL     1       7.899  -0.998   2.834  0.00  0.00    +0.033 C 
ATOM      7  C   UNL     1       7.644  -0.995   1.326  0.00  0.00    +0.101 C 
BRANCH   7   8
ATOM      8  C   UNL     1       7.978  -2.349   0.756  0.00  0.00    -0.014 A 
ATOM      9  C   UNL     1       6.990  -3.307   0.626  0.00  0.00    +0.006 A 
ATOM     10  C   UNL     1       7.295  -4.548   0.100  0.00  0.00    +0.000 A 
ATOM     11  C   UNL     1       8.591  -4.836  -0.287  0.00  0.00    +0.001 A 
ATOM     12  C   UNL     1       9.580  -3.881  -0.153  0.00  0.00    +0.015 A 
ATOM     13  C   UNL     1       9.274  -2.636   0.369  0.00  0.00    +0.023 A 
ATOM     14 BR   UNL     1      10.628  -1.329   0.554  0.00  0.00    -0.050 Br
ENDBRANCH   7   8
ENDBRANCH   2   7
ENDBRANCH   1   3
BRANCH   1  15
ATOM     15  N   UNL     1       4.095   2.283   1.104  0.00  0.00    -0.299 N 
ATOM     16  C   UNL     1       4.758   3.302   0.522  0.00  0.00    +0.251 C 
ATOM     17  O   UNL     1       5.592   3.075  -0.335  0.00  0.00    -0.270 OA
ATOM     18  H   UNL     1       3.341   2.489   1.878  0.00  0.00    +0.150 HD
BRANCH  16  19
ATOM     19  C   UNL     1       4.475   4.684   0.921  0.00  0.00    +0.074 A 
ATOM     20  C   UNL     1       5.038   5.861   0.454  0.00  0.00    +0.021 A 
ATOM     21  C   UNL     1       4.585   7.033   1.006  0.00  0.00    +0.008 A 
ATOM     22  C   UNL     1       3.624   6.987   1.966  0.00  0.00    +0.046 A 
ATOM     23  S   UNL     1       3.311   5.289   2.130  0.00  0.00    -0.092 S 
ENDBRANCH  16  19
ENDBRANCH   1  15
BRANCH   1  24
ATOM     24  C   UNL     1       4.082   0.732  -0.786  0.00  0.00    +0.069 C 
BRANCH  24  25
ATOM     25  C   UNL     1       2.608   0.924  -1.032  0.00  0.00    -0.020 A 
ATOM     26  C   UNL     1       1.677  -0.042  -1.101  0.00  0.00    +0.087 A 
ATOM     27  N   UNL     1       0.448   0.511  -1.335  0.00  0.00    -0.360 N 
ATOM     28  H   UNL     1      -0.438  -0.135  -1.423  0.00  0.00    +0.165 HD
ATOM     29  C   UNL     1       0.560   1.881  -1.426  0.00  0.00    +0.047 A 
ATOM     30  C   UNL     1       1.918   2.199  -1.239  0.00  0.00    +0.003 A 
ATOM     31  C   UNL     1       2.333   3.531  -1.279  0.00  0.00    +0.010 A 
ATOM     32  C   UNL     1       1.416   4.521  -1.499  0.00  0.00    +0.001 A 
ATOM     33  C   UNL     1       0.075   4.212  -1.683  0.00  0.00    +0.002 A 
ATOM     34  C   UNL     1      -0.356   2.904  -1.643  0.00  0.00    +0.026 A 
ENDBRANCH  24  25
ENDBRANCH   1  24
TORSDOF 7
