REMARK  Name = ZINC35382598
REMARK  7 active torsions:
REMARK  status: ('A' for Active; 'I' for Inactive)
REMARK    1  A    between atoms: C_1  and  C_2
REMARK    2  A    between atoms: C_2  and  O_3
REMARK    3  A    between atoms: O_3  and  C_4
REMARK    4  A    between atoms: C_9  and  C_10
REMARK    5  A    between atoms: C_10  and  C_12
REMARK    6  A    between atoms: C_10  and  N_20
REMARK    7  A    between atoms: C_15  and  N_17
REMARK                            x       y       z     vdW  Elec       q    Type
REMARK                         _______ _______ _______ _____ _____    ______ ____
ROOT
ATOM      1  C   UNL     1       1.989  -1.396  -3.491  0.00  0.00    +0.027 C 
ENDROOT
BRANCH   1   7
ATOM      2  C   UNL     1       0.777  -1.810  -1.336  0.00  0.00    +0.123 A 
ATOM      3  C   UNL     1       0.243  -2.669  -0.386  0.00  0.00    +0.047 A 
ATOM      4  C   UNL     1       0.351  -4.035  -0.553  0.00  0.00    +0.019 A 
ATOM      5  C   UNL     1       0.992  -4.549  -1.667  0.00  0.00    +0.018 A 
ATOM      6  C   UNL     1       1.526  -3.694  -2.615  0.00  0.00    +0.021 A 
ATOM      7  C   UNL     1       1.414  -2.327  -2.455  0.00  0.00    -0.012 A 
ATOM      8 BR   UNL     1       1.140  -6.420  -1.893  0.00  0.00    -0.050 Br
BRANCH   2   9
ATOM      9  O   UNL     1       0.671  -0.465  -1.174  0.00  0.00    -0.492 OA
BRANCH   9  11
ATOM     10  C   UNL     1      -0.019   1.526   0.010  0.00  0.00    +0.048 C 
ATOM     11  C   UNL     1       0.002  -0.004   0.002  0.00  0.00    +0.225 C 
ENDBRANCH   9  11
ENDBRANCH   2   9
ENDBRANCH   1   7
BRANCH   1  12
ATOM     12  C   UNL     1       0.886  -0.906  -4.393  0.00  0.00    +0.098 A 
ATOM     13  C   UNL     1       0.274   0.289  -4.309  0.00  0.00    +0.046 A 
ATOM     14  C   UNL     1      -0.690   0.330  -5.343  0.00  0.00    +0.075 A 
ATOM     15  C   UNL     1      -0.609  -0.843  -5.997  0.00  0.00    +0.280 A 
ATOM     16  O   UNL     1       0.351  -1.585  -5.421  0.00  0.00    -0.440 OA
BRANCH  15  17
ATOM     17  N   UNL     1      -1.434  -1.244  -7.159  0.00  0.00    +0.093 N 
ATOM     18  O   UNL     1      -2.269  -0.488  -7.598  0.00  0.00    -0.123 OA
ATOM     19  O   UNL     1      -1.273  -2.329  -7.668  0.00  0.00    -0.123 OA
ENDBRANCH  15  17
ENDBRANCH   1  12
BRANCH   1  20
ATOM     20  N   UNL     1       2.992  -2.114  -4.290  0.00  0.00    +0.387 N 
ATOM     21  H   UNL     1       3.731  -2.442  -3.687  0.00  0.00    -0.089 HD
ATOM     22  H   UNL     1       2.557  -2.900  -4.748  0.00  0.00    -0.089 HD
ATOM     23  H   UNL     1       3.377  -1.491  -4.984  0.00  0.00    -0.089 HD
ENDBRANCH   1  20
TORSDOF 6
