REMARK  Name = ZINC13961002
REMARK  9 active torsions:
REMARK  status: ('A' for Active; 'I' for Inactive)
REMARK    1  A    between atoms: C_1  and  C_2
REMARK    2  A    between atoms: C_3  and  C_22
REMARK    3  A    between atoms: C_6  and  O_20
REMARK    4  A    between atoms: C_11  and  C_13
REMARK    5  A    between atoms: O_20  and  C_21
REMARK    6  A    between atoms: C_22  and  C_23
REMARK    7  A    between atoms: C_23  and  O_25
REMARK    8  A    between atoms: O_25  and  N_26
REMARK    9  A    between atoms: C_27  and  C_28
REMARK                            x       y       z     vdW  Elec       q    Type
REMARK                         _______ _______ _______ _____ _____    ______ ____
ROOT
ATOM      1  C   UNL     1      -0.018   1.503   0.010  0.00  0.00    +0.064 C 
ATOM      2  C   UNL     1       0.002  -0.004   0.002  0.00  0.00    +0.028 A 
ATOM      3  C   UNL     1       0.007  -0.768  -1.099  0.00  0.00    -0.008 A 
ATOM      4  C   UNL     1       0.029  -2.166  -0.657  0.00  0.00    +0.008 A 
ATOM      5  C   UNL     1       0.043  -3.392  -1.324  0.00  0.00    +0.056 A 
ATOM      6  C   UNL     1       0.062  -4.566  -0.596  0.00  0.00    +0.121 A 
ATOM      7  C   UNL     1       0.069  -4.527   0.795  0.00  0.00    +0.048 A 
ATOM      8  C   UNL     1       0.055  -3.323   1.464  0.00  0.00    +0.030 A 
ATOM      9  C   UNL     1       0.036  -2.132   0.748  0.00  0.00    +0.057 A 
ATOM     10  N   UNL     1       0.024  -0.799   1.122  0.00  0.00    -0.280 N 
ATOM     11  C   UNL     1       0.030  -0.349   2.393  0.00  0.00    +0.263 C 
ATOM     12  O   UNL     1      -1.017  -0.075   2.945  0.00  0.00    -0.267 OA
ENDROOT
BRANCH  11  13
ATOM     13  C   UNL     1       1.308  -0.190   3.114  0.00  0.00    +0.040 A 
ATOM     14  C   UNL     1       2.519  -0.399   2.449  0.00  0.00    +0.015 A 
ATOM     15  C   UNL     1       3.710  -0.248   3.128  0.00  0.00    +0.021 A 
ATOM     16  C   UNL     1       3.707   0.108   4.466  0.00  0.00    +0.041 A 
ATOM     17  C   UNL     1       2.510   0.316   5.131  0.00  0.00    +0.021 A 
ATOM     18  C   UNL     1       1.312   0.175   4.462  0.00  0.00    +0.015 A 
ATOM     19 CL   UNL     1       5.210   0.295   5.314  0.00  0.00    -0.084 Cl
ENDBRANCH  11  13
BRANCH   6  20
ATOM     20  O   UNL     1       0.075  -5.763  -1.241  0.00  0.00    -0.495 OA
ATOM     21  C   UNL     1       0.095  -6.938  -0.428  0.00  0.00    +0.277 C 
ENDBRANCH   6  20
BRANCH   3  22
ATOM     22  C   UNL     1      -0.007  -0.281  -2.526  0.00  0.00    +0.160 C 
BRANCH  22  23
ATOM     23  C   UNL     1       1.409  -0.099  -3.009  0.00  0.00    +0.340 C 
ATOM     24  O   UNL     1       2.338  -0.341  -2.268  0.00  0.00    -0.248 OA
BRANCH  23  25
ATOM     25  O   UNL     1       1.641   0.330  -4.257  0.00  0.00    -0.315 OA
BRANCH  25  26
ATOM     26  N   UNL     1       3.015   0.456  -4.577  0.00  0.00    -0.058 NA
ATOM     27  C   UNL     1       3.375   0.865  -5.763  0.00  0.00    +0.170 C 
ATOM     28  N   UNL     1       2.413   1.176  -6.709  0.00  0.00    -0.340 N 
ATOM     29  H   UNL     1       1.472   1.090  -6.490  0.00  0.00    +0.144 HD
ATOM     30  H   UNL     1       2.680   1.481  -7.591  0.00  0.00    +0.144 HD
BRANCH  27  31
ATOM     31  C   UNL     1       4.802   0.996  -6.095  0.00  0.00    +0.055 A 
ATOM     32  C   UNL     1       5.383   1.409  -7.269  0.00  0.00    +0.019 A 
ATOM     33  C   UNL     1       6.761   1.431  -7.286  0.00  0.00    +0.008 A 
ATOM     34  C   UNL     1       7.436   1.053  -6.176  0.00  0.00    +0.046 A 
ATOM     35  S   UNL     1       6.227   0.666  -5.076  0.00  0.00    -0.094 S 
ENDBRANCH  27  31
ENDBRANCH  25  26
ENDBRANCH  23  25
ENDBRANCH  22  23
ENDBRANCH   3  22
TORSDOF 7
