REMARK  Name = ZINC03633224
REMARK  7 active torsions:
REMARK  status: ('A' for Active; 'I' for Inactive)
REMARK    1  A    between atoms: C_1  and  C_2
REMARK    2  A    between atoms: N_5  and  C_8
REMARK    3  A    between atoms: C_8  and  C_9
REMARK    4  A    between atoms: C_10  and  C_20
REMARK    5  A    between atoms: N_22  and  N_23
REMARK    6  A    between atoms: C_24  and  C_25
REMARK    7  A    between atoms: C_30  and  O_31
REMARK                            x       y       z     vdW  Elec       q    Type
REMARK                         _______ _______ _______ _____ _____    ______ ____
ROOT
ATOM      1  C   UNL     1      -0.143  -4.380   2.730  0.00  0.00    +0.063 A 
ATOM      2  C   UNL     1       1.172  -4.669   2.963  0.00  0.00    +0.170 A 
ATOM      3  N   UNL     1       1.310  -5.010   4.256  0.00  0.00    -0.124 NA
ATOM      4  N   UNL     1       0.165  -4.952   4.843  0.00  0.00    -0.058 NA
ATOM      5  N   UNL     1      -0.793  -4.548   3.903  0.00  0.00    -0.194 N 
ATOM      6  C   UNL     1      -2.160  -4.356   4.134  0.00  0.00    +0.240 A 
ATOM      7  C   UNL     1      -2.847  -4.537   5.416  0.00  0.00    +0.206 A 
ATOM      8  N   UNL     1      -4.112  -4.268   5.246  0.00  0.00    -0.032 NA
ATOM      9  O   UNL     1      -4.300  -3.911   3.888  0.00  0.00    -0.239 OA
ATOM     10  N   UNL     1      -3.038  -3.981   3.248  0.00  0.00    -0.027 NA
ATOM     11  N   UNL     1      -2.252  -4.929   6.610  0.00  0.00    -0.337 N 
ATOM     12  H   UNL     1      -1.299  -5.109   6.641  0.00  0.00    +0.144 HD
ATOM     13  H   UNL     1      -2.789  -5.023   7.412  0.00  0.00    +0.144 HD
ENDROOT
BRANCH   2  14
ATOM     14  C   UNL     1       2.256  -4.616   1.965  0.00  0.00    +0.285 C 
ATOM     15  O   UNL     1       2.012  -4.293   0.818  0.00  0.00    -0.267 OA
ATOM     16  N   UNL     1       3.518  -4.926   2.323  0.00  0.00    -0.202 N 
ATOM     17  H   UNL     1       3.713  -5.184   3.238  0.00  0.00    +0.178 HD
BRANCH  16  18
ATOM     18  N   UNL     1       4.548  -4.876   1.375  0.00  0.00    -0.187 NA
ATOM     19  C   UNL     1       5.763  -5.174   1.720  0.00  0.00    +0.142 C 
BRANCH  19  20
ATOM     20  C   UNL     1       6.847  -5.122   0.723  0.00  0.00    +0.037 A 
ATOM     21  C   UNL     1       8.155  -5.447   1.089  0.00  0.00    +0.033 A 
ATOM     22  C   UNL     1       9.164  -5.396   0.150  0.00  0.00    +0.042 A 
ATOM     23  C   UNL     1       8.886  -5.021  -1.155  0.00  0.00    +0.023 A 
ATOM     24  C   UNL     1       7.596  -4.697  -1.528  0.00  0.00    +0.047 A 
ATOM     25  C   UNL     1       6.569  -4.750  -0.600  0.00  0.00    +0.126 A 
ATOM     26 CL   UNL     1      10.790  -5.801   0.605  0.00  0.00    -0.084 Cl
BRANCH  25  27
ATOM     27  O   UNL     1       5.300  -4.436  -0.968  0.00  0.00    -0.506 OA
ATOM     28  H   UNL     1       5.081  -3.499  -0.868  0.00  0.00    +0.292 HD
ENDBRANCH  25  27
ENDBRANCH  19  20
ENDBRANCH  16  18
ENDBRANCH   2  14
BRANCH   1  29
ATOM     29  C   UNL     1      -0.750  -3.952   1.419  0.00  0.00    -0.020 C 
BRANCH  29  34
ATOM     30  C   UNL     1      -0.019   1.526   0.010  0.00  0.00    +0.007 C 
ATOM     31  C   UNL     1       0.002  -0.004   0.002  0.00  0.00    -0.018 C 
ATOM     32  C   UNL     1      -1.434  -0.536   0.023  0.00  0.00    -0.016 C 
ATOM     33  C   UNL     1      -1.405  -2.064   0.095  0.00  0.00    -0.078 C 
ATOM     34  N   UNL     1      -0.707  -2.487   1.315  0.00  0.00    +0.383 N 
ATOM     35  C   UNL     1       0.691  -2.042   1.269  0.00  0.00    -0.078 C 
ATOM     36  C   UNL     1       0.743  -0.513   1.242  0.00  0.00    -0.016 C 
ATOM     37  H   UNL     1      -1.162  -2.082   2.119  0.00  0.00    -0.081 HD
ENDBRANCH  29  34
ENDBRANCH   1  29
TORSDOF 6
