REMARK  Name = ZINC17092861
REMARK  7 active torsions:
REMARK  status: ('A' for Active; 'I' for Inactive)
REMARK    1  A    between atoms: C_1  and  C_2
REMARK    2  A    between atoms: C_5  and  C_9
REMARK    3  A    between atoms: N_11  and  C_12
REMARK    4  A    between atoms: C_12  and  N_14
REMARK    5  A    between atoms: N_14  and  C_15
REMARK    6  A    between atoms: C_16  and  C_26
REMARK    7  A    between atoms: C_21  and  C_25
REMARK                            x       y       z     vdW  Elec       q    Type
REMARK                         _______ _______ _______ _____ _____    ______ ____
ROOT
ATOM      1  N   UNL     1       4.609   0.897   4.419  0.00  0.00    -0.291 N 
ATOM      2  H   UNL     1       4.390   0.660   5.334  0.00  0.00    +0.154 HD
ENDROOT
BRANCH   1   3
ATOM      3  C   UNL     1       3.603   1.019   3.475  0.00  0.00    +0.084 A 
ATOM      4  C   UNL     1       2.236   0.845   3.643  0.00  0.00    +0.068 A 
ATOM      5  C   UNL     1       1.387   1.034   2.479  0.00  0.00    -0.023 A 
ATOM      6  C   UNL     1       2.035   1.365   1.342  0.00  0.00    -0.004 A 
ATOM      7  S   UNL     1       3.745   1.427   1.797  0.00  0.00    -0.077 S 
ATOM      8  C   UNL     1       1.427   1.620  -0.003  0.00  0.00    +0.046 C 
ATOM      9  C   UNL     1      -0.013   1.086   0.008  0.00  0.00    -0.009 C 
ATOM     10  C   UNL     1      -0.714   1.583   1.276  0.00  0.00    +0.008 C 
ATOM     11  C   UNL     1      -0.129   0.880   2.502  0.00  0.00    +0.037 C 
ATOM     12  C   UNL     1      -0.758   1.595  -1.227  0.00  0.00    +0.008 C 
BRANCH   4  13
ATOM     13  C   UNL     1       1.671   0.483   4.946  0.00  0.00    +0.244 C 
ATOM     14  O   UNL     1       1.336   1.354   5.728  0.00  0.00    -0.270 OA
ATOM     15  N   UNL     1       1.522  -0.815   5.279  0.00  0.00    -0.325 N 
ATOM     16  H   UNL     1       1.789  -1.509   4.656  0.00  0.00    +0.145 HD
ATOM     17  H   UNL     1       1.148  -1.054   6.141  0.00  0.00    +0.145 HD
ENDBRANCH   4  13
ENDBRANCH   1   3
BRANCH   1  18
ATOM     18  C   UNL     1       5.893   1.106   4.067  0.00  0.00    +0.141 C 
ATOM     19  S   UNL     1       6.280   1.524   2.452  0.00  0.00    -0.018 S 
BRANCH  18  22
ATOM     20  C   UNL     1       8.156   1.197   4.633  0.00  0.00    +0.250 C 
ATOM     21  O   UNL     1       8.431   1.494   3.487  0.00  0.00    -0.270 OA
ATOM     22  N   UNL     1       6.872   0.987   4.985  0.00  0.00    -0.264 N 
ATOM     23  H   UNL     1       6.653   0.751   5.900  0.00  0.00    +0.157 HD
BRANCH  20  28
ATOM     24  C   UNL     1      12.338   0.692   8.554  0.00  0.00    +0.045 C 
ATOM     25  C   UNL     1      11.243   0.824   7.527  0.00  0.00    -0.032 A 
ATOM     26  C   UNL     1      11.558   1.161   6.223  0.00  0.00    +0.005 A 
ATOM     27  C   UNL     1      10.561   1.283   5.278  0.00  0.00    +0.013 A 
ATOM     28  C   UNL     1       9.229   1.067   5.640  0.00  0.00    +0.038 A 
ATOM     29  C   UNL     1       8.917   0.732   6.959  0.00  0.00    +0.033 A 
ATOM     30  C   UNL     1       9.925   0.608   7.894  0.00  0.00    +0.045 A 
ATOM     31 CL   UNL     1       9.539   0.187   9.533  0.00  0.00    -0.083 Cl
ENDBRANCH  20  28
ENDBRANCH  18  22
ENDBRANCH   1  18
TORSDOF 5
