REMARK  Name = ZINC62785992
REMARK  7 active torsions:
REMARK  status: ('A' for Active; 'I' for Inactive)
REMARK    1  A    between atoms: C_1  and  C_2
REMARK    2  A    between atoms: C_2  and  N_3
REMARK    3  A    between atoms: N_3  and  C_4
REMARK    4  A    between atoms: N_3  and  C_12
REMARK    5  A    between atoms: C_4  and  C_5
REMARK    6  A    between atoms: C_10  and  N_11
REMARK    7  A    between atoms: C_17  and  C_18
REMARK                            x       y       z     vdW  Elec       q    Type
REMARK                         _______ _______ _______ _____ _____    ______ ____
ROOT
ATOM      1  N   UNL     1      -1.372  -0.511   0.012  0.00  0.00    -0.325 N 
ENDROOT
BRANCH   1   2
ATOM      2  C   UNL     1      -2.012  -0.758   1.220  0.00  0.00    +0.044 A 
ATOM      3  C   UNL     1      -2.754   0.243   1.834  0.00  0.00    +0.044 A 
ATOM      4  C   UNL     1      -3.390  -0.005   3.035  0.00  0.00    +0.043 A 
ATOM      5  C   UNL     1      -3.292  -1.252   3.636  0.00  0.00    +0.021 A 
ATOM      6  C   UNL     1      -2.561  -2.256   3.042  0.00  0.00    +0.016 A 
ATOM      7  C   UNL     1      -1.917  -2.022   1.823  0.00  0.00    +0.058 A 
ATOM      8 CL   UNL     1      -4.315   1.250   3.797  0.00  0.00    -0.083 Cl
BRANCH   7   9
ATOM      9  C   UNL     1      -1.138  -3.094   1.179  0.00  0.00    +0.243 C 
ATOM     10  O   UNL     1      -0.575  -2.885   0.121  0.00  0.00    -0.270 OA
ATOM     11  N   UNL     1      -1.050  -4.306   1.762  0.00  0.00    -0.325 N 
ATOM     12  H   UNL     1      -1.499  -4.473   2.605  0.00  0.00    +0.145 HD
ATOM     13  H   UNL     1      -0.537  -5.012   1.337  0.00  0.00    +0.145 HD
ENDBRANCH   7   9
ENDBRANCH   1   2
BRANCH   1  15
ATOM     14  C   UNL     1      -0.019   1.526   0.010  0.00  0.00    +0.024 C 
ATOM     15  C   UNL     1       0.002  -0.004   0.002  0.00  0.00    +0.102 C 
ENDBRANCH   1  15
BRANCH   1  16
ATOM     16  C   UNL     1      -2.072  -0.758  -1.251  0.00  0.00    +0.142 C 
BRANCH  16  17
ATOM     17  C   UNL     1      -1.820  -2.175  -1.696  0.00  0.00    -0.010 A 
ATOM     18  C   UNL     1      -0.867  -2.438  -2.660  0.00  0.00    +0.007 A 
ATOM     19  C   UNL     1      -0.635  -3.739  -3.070  0.00  0.00    +0.000 A 
ATOM     20  C   UNL     1      -1.356  -4.780  -2.515  0.00  0.00    +0.002 A 
ATOM     21  C   UNL     1      -2.311  -4.524  -1.550  0.00  0.00    +0.023 A 
ATOM     22  C   UNL     1      -2.542  -3.220  -1.133  0.00  0.00    +0.029 A 
BRANCH  22  23
ATOM     23  N   UNL     1      -3.502  -2.958  -0.153  0.00  0.00    -0.358 N 
ATOM     24  H   UNL     1      -3.666  -2.046   0.134  0.00  0.00    +0.142 HD
ATOM     25  H   UNL     1      -4.006  -3.688   0.239  0.00  0.00    +0.142 HD
ENDBRANCH  22  23
ENDBRANCH  16  17
ENDBRANCH   1  16
TORSDOF 6
