REMARK  Name = ZINC40725376
REMARK  4 active torsions:
REMARK  status: ('A' for Active; 'I' for Inactive)
REMARK    1  A    between atoms: C_4  and  C_7
REMARK    2  A    between atoms: C_7  and  C_8
REMARK    3  A    between atoms: C_15  and  N_27
REMARK    4  A    between atoms: C_16  and  N_20
REMARK                            x       y       z     vdW  Elec       q    Type
REMARK                         _______ _______ _______ _____ _____    ______ ____
ROOT
ATOM      1  C   UNL     1       3.417  -0.356   2.896  0.00  0.00    -0.004 C 
ATOM      2  C   UNL     1       3.781  -0.553   4.369  0.00  0.00    +0.023 C 
ATOM      3  C   UNL     1       5.130  -1.273   4.466  0.00  0.00    +0.107 C 
ATOM      4  N   UNL     1       5.059  -2.518   3.691  0.00  0.00    -0.314 N 
ATOM      5  C   UNL     1       4.631  -2.453   2.286  0.00  0.00    +0.107 C 
ATOM      6  C   UNL     1       3.287  -1.720   2.214  0.00  0.00    +0.023 C 
ATOM      7  C   UNL     1       5.389  -3.736   4.274  0.00  0.00    +0.147 A 
ATOM      8  C   UNL     1       6.699  -4.217   4.216  0.00  0.00    +0.106 A 
ATOM      9  C   UNL     1       6.977  -5.444   4.819  0.00  0.00    +0.147 A 
ATOM     10  N   UNL     1       5.991  -6.105   5.421  0.00  0.00    -0.219 NA
ATOM     11  C   UNL     1       4.768  -5.616   5.452  0.00  0.00    +0.225 A 
ATOM     12  N   UNL     1       4.464  -4.458   4.900  0.00  0.00    -0.219 NA
ENDROOT
BRANCH   9  13
ATOM     13  N   UNL     1       8.264  -5.969   4.791  0.00  0.00    -0.314 N 
ATOM     14  C   UNL     1       8.634  -6.837   3.696  0.00  0.00    +0.106 C 
ATOM     15  C   UNL     1       8.296  -8.304   4.058  0.00  0.00    +0.019 C 
ATOM     16  C   UNL     1       9.219  -8.802   5.089  0.00  0.00    +0.002 C 
ATOM     17  C   UNL     1       9.138  -8.056   6.418  0.00  0.00    +0.002 C 
ATOM     18  C   UNL     1      10.014  -6.830   6.358  0.00  0.00    +0.019 C 
ATOM     19  C   UNL     1       9.197  -5.612   5.877  0.00  0.00    +0.106 C 
ENDBRANCH   9  13
BRANCH   8  20
ATOM     20  N   UNL     1       7.708  -3.485   3.570  0.00  0.00    -0.353 N 
ATOM     21  H   UNL     1       7.523  -2.593   3.236  0.00  0.00    +0.143 HD
ATOM     22  H   UNL     1       8.591  -3.871   3.457  0.00  0.00    +0.143 HD
ENDBRANCH   8  20
BRANCH   1  23
ATOM     23  C   UNL     1       2.087   0.393   2.795  0.00  0.00    +0.038 C 
BRANCH  23  27
ATOM     24  C   UNL     1       2.544   4.331   4.386  0.00  0.00    +0.000 A 
ATOM     25  C   UNL     1       2.780   4.096   3.044  0.00  0.00    +0.000 A 
ATOM     26  C   UNL     1       2.632   2.821   2.529  0.00  0.00    +0.003 A 
ATOM     27  C   UNL     1       2.249   1.782   3.356  0.00  0.00    -0.047 A 
ATOM     28  C   UNL     1       2.014   2.017   4.698  0.00  0.00    +0.003 A 
ATOM     29  C   UNL     1       2.161   3.292   5.213  0.00  0.00    +0.000 A 
ENDBRANCH  23  27
ENDBRANCH   1  23
TORSDOF 4
