REMARK  Name = ZINC43222339
REMARK  7 active torsions:
REMARK  status: ('A' for Active; 'I' for Inactive)
REMARK    1  A    between atoms: C_1  and  C_2
REMARK    2  A    between atoms: C_5  and  C_8
REMARK    3  A    between atoms: C_8  and  C_9
REMARK    4  A    between atoms: C_9  and  N_10
REMARK    5  A    between atoms: C_11  and  C_13
REMARK    6  A    between atoms: C_18  and  C_20
REMARK    7  A    between atoms: N_22  and  C_23
REMARK                            x       y       z     vdW  Elec       q    Type
REMARK                         _______ _______ _______ _____ _____    ______ ____
ROOT
ATOM      1  C   UNL     1       2.723  -8.397  -0.059  0.00  0.00    +0.068 C 
ATOM      2  C   UNL     1       2.061  -8.935  -1.346  0.00  0.00    -0.069 C 
ATOM      3  N   UNL     1       3.193  -9.164  -2.281  0.00  0.00    +0.380 N 
ATOM      4  C   UNL     1       4.269  -9.720  -1.421  0.00  0.00    -0.069 C 
ATOM      5  C   UNL     1       4.175  -8.914  -0.105  0.00  0.00    +0.068 C 
ATOM      6  H   UNL     1       2.932  -9.827  -2.994  0.00  0.00    -0.086 HD
ATOM      7  H   UNL     1       3.488  -8.293  -2.697  0.00  0.00    -0.086 HD
ENDROOT
BRANCH   1   9
ATOM      8  N   UNL     1       1.527  -6.231  -0.040  0.00  0.00    -0.315 N 
ATOM      9  C   UNL     1       2.703  -6.890  -0.050  0.00  0.00    +0.215 C 
ATOM     10  O   UNL     1       3.745  -6.270  -0.053  0.00  0.00    -0.276 OA
ATOM     11  H   UNL     1       0.694  -6.727  -0.038  0.00  0.00    +0.149 HD
BRANCH   8  12
ATOM     12  C   UNL     1       1.508  -4.767  -0.032  0.00  0.00    +0.109 C 
BRANCH  12  13
ATOM     13  C   UNL     1       0.059  -4.275  -0.021  0.00  0.00    +0.054 C 
BRANCH  13  18
ATOM     14  C   UNL     1      -0.018   1.503   0.010  0.00  0.00    +0.044 C 
ATOM     15  C   UNL     1       0.002  -0.004   0.002  0.00  0.00    -0.050 A 
ATOM     16  C   UNL     1       0.006  -0.689  -1.199  0.00  0.00    +0.003 A 
ATOM     17  C   UNL     1       0.025  -2.071  -1.206  0.00  0.00    +0.004 A 
ATOM     18  C   UNL     1       0.040  -2.768  -0.013  0.00  0.00    -0.046 A 
ATOM     19  C   UNL     1       0.037  -2.084   1.188  0.00  0.00    +0.004 A 
ATOM     20  C   UNL     1       0.023  -0.702   1.195  0.00  0.00    +0.003 A 
ENDBRANCH  13  18
ENDBRANCH  12  13
ENDBRANCH   8  12
ENDBRANCH   1   9
BRANCH   5  21
ATOM     21  C   UNL     1       4.452  -9.805   1.078  0.00  0.00    +0.215 C 
ATOM     22  O   UNL     1       3.580 -10.018   1.893  0.00  0.00    -0.276 OA
ATOM     23  N   UNL     1       5.669 -10.365   1.230  0.00  0.00    -0.308 N 
ATOM     24  H   UNL     1       6.366 -10.194   0.577  0.00  0.00    +0.149 HD
BRANCH  23  25
ATOM     25  C   UNL     1       5.938 -11.231   2.380  0.00  0.00    +0.103 C 
ATOM     26  C   UNL     1       7.435 -11.215   2.683  0.00  0.00    +0.027 C 
ATOM     27  C   UNL     1       7.726 -12.287   3.740  0.00  0.00    +0.007 C 
ATOM     28  C   UNL     1       7.544 -13.660   3.097  0.00  0.00    +0.035 C 
ATOM     29  C   UNL     1       6.212 -13.746   2.400  0.00  0.00    -0.042 A 
ATOM     30  C   UNL     1       5.477 -12.630   2.067  0.00  0.00    -0.024 A 
ATOM     31  C   UNL     1       4.258 -12.780   1.418  0.00  0.00    +0.006 A 
ATOM     32  C   UNL     1       3.778 -14.035   1.107  0.00  0.00    +0.000 A 
ATOM     33  C   UNL     1       4.515 -15.155   1.445  0.00  0.00    +0.000 A 
ATOM     34  C   UNL     1       5.725 -15.009   2.088  0.00  0.00    +0.004 A 
ENDBRANCH  23  25
ENDBRANCH   5  21
TORSDOF 6
