REMARK  Name = ZINC67608591
REMARK  6 active torsions:
REMARK  status: ('A' for Active; 'I' for Inactive)
REMARK    1  A    between atoms: C_1  and  C_2
REMARK    2  A    between atoms: C_7  and  C_8
REMARK    3  A    between atoms: C_8  and  N_9
REMARK    4  A    between atoms: C_15  and  C_18
REMARK    5  A    between atoms: C_18  and  C_20
REMARK    6  A    between atoms: C_18  and  O_27
REMARK                            x       y       z     vdW  Elec       q    Type
REMARK                         _______ _______ _______ _____ _____    ______ ____
ROOT
ATOM      1  N   UNL     1      -1.338   0.477   2.822  0.00  0.00    -0.295 N 
ATOM      2  C   UNL     1      -1.579   1.167   3.955  0.00  0.00    +0.302 C 
ATOM      3  O   UNL     1      -0.684   1.352   4.756  0.00  0.00    -0.253 OA
ATOM      4  N   UNL     1      -2.813   1.651   4.199  0.00  0.00    -0.286 N 
ATOM      5  C   UNL     1      -3.932   1.338   3.300  0.00  0.00    +0.109 C 
ATOM      6  C   UNL     1      -4.589   2.648   2.855  0.00  0.00    +0.025 C 
ATOM      7  C   UNL     1      -4.984   3.461   4.091  0.00  0.00    +0.025 C 
ATOM      8  C   UNL     1      -3.732   3.799   4.903  0.00  0.00    +0.025 C 
ATOM      9  C   UNL     1      -3.066   2.497   5.373  0.00  0.00    +0.109 C 
ATOM     10  H   UNL     1      -2.067   0.266   2.218  0.00  0.00    +0.151 HD
ENDROOT
BRANCH   1  11
ATOM     11  C   UNL     1       0.026   0.047   2.503  0.00  0.00    +0.141 C 
BRANCH  11  18
ATOM     12  C   UNL     1      -0.020   1.506   0.010  0.00  0.00    +0.044 C 
ATOM     13  C   UNL     1       0.002  -0.001   0.001  0.00  0.00    -0.046 A 
ATOM     14  C   UNL     1       0.006  -0.685  -1.201  0.00  0.00    +0.003 A 
ATOM     15  C   UNL     1       0.026  -2.067  -1.209  0.00  0.00    +0.000 A 
ATOM     16  C   UNL     1       0.042  -2.765  -0.016  0.00  0.00    +0.000 A 
ATOM     17  C   UNL     1       0.039  -2.081   1.185  0.00  0.00    +0.005 A 
ATOM     18  C   UNL     1       0.024  -0.699   1.194  0.00  0.00    -0.027 A 
ENDBRANCH  11  18
ENDBRANCH   1  11
BRANCH   7  19
ATOM     19  C   UNL     1      -5.672   4.755   3.651  0.00  0.00    +0.148 C 
BRANCH  19  20
ATOM     20  C   UNL     1      -6.061   5.555   4.867  0.00  0.00    -0.019 A 
ATOM     21  C   UNL     1      -7.201   5.224   5.576  0.00  0.00    +0.007 A 
ATOM     22  C   UNL     1      -7.559   5.957   6.692  0.00  0.00    +0.020 A 
ATOM     23  C   UNL     1      -6.776   7.023   7.099  0.00  0.00    +0.041 A 
ATOM     24  C   UNL     1      -5.635   7.353   6.389  0.00  0.00    +0.020 A 
ATOM     25  C   UNL     1      -5.276   6.616   5.277  0.00  0.00    +0.007 A 
ATOM     26 CL   UNL     1      -7.225   7.945   8.500  0.00  0.00    -0.084 Cl
ENDBRANCH  19  20
BRANCH  19  27
ATOM     27  O   UNL     1      -6.842   4.439   2.894  0.00  0.00    -0.387 OA
ATOM     28  H   UNL     1      -7.497   3.919   3.380  0.00  0.00    +0.210 HD
ENDBRANCH  19  27
ENDBRANCH   7  19
TORSDOF 5
