REMARK  Name = ZINC32217731
REMARK  9 active torsions:
REMARK  status: ('A' for Active; 'I' for Inactive)
REMARK    1  A    between atoms: C_3  and  C_6
REMARK    2  A    between atoms: C_6  and  N_7
REMARK    3  A    between atoms: N_7  and  S_8
REMARK    4  A    between atoms: S_8  and  C_11
REMARK    5  A    between atoms: C_14  and  C_17
REMARK    6  A    between atoms: N_19  and  C_20
REMARK    7  A    between atoms: C_20  and  C_21
REMARK    8  A    between atoms: C_21  and  C_23
REMARK    9  A    between atoms: C_21  and  N_28
REMARK                            x       y       z     vdW  Elec       q    Type
REMARK                         _______ _______ _______ _____ _____    ______ ____
ROOT
ATOM      1  C   UNL     1       1.847  -2.935  -5.813  0.00  0.00    +0.105 A 
ATOM      2  C   UNL     1       0.685  -2.346  -6.280  0.00  0.00    +0.029 A 
ATOM      3  C   UNL     1      -0.010  -1.460  -5.485  0.00  0.00    +0.015 A 
ATOM      4  C   UNL     1       0.460  -1.157  -4.206  0.00  0.00    +0.037 A 
ATOM      5  C   UNL     1       1.635  -1.750  -3.743  0.00  0.00    +0.015 A 
ATOM      6  C   UNL     1       2.319  -2.639  -4.547  0.00  0.00    +0.029 A 
ENDROOT
BRANCH   4   7
ATOM      7  C   UNL     1      -0.280  -0.207  -3.348  0.00  0.00    +0.244 C 
ATOM      8  O   UNL     1      -1.301   0.312  -3.756  0.00  0.00    -0.270 OA
ATOM      9  N   UNL     1       0.177   0.083  -2.114  0.00  0.00    -0.313 N 
ATOM     10  H   UNL     1       1.100  -0.387  -1.745  0.00  0.00    +0.149 HD
BRANCH   9  11
ATOM     11  C   UNL     1      -0.557   1.024  -1.264  0.00  0.00    +0.094 C 
BRANCH  11  12
ATOM     12  C   UNL     1       0.255   1.308   0.002  0.00  0.00    -0.013 C 
BRANCH  12  13
ATOM     13  N   UNL     1       1.532   1.935  -0.366  0.00  0.00    +0.386 N 
ATOM     14  C   UNL     1       2.253   2.420   0.838  0.00  0.00    -0.078 C 
ATOM     15  C   UNL     1       3.718   2.542   0.349  0.00  0.00    -0.020 C 
ATOM     16  C   UNL     1       3.871   1.325  -0.591  0.00  0.00    -0.020 C 
ATOM     17  C   UNL     1       2.436   0.957  -1.010  0.00  0.00    -0.078 C 
ATOM     18  H   UNL     1       1.276   2.758  -1.049  0.00  0.00    -0.081 HD
ENDBRANCH  12  13
BRANCH  12  19
ATOM     19  C   UNL     1      -0.521   2.238   0.899  0.00  0.00    -0.022 A 
ATOM     20  C   UNL     1      -1.176   1.961   2.052  0.00  0.00    +0.009 A 
ATOM     21  C   UNL     1      -1.827   2.985   2.715  0.00  0.00    +0.008 A 
ATOM     22  C   UNL     1      -1.791   4.234   2.192  0.00  0.00    +0.045 A 
ATOM     23  S   UNL     1      -0.809   3.991   0.721  0.00  0.00    -0.103 S 
ENDBRANCH  12  19
ENDBRANCH  11  12
ENDBRANCH   9  11
ENDBRANCH   4   7
BRANCH   1  24
ATOM     24  S   UNL     1       2.730  -4.066  -6.836  0.00  0.00    +0.059 S 
ATOM     25  O   UNL     1       3.487  -4.895  -5.965  0.00  0.00    -0.153 OA
ATOM     26  O   UNL     1       1.791  -4.592  -7.764  0.00  0.00    -0.153 OA
BRANCH  24  27
ATOM     27  N   UNL     1       3.821  -3.183  -7.715  0.00  0.00    -0.183 NA
ATOM     28  H   UNL     1       3.624  -2.993  -8.781  0.00  0.00    +0.148 HD
BRANCH  27  29
ATOM     29  C   UNL     1       4.914  -2.484  -7.036  0.00  0.00    +0.180 C 
BRANCH  29  32
ATOM     30  C   UNL     1       7.120  -0.949  -9.558  0.00  0.00    +0.041 A 
ATOM     31  C   UNL     1       5.980  -0.912  -8.722  0.00  0.00    +0.046 A 
ATOM     32  C   UNL     1       5.954  -2.075  -8.047  0.00  0.00    +0.120 A 
ATOM     33  O   UNL     1       7.014  -2.808  -8.423  0.00  0.00    -0.466 OA
ATOM     34  C   UNL     1       7.722  -2.133  -9.343  0.00  0.00    +0.195 A 
ENDBRANCH  29  32
ENDBRANCH  27  29
ENDBRANCH  24  27
ENDBRANCH   1  24
TORSDOF 9
