REMARK  Name = ZINC08165770
REMARK  3 active torsions:
REMARK  status: ('A' for Active; 'I' for Inactive)
REMARK    1  A    between atoms: C_3  and  C_8
REMARK    2  A    between atoms: C_11  and  C_18
REMARK    3  A    between atoms: C_21  and  N_24
REMARK                            x       y       z     vdW  Elec       q    Type
REMARK                         _______ _______ _______ _____ _____    ______ ____
ROOT
ATOM      1  C   UNL     1       3.551   2.019  -0.084  0.00  0.00    +0.154 C 
ATOM      2  C   UNL     1       4.042   2.122  -1.518  0.00  0.00    +0.030 C 
ATOM      3  C   UNL     1       5.320   1.773  -1.763  0.00  0.00    +0.073 C 
ATOM      4  N   UNL     1       6.149   1.344  -0.777  0.00  0.00    -0.212 NA
ATOM      5  C   UNL     1       5.804   1.228   0.477  0.00  0.00    +0.258 C 
ATOM      6  N   UNL     1       4.528   1.543   0.898  0.00  0.00    -0.191 N 
ATOM      7  N   UNL     1       4.514   1.301   2.272  0.00  0.00    -0.163 N 
ATOM      8  N   UNL     1       5.687   0.881   2.605  0.00  0.00    -0.060 NA
ATOM      9  N   UNL     1       6.466   0.827   1.596  0.00  0.00    -0.094 NA
ATOM     10  H   UNL     1       3.759   1.427   2.868  0.00  0.00    +0.195 HD
ENDROOT
BRANCH   1  13
ATOM     11  C   UNL     1      -0.002   0.741  -0.070  0.00  0.00    +0.003 A 
ATOM     12  C   UNL     1       1.084   1.597  -0.092  0.00  0.00    +0.006 A 
ATOM     13  C   UNL     1       2.368   1.086  -0.060  0.00  0.00    -0.019 A 
ATOM     14  C   UNL     1       2.568  -0.281  -0.005  0.00  0.00    +0.044 A 
ATOM     15  C   UNL     1       1.481  -1.138   0.018  0.00  0.00    +0.124 A 
ATOM     16  C   UNL     1       0.195  -0.625  -0.014  0.00  0.00    +0.038 A 
ATOM     17  F   UNL     1       1.675  -2.474   0.071  0.00  0.00    -0.205 F 
ENDBRANCH   1  13
BRANCH   3  18
ATOM     18  C   UNL     1       5.836   1.859  -3.150  0.00  0.00    +0.000 A 
ATOM     19  C   UNL     1       5.003   2.303  -4.178  0.00  0.00    +0.012 A 
ATOM     20  C   UNL     1       5.481   2.384  -5.466  0.00  0.00    +0.028 A 
ATOM     21  C   UNL     1       6.801   2.021  -5.745  0.00  0.00    +0.067 A 
ATOM     22  C   UNL     1       7.635   1.577  -4.714  0.00  0.00    +0.028 A 
ATOM     23  C   UNL     1       7.157   1.503  -3.426  0.00  0.00    +0.012 A 
BRANCH  21  24
ATOM     24  N   UNL     1       7.277   2.101  -7.024  0.00  0.00    -0.226 NA
ATOM     25  C   UNL     1       7.155   3.220  -7.703  0.00  0.00    +0.154 C 
ATOM     26  N   UNL     1       6.661   4.379  -7.122  0.00  0.00    -0.324 N 
ATOM     27  C   UNL     1       5.585   5.097  -7.810  0.00  0.00    +0.104 C 
ATOM     28  C   UNL     1       6.034   5.541  -9.200  0.00  0.00    +0.030 C 
ATOM     29  C   UNL     1       6.246   4.320 -10.103  0.00  0.00    +0.079 C 
ATOM     30  S   UNL     1       7.619   3.336  -9.411  0.00  0.00    -0.091 S 
ATOM     31  H   UNL     1       7.019   4.706  -6.281  0.00  0.00    +0.148 HD
ENDBRANCH  21  24
ENDBRANCH   3  18
TORSDOF 3
