REMARK  Name = ZINC63302932
REMARK  3 active torsions:
REMARK  status: ('A' for Active; 'I' for Inactive)
REMARK    1  A    between atoms: C_4  and  N_7
REMARK    2  A    between atoms: C_8  and  C_10
REMARK    3  A    between atoms: C_10  and  N_11
REMARK                            x       y       z     vdW  Elec       q    Type
REMARK                         _______ _______ _______ _____ _____    ______ ____
ROOT
ATOM      1  N   UNL     1       4.720  -4.163   0.239  0.00  0.00    -0.291 N 
ATOM      2  C   UNL     1       5.758  -5.016   0.340  0.00  0.00    +0.303 C 
ATOM      3  O   UNL     1       6.890  -4.586   0.446  0.00  0.00    -0.253 OA
ATOM      4  N   UNL     1       5.541  -6.346   0.323  0.00  0.00    -0.283 N 
ATOM      5  C   UNL     1       4.166  -6.857   0.305  0.00  0.00    +0.114 C 
ATOM      6  C   UNL     1       3.946  -7.778   1.519  0.00  0.00    +0.052 C 
ATOM      7  C   UNL     1       5.147  -8.688   1.595  0.00  0.00    -0.035 C 
ATOM      8  C   UNL     1       5.245 -10.009   1.675  0.00  0.00    +0.001 A 
ATOM      9  C   UNL     1       4.224 -11.059   1.828  0.00  0.00    +0.030 A 
ATOM     10  C   UNL     1       4.681 -12.339   1.855  0.00  0.00    +0.042 A 
ATOM     11  C   UNL     1       6.035 -12.676   1.746  0.00  0.00    +0.022 A 
ATOM     12  C   UNL     1       7.040 -11.775   1.612  0.00  0.00    +0.027 A 
ATOM     13  C   UNL     1       6.685 -10.395   1.579  0.00  0.00    +0.043 A 
ATOM     14  N   UNL     1       7.434  -9.336   1.483  0.00  0.00    -0.376 N 
ATOM     15  C   UNL     1       6.575  -8.155   1.568  0.00  0.00    +0.124 C 
ATOM     16  C   UNL     1       6.686  -7.271   0.316  0.00  0.00    +0.138 C 
ATOM     17 CL   UNL     1       3.525 -13.622   2.034  0.00  0.00    -0.084 Cl
ATOM     18  H   UNL     1       3.811  -4.503   0.228  0.00  0.00    +0.151 HD
ATOM     19  H   UNL     1       8.398  -9.331   1.373  0.00  0.00    +0.160 HD
ENDROOT
BRANCH   1  20
ATOM     20  C   UNL     1       4.963  -2.721   0.148  0.00  0.00    +0.202 C 
BRANCH  20  22
ATOM     21  N   UNL     1       3.624  -0.651  -0.050  0.00  0.00    -0.284 N 
ATOM     22  C   UNL     1       3.646  -1.995   0.045  0.00  0.00    +0.234 C 
ATOM     23  O   UNL     1       2.607  -2.620   0.048  0.00  0.00    -0.274 OA
ATOM     24  H   UNL     1       4.454  -0.156  -0.128  0.00  0.00    +0.155 HD
BRANCH  21  28
ATOM     25  C   UNL     1      -0.014   1.380  -0.013  0.00  0.00    +0.000 A 
ATOM     26  C   UNL     1       0.136   0.219   0.723  0.00  0.00    +0.002 A 
ATOM     27  C   UNL     1       1.340  -0.457   0.713  0.00  0.00    +0.023 A 
ATOM     28  C   UNL     1       2.402   0.031  -0.038  0.00  0.00    +0.033 A 
ATOM     29  C   UNL     1       2.248   1.197  -0.777  0.00  0.00    +0.023 A 
ATOM     30  C   UNL     1       1.041   1.868  -0.762  0.00  0.00    +0.002 A 
ENDBRANCH  21  28
ENDBRANCH  20  22
ENDBRANCH   1  20
TORSDOF 3
