REMARK  Name = ZINC66234230
REMARK  9 active torsions:
REMARK  status: ('A' for Active; 'I' for Inactive)
REMARK    1  A    between atoms: C_1  and  C_2
REMARK    2  A    between atoms: C_4  and  C_14
REMARK    3  A    between atoms: C_5  and  C_13
REMARK    4  A    between atoms: N_6  and  C_7
REMARK    5  A    between atoms: N_16  and  N_17
REMARK    6  A    between atoms: N_20  and  C_21
REMARK    7  A    between atoms: C_21  and  C_22
REMARK    8  A    between atoms: C_22  and  C_23
REMARK    9  A    between atoms: C_27  and  O_29
REMARK                            x       y       z     vdW  Elec       q    Type
REMARK                         _______ _______ _______ _____ _____    ______ ____
ROOT
ATOM      1  C   UNL     1       0.043  -3.386  -1.449  0.00  0.00    +0.262 C 
ATOM      2  O   UNL     1       0.061  -4.481  -0.920  0.00  0.00    -0.269 OA
ATOM      3  N   UNL     1       0.036  -3.287  -2.793  0.00  0.00    -0.229 N 
ATOM      4  H   UNL     1       0.022  -2.414  -3.215  0.00  0.00    +0.173 HD
ENDROOT
BRANCH   1   8
ATOM      5  C   UNL     1      -0.018   1.503   0.010  0.00  0.00    +0.064 C 
ATOM      6  C   UNL     1       0.002  -0.004   0.002  0.00  0.00    +0.022 A 
ATOM      7  C   UNL     1       0.008  -0.780  -1.096  0.00  0.00    +0.036 A 
ATOM      8  C   UNL     1       0.030  -2.168  -0.621  0.00  0.00    +0.059 A 
ATOM      9  C   UNL     1       0.035  -2.104   0.745  0.00  0.00    +0.033 A 
ATOM     10  N   UNL     1       0.024  -0.805   1.109  0.00  0.00    -0.317 N 
ATOM     11  C   UNL     1       0.055  -3.283   1.683  0.00  0.00    +0.064 C 
BRANCH  10  12
ATOM     12  C   UNL     1       0.029  -0.344   2.433  0.00  0.00    +0.047 A 
ATOM     13  C   UNL     1       1.131  -0.573   3.245  0.00  0.00    +0.026 A 
ATOM     14  C   UNL     1       1.134  -0.117   4.548  0.00  0.00    +0.002 A 
ATOM     15  C   UNL     1       0.040   0.568   5.045  0.00  0.00    +0.000 A 
ATOM     16  C   UNL     1      -1.059   0.798   4.239  0.00  0.00    +0.002 A 
ATOM     17  C   UNL     1      -1.065   0.349   2.932  0.00  0.00    +0.026 A 
ENDBRANCH  10  12
ENDBRANCH   1   8
BRANCH   3  18
ATOM     18  N   UNL     1       0.049  -4.446  -3.581  0.00  0.00    -0.218 N 
ATOM     19  C   UNL     1       0.042  -4.347  -4.925  0.00  0.00    +0.316 C 
ATOM     20  O   UNL     1       0.053  -5.353  -5.609  0.00  0.00    -0.251 OA
ATOM     21  N   UNL     1       0.023  -3.134  -5.511  0.00  0.00    -0.298 N 
ATOM     22  H   UNL     1       0.063  -5.319  -3.159  0.00  0.00    +0.174 HD
ATOM     23  H   UNL     1       0.014  -2.332  -4.966  0.00  0.00    +0.150 HD
BRANCH  21  24
ATOM     24  C   UNL     1       0.016  -3.026  -6.973  0.00  0.00    +0.110 C 
BRANCH  24  25
ATOM     25  C   UNL     1      -0.007  -1.551  -7.375  0.00  0.00    +0.054 C 
BRANCH  25  26
ATOM     26  C   UNL     1      -0.014  -1.440  -8.878  0.00  0.00    -0.042 A 
ATOM     27  C   UNL     1       1.180  -1.379  -9.572  0.00  0.00    +0.004 A 
ATOM     28  C   UNL     1       1.176  -1.277 -10.951  0.00  0.00    +0.004 A 
ATOM     29  C   UNL     1      -0.021  -1.237 -11.639  0.00  0.00    +0.045 A 
ATOM     30  C   UNL     1      -1.221  -1.298 -10.945  0.00  0.00    +0.117 A 
ATOM     31  C   UNL     1      -1.214  -1.406  -9.561  0.00  0.00    +0.049 A 
BRANCH  30  32
ATOM     32  O   UNL     1      -2.400  -1.259 -11.619  0.00  0.00    -0.507 OA
ATOM     33  H   UNL     1      -2.734  -2.128 -11.879  0.00  0.00    +0.292 HD
ENDBRANCH  30  32
ENDBRANCH  25  26
ENDBRANCH  24  25
ENDBRANCH  21  24
ENDBRANCH   3  18
TORSDOF 7
