REMARK  Name = ZINC64003418
REMARK  8 active torsions:
REMARK  status: ('A' for Active; 'I' for Inactive)
REMARK    1  A    between atoms: C_1  and  C_2
REMARK    2  A    between atoms: C_7  and  S_27
REMARK    3  A    between atoms: N_11  and  C_12
REMARK    4  A    between atoms: C_12  and  C_13
REMARK    5  A    between atoms: N_15  and  C_16
REMARK    6  A    between atoms: C_16  and  C_17
REMARK    7  A    between atoms: C_17  and  C_18
REMARK    8  A    between atoms: S_27  and  N_30
REMARK                            x       y       z     vdW  Elec       q    Type
REMARK                         _______ _______ _______ _____ _____    ______ ____
ROOT
ATOM      1  C   UNL     1       0.363  -0.268   2.562  0.00  0.00    +0.201 C 
ENDROOT
BRANCH   1  11
ATOM      2  C   UNL     1      -0.019   1.526   0.010  0.00  0.00    +0.028 C 
ATOM      3  C   UNL     1       0.002  -0.004   0.002  0.00  0.00    +0.075 C 
ATOM      4  C   UNL     1       0.778  -0.520  -1.221  0.00  0.00    +0.059 C 
ATOM      5  C   UNL     1       1.931  -1.304  -0.635  0.00  0.00    -0.023 A 
ATOM      6  C   UNL     1       2.960  -1.995  -1.246  0.00  0.00    +0.034 A 
ATOM      7  C   UNL     1       3.911  -2.644  -0.481  0.00  0.00    +0.105 A 
ATOM      8  C   UNL     1       3.831  -2.599   0.899  0.00  0.00    +0.030 A 
ATOM      9  C   UNL     1       2.807  -1.911   1.513  0.00  0.00    +0.025 A 
ATOM     10  C   UNL     1       1.842  -1.253   0.747  0.00  0.00    +0.034 A 
ATOM     11  N   UNL     1       0.735  -0.509   1.166  0.00  0.00    -0.318 N 
BRANCH   7  12
ATOM     12  S   UNL     1       5.222  -3.525  -1.262  0.00  0.00    +0.056 S 
ATOM     13  O   UNL     1       5.670  -4.498  -0.329  0.00  0.00    -0.153 OA
ATOM     14  O   UNL     1       4.763  -3.869  -2.561  0.00  0.00    -0.153 OA
BRANCH  12  15
ATOM     15  N   UNL     1       6.473  -2.459  -1.469  0.00  0.00    -0.204 NA
ATOM     16  H   UNL     1       6.381  -1.540  -1.173  0.00  0.00    +0.144 HD
ATOM     17  H   UNL     1       7.297  -2.753  -1.887  0.00  0.00    +0.144 HD
ENDBRANCH  12  15
ENDBRANCH   7  12
ENDBRANCH   1  11
BRANCH   1  18
ATOM     18  C   UNL     1      -0.561  -1.363   3.031  0.00  0.00    +0.230 C 
ATOM     19  O   UNL     1      -0.876  -2.256   2.274  0.00  0.00    -0.274 OA
ATOM     20  N   UNL     1      -1.036  -1.349   4.293  0.00  0.00    -0.314 N 
ATOM     21  H   UNL     1      -0.783  -0.634   4.898  0.00  0.00    +0.149 HD
BRANCH  20  22
ATOM     22  C   UNL     1      -1.933  -2.413   4.749  0.00  0.00    +0.108 C 
BRANCH  22  23
ATOM     23  C   UNL     1      -2.323  -2.162   6.207  0.00  0.00    +0.052 C 
BRANCH  23  24
ATOM     24  C   UNL     1      -3.246  -3.256   6.676  0.00  0.00    -0.040 C 
ATOM     25  C   UNL     1      -2.901  -4.380   7.345  0.00  0.00    -0.001 A 
ATOM     26  C   UNL     1      -1.612  -4.900   7.817  0.00  0.00    +0.010 A 
ATOM     27  C   UNL     1      -1.582  -6.083   8.472  0.00  0.00    +0.001 A 
ATOM     28  C   UNL     1      -2.749  -6.823   8.711  0.00  0.00    +0.002 A 
ATOM     29  C   UNL     1      -3.969  -6.410   8.309  0.00  0.00    +0.026 A 
ATOM     30  C   UNL     1      -4.118  -5.180   7.611  0.00  0.00    +0.043 A 
ATOM     31  N   UNL     1      -5.174  -4.574   7.125  0.00  0.00    -0.380 N 
ATOM     32  C   UNL     1      -4.747  -3.317   6.501  0.00  0.00    +0.144 C 
ATOM     33  H   UNL     1      -6.086  -4.901   7.173  0.00  0.00    +0.160 HD
ENDBRANCH  23  24
ENDBRANCH  22  23
ENDBRANCH  20  22
ENDBRANCH   1  18
TORSDOF 7
