REMARK  Name = ZINC63677492
REMARK  7 active torsions:
REMARK  status: ('A' for Active; 'I' for Inactive)
REMARK    1  A    between atoms: C_1  and  C_2
REMARK    2  A    between atoms: C_2  and  C_3
REMARK    3  A    between atoms: C_2  and  N_23
REMARK    4  A    between atoms: N_5  and  C_6
REMARK    5  A    between atoms: C_6  and  C_7
REMARK    6  A    between atoms: C_11  and  C_13
REMARK    7  A    between atoms: C_13  and  N_14
REMARK                            x       y       z     vdW  Elec       q    Type
REMARK                         _______ _______ _______ _____ _____    ______ ____
ROOT
ATOM      1  C   UNL     1       4.141  -0.125   2.602  0.00  0.00    -0.030 A 
ATOM      2  C   UNL     1       5.142  -0.853   1.985  0.00  0.00    +0.005 A 
ATOM      3  C   UNL     1       6.438  -0.374   1.975  0.00  0.00    +0.001 A 
ATOM      4  C   UNL     1       6.735   0.832   2.582  0.00  0.00    +0.005 A 
ATOM      5  C   UNL     1       5.734   1.560   3.198  0.00  0.00    -0.027 A 
ATOM      6  C   UNL     1       4.436   1.083   3.204  0.00  0.00    +0.010 A 
ENDROOT
BRANCH   1   7
ATOM      7  C   UNL     1       2.727  -0.647   2.613  0.00  0.00    +0.139 C 
BRANCH   7  10
ATOM      8  C   UNL     1       0.731  -0.503   1.223  0.00  0.00    +0.233 C 
ATOM      9  O   UNL     1       0.159  -1.213   2.023  0.00  0.00    -0.274 OA
ATOM     10  N   UNL     1       2.019  -0.161   1.426  0.00  0.00    -0.310 N 
ATOM     11  H   UNL     1       2.476   0.406   0.786  0.00  0.00    +0.149 HD
BRANCH   8  13
ATOM     12  C   UNL     1      -0.019   1.526   0.010  0.00  0.00    +0.038 C 
ATOM     13  C   UNL     1       0.002  -0.004   0.002  0.00  0.00    +0.157 C 
BRANCH  13  14
ATOM     14  N   UNL     1      -1.372  -0.511   0.012  0.00  0.00    -0.289 N 
ATOM     15  C   UNL     1      -2.051  -0.643  -1.145  0.00  0.00    +0.298 C 
ATOM     16  O   UNL     1      -1.522  -0.341  -2.197  0.00  0.00    -0.253 OA
ATOM     17  N   UNL     1      -3.315  -1.109  -1.135  0.00  0.00    -0.313 N 
ATOM     18  H   UNL     1      -1.794  -0.752   0.852  0.00  0.00    +0.151 HD
ATOM     19  H   UNL     1      -3.737  -1.350  -0.295  0.00  0.00    +0.146 HD
ATOM     20  H   UNL     1      -3.804  -1.204  -1.968  0.00  0.00    +0.146 HD
ENDBRANCH  13  14
ENDBRANCH   8  13
ENDBRANCH   7  10
ENDBRANCH   1   7
BRANCH   5  21
ATOM     21  C   UNL     1       6.057   2.875   3.860  0.00  0.00    +0.158 C 
BRANCH  21  22
ATOM     22  N   UNL     1       5.911   3.960   2.887  0.00  0.00    -0.326 N 
ATOM     23  C   UNL     1       6.902   4.503   2.129  0.00  0.00    +0.200 A 
ATOM     24  N   UNL     1       6.420   5.446   1.373  0.00  0.00    -0.236 NA
ATOM     25  C   UNL     1       5.087   5.573   1.594  0.00  0.00    +0.089 A 
ATOM     26  C   UNL     1       4.740   4.618   2.565  0.00  0.00    +0.069 A 
ATOM     27  C   UNL     1       3.424   4.512   2.991  0.00  0.00    +0.028 A 
ATOM     28  C   UNL     1       2.464   5.345   2.455  0.00  0.00    +0.002 A 
ATOM     29  C   UNL     1       2.805   6.285   1.494  0.00  0.00    +0.002 A 
ATOM     30  C   UNL     1       4.098   6.408   1.068  0.00  0.00    +0.030 A 
ENDBRANCH  21  22
ENDBRANCH   5  21
TORSDOF 6
