REMARK  Name = ZINC06942671
REMARK  8 active torsions:
REMARK  status: ('A' for Active; 'I' for Inactive)
REMARK    1  A    between atoms: C_1  and  C_2
REMARK    2  A    between atoms: C_3  and  C_7
REMARK    3  A    between atoms: C_10  and  S_13
REMARK    4  A    between atoms: N_11  and  N_12
REMARK    5  A    between atoms: S_13  and  C_14
REMARK    6  A    between atoms: C_14  and  C_15
REMARK    7  A    between atoms: C_27  and  C_28
REMARK    8  A    between atoms: C_27  and  C_29
REMARK                            x       y       z     vdW  Elec       q    Type
REMARK                         _______ _______ _______ _____ _____    ______ ____
ROOT
ATOM      1  C   UNL     1      -2.620   0.077  -0.299  0.00  0.00    +0.173 C 
ENDROOT
BRANCH   1   2
ATOM      2  C   UNL     1      -2.509   1.437   0.341  0.00  0.00    +0.231 C 
ATOM      3  O   UNL     1      -3.506   2.008   0.730  0.00  0.00    -0.274 OA
ATOM      4  N   UNL     1      -1.301   2.019   0.482  0.00  0.00    -0.255 N 
ATOM      5  C   UNL     1      -1.182   3.338   0.946  0.00  0.00    +0.059 A 
ATOM      6  C   UNL     1      -2.179   4.269   0.715  0.00  0.00    +0.025 A 
ATOM      7  C   UNL     1      -2.029   5.564   1.177  0.00  0.00    +0.002 A 
ATOM      8  C   UNL     1      -0.887   5.929   1.866  0.00  0.00    +0.002 A 
ATOM      9  C   UNL     1       0.113   5.003   2.102  0.00  0.00    +0.025 A 
ATOM     10  C   UNL     1      -0.030   3.702   1.645  0.00  0.00    +0.055 A 
ATOM     11  N   UNL     1       0.964   2.747   1.882  0.00  0.00    -0.282 N 
ATOM     12  C   UNL     1       0.968   1.578   1.214  0.00  0.00    +0.241 C 
ATOM     13  O   UNL     1       1.814   0.746   1.466  0.00  0.00    -0.273 OA
ATOM     14  C   UNL     1      -0.066   1.291   0.155  0.00  0.00    +0.113 C 
ATOM     15  C   UNL     1       0.455   1.752  -1.208  0.00  0.00    +0.042 C 
ATOM     16  C   UNL     1      -0.351  -0.212   0.113  0.00  0.00    +0.042 C 
ATOM     17  H   UNL     1       1.658   2.929   2.535  0.00  0.00    +0.155 HD
ENDBRANCH   1   2
BRANCH   1  18
ATOM     18  S   UNL     1      -4.365  -0.325  -0.561  0.00  0.00    -0.075 S 
BRANCH  18  22
ATOM     19  C   UNL     1      -4.624  -3.853  -2.221  0.00  0.00    +0.185 A 
ATOM     20  N   UNL     1      -3.328  -3.690  -2.089  0.00  0.00    -0.127 NA
ATOM     21  N   UNL     1      -3.082  -2.551  -1.546  0.00  0.00    -0.121 NA
ATOM     22  C   UNL     1      -4.205  -1.917  -1.298  0.00  0.00    +0.209 A 
ATOM     23  N   UNL     1      -5.226  -2.725  -1.714  0.00  0.00    -0.224 N 
BRANCH  19  26
ATOM     24  C   UNL     1      -3.245  -6.421  -3.375  0.00  0.00    +0.087 C 
ATOM     25  C   UNL     1      -4.726  -6.151  -3.306  0.00  0.00    +0.112 A 
ATOM     26  C   UNL     1      -5.307  -5.030  -2.800  0.00  0.00    +0.061 A 
ATOM     27  C   UNL     1      -6.754  -5.227  -2.955  0.00  0.00    +0.053 A 
ATOM     28  C   UNL     1      -6.904  -6.434  -3.527  0.00  0.00    +0.196 A 
ATOM     29  O   UNL     1      -5.694  -6.977  -3.728  0.00  0.00    -0.467 OA
ENDBRANCH  19  26
BRANCH  23  30
ATOM     30  N   UNL     1      -6.566  -2.466  -1.643  0.00  0.00    -0.295 N 
ATOM     31  H   UNL     1      -6.888  -1.999  -2.477  0.00  0.00    +0.163 HD
ATOM     32  H   UNL     1      -7.090  -3.312  -1.476  0.00  0.00    +0.163 HD
ENDBRANCH  23  30
ENDBRANCH  18  22
ENDBRANCH   1  18
TORSDOF 5
