REMARK  Name = ZINC40361932
REMARK  7 active torsions:
REMARK  status: ('A' for Active; 'I' for Inactive)
REMARK    1  A    between atoms: C_1  and  C_2
REMARK    2  A    between atoms: C_2  and  C_3
REMARK    3  A    between atoms: C_3  and  C_4
REMARK    4  A    between atoms: C_3  and  C_5
REMARK    5  A    between atoms: C_3  and  N_8
REMARK    6  A    between atoms: C_5  and  N_7
REMARK    7  A    between atoms: N_11  and  C_12
REMARK                            x       y       z     vdW  Elec       q    Type
REMARK                         _______ _______ _______ _____ _____    ______ ____
ROOT
ATOM      1  N   UNL     1      -2.142  -0.048  -1.174  0.00  0.00    -0.288 N 
ATOM      2  C   UNL     1      -1.689  -0.361  -2.404  0.00  0.00    +0.301 C 
ATOM      3  O   UNL     1      -0.692  -1.046  -2.529  0.00  0.00    -0.253 OA
ATOM      4  N   UNL     1      -2.341   0.085  -3.496  0.00  0.00    -0.294 N 
ATOM      5  H   UNL     1      -2.937   0.498  -1.075  0.00  0.00    +0.151 HD
ATOM      6  H   UNL     1      -3.136   0.632  -3.397  0.00  0.00    +0.151 HD
ENDROOT
BRANCH   4   7
ATOM      7  C   UNL     1      -1.848  -0.255  -4.833  0.00  0.00    +0.037 C 
ATOM      8  C   UNL     1      -0.426   0.284  -5.005  0.00  0.00    +0.029 C 
ATOM      9  C   UNL     1       0.088  -0.071  -6.402  0.00  0.00    -0.008 C 
ATOM     10  C   UNL     1      -0.826   0.556  -7.457  0.00  0.00    +0.007 C 
ATOM     11  C   UNL     1      -2.248   0.017  -7.285  0.00  0.00    -0.008 C 
ATOM     12  C   UNL     1      -2.762   0.372  -5.888  0.00  0.00    +0.029 C 
ATOM     13  C   UNL     1      -2.241  -1.503  -7.454  0.00  0.00    +0.007 C 
ATOM     14  C   UNL     1      -1.327  -2.130  -6.399  0.00  0.00    -0.008 C 
ATOM     15  C   UNL     1       0.095  -1.591  -6.572  0.00  0.00    +0.007 C 
ATOM     16  C   UNL     1      -1.841  -1.775  -5.003  0.00  0.00    +0.029 C 
ENDBRANCH   4   7
BRANCH   1  17
ATOM     17  C   UNL     1      -1.433  -0.534   0.013  0.00  0.00    +0.077 C 
ATOM     18  C   UNL     1      -1.413  -2.063   0.004  0.00  0.00    +0.038 C 
BRANCH  17  20
ATOM     19  C   UNL     1      -0.019   1.526   0.010  0.00  0.00    +0.006 C 
ATOM     20  C   UNL     1       0.002  -0.004   0.002  0.00  0.00    +0.029 C 
ENDBRANCH  17  20
BRANCH  17  21
ATOM     21  C   UNL     1      -2.139  -0.048   1.253  0.00  0.00    +0.070 C 
ATOM     22  S   UNL     1      -3.452   0.855   1.123  0.00  0.00    -0.038 S 
BRANCH  21  23
ATOM     23  N   UNL     1      -1.662  -0.373   2.471  0.00  0.00    -0.354 N 
ATOM     24  H   UNL     1      -0.865  -0.921   2.549  0.00  0.00    +0.143 HD
ATOM     25  H   UNL     1      -2.116  -0.061   3.269  0.00  0.00    +0.143 HD
ENDBRANCH  21  23
ENDBRANCH  17  21
ENDBRANCH   1  17
TORSDOF 5
