REMARK  Name = ZINC12497087
REMARK  8 active torsions:
REMARK  status: ('A' for Active; 'I' for Inactive)
REMARK    1  A    between atoms: C_1  and  C_2
REMARK    2  A    between atoms: C_2  and  O_3
REMARK    3  A    between atoms: O_3  and  C_4
REMARK    4  A    between atoms: C_4  and  C_6
REMARK    5  A    between atoms: C_6  and  C_31
REMARK    6  A    between atoms: C_11  and  C_13
REMARK    7  A    between atoms: C_16  and  O_19
REMARK    8  A    between atoms: N_22  and  C_25
REMARK                            x       y       z     vdW  Elec       q    Type
REMARK                         _______ _______ _______ _____ _____    ______ ____
ROOT
ATOM      1  C   UNL     1      -1.293  -0.775   0.010  0.00  0.00    +0.070 C 
ATOM      2  C   UNL     1      -1.090  -2.135   0.657  0.00  0.00    +0.090 C 
ATOM      3  C   UNL     1      -1.306  -1.712   2.161  0.00  0.00    +0.078 C 
ATOM      4  C   UNL     1      -2.544  -0.918   2.079  0.00  0.00    -0.026 C 
ATOM      5  C   UNL     1      -0.755  -2.843   2.865  0.00  0.00    +0.229 C 
ATOM      6  O   UNL     1      -1.129  -3.309   3.919  0.00  0.00    -0.275 OA
ATOM      7  N   UNL     1       0.287  -3.277   2.082  0.00  0.00    -0.210 N 
ATOM      8  C   UNL     1       0.276  -2.722   0.833  0.00  0.00    +0.229 C 
ATOM      9  O   UNL     1       1.185  -2.708   0.032  0.00  0.00    -0.275 OA
ATOM     10  N   UNL     1      -2.300  -0.086   0.859  0.00  0.00    +0.398 N 
ATOM     11  H   UNL     1      -3.177   0.025   0.336  0.00  0.00    -0.083 HD
ATOM     12  H   UNL     1      -1.947   0.838   1.135  0.00  0.00    -0.083 HD
ENDROOT
BRANCH   4  13
ATOM     13  C   UNL     1      -3.742  -1.811   1.889  0.00  0.00    -0.060 A 
ATOM     14  C   UNL     1      -3.978  -2.398   0.660  0.00  0.00    +0.005 A 
ATOM     15  C   UNL     1      -5.073  -3.221   0.485  0.00  0.00    +0.045 A 
ATOM     16  C   UNL     1      -5.943  -3.450   1.541  0.00  0.00    +0.117 A 
ATOM     17  C   UNL     1      -5.708  -2.856   2.772  0.00  0.00    +0.045 A 
ATOM     18  C   UNL     1      -4.608  -2.038   2.944  0.00  0.00    +0.005 A 
BRANCH  16  19
ATOM     19  O   UNL     1      -7.025  -4.255   1.369  0.00  0.00    -0.507 OA
ATOM     20  H   UNL     1      -7.819  -3.789   1.074  0.00  0.00    +0.292 HD
ENDBRANCH  16  19
ENDBRANCH   4  13
BRANCH   7  21
ATOM     21  C   UNL     1       1.257  -4.191   2.517  0.00  0.00    +0.044 A 
ATOM     22  C   UNL     1       2.276  -4.584   1.660  0.00  0.00    +0.024 A 
ATOM     23  C   UNL     1       3.233  -5.480   2.094  0.00  0.00    +0.002 A 
ATOM     24  C   UNL     1       3.171  -5.995   3.375  0.00  0.00    +0.000 A 
ATOM     25  C   UNL     1       2.154  -5.610   4.229  0.00  0.00    +0.002 A 
ATOM     26  C   UNL     1       1.197  -4.709   3.804  0.00  0.00    +0.024 A 
ENDBRANCH   7  21
BRANCH   1  27
ATOM     27  C   UNL     1      -1.811  -0.937  -1.396  0.00  0.00    -0.047 A 
ATOM     28  C   UNL     1      -1.446  -2.041  -2.144  0.00  0.00    +0.003 A 
ATOM     29  C   UNL     1      -1.925  -2.192  -3.432  0.00  0.00    +0.000 A 
ATOM     30  C   UNL     1      -2.761  -1.234  -3.975  0.00  0.00    +0.000 A 
ATOM     31  C   UNL     1      -3.122  -0.128  -3.228  0.00  0.00    +0.000 A 
ATOM     32  C   UNL     1      -2.647   0.021  -1.939  0.00  0.00    +0.003 A 
ENDBRANCH   1  27
BRANCH   1  33
ATOM     33  C   UNL     1       0.002  -0.004   0.002  0.00  0.00    +0.301 C 
ATOM     34  O   UNL     1       1.056  -0.594  -0.011  0.00  0.00    -0.252 OA
BRANCH  33  35
ATOM     35  O   UNL     1      -0.016   1.338   0.009  0.00  0.00    -0.466 OA
BRANCH  35  37
ATOM     36  C   UNL     1       1.048   3.529   0.011  0.00  0.00    +0.048 C 
ATOM     37  C   UNL     1       1.268   2.015   0.001  0.00  0.00    +0.228 C 
ENDBRANCH  35  37
ENDBRANCH  33  35
ENDBRANCH   1  33
TORSDOF 7
