REMARK  Name = ZINC09619939
REMARK  6 active torsions:
REMARK  status: ('A' for Active; 'I' for Inactive)
REMARK    1  A    between atoms: C_4  and  C_7
REMARK    2  A    between atoms: C_7  and  C_9
REMARK    3  A    between atoms: C_7  and  N_14
REMARK    4  A    between atoms: C_15  and  C_17
REMARK    5  A    between atoms: C_17  and  N_56
REMARK    6  A    between atoms: C_20  and  C_23
REMARK                            x       y       z     vdW  Elec       q    Type
REMARK                         _______ _______ _______ _____ _____    ______ ____
ROOT
ATOM      1  C   UNL     1       3.216   7.335   0.011  0.00  0.00    +0.019 C 
ENDROOT
BRANCH   1   7
ATOM      2  C   UNL     1       2.170   5.519   1.222  0.00  0.00    -0.078 C 
ATOM      3  C   UNL     1       1.985   4.000   1.252  0.00  0.00    -0.009 C 
ATOM      4  C   UNL     1       1.207   3.561   0.009  0.00  0.00    +0.041 C 
ATOM      5  C   UNL     1       1.962   4.013  -1.244  0.00  0.00    -0.009 C 
ATOM      6  C   UNL     1       2.148   5.532  -1.201  0.00  0.00    -0.078 C 
ATOM      7  N   UNL     1       2.925   5.887   0.006  0.00  0.00    +0.385 N 
ATOM      8  H   UNL     1       3.812   5.369  -0.004  0.00  0.00    -0.081 HD
BRANCH   4   9
ATOM      9  C   UNL     1       1.073   2.060   0.003  0.00  0.00    +0.082 A 
ATOM     10  N   UNL     1      -0.016   1.345   0.009  0.00  0.00    -0.244 NA
ATOM     11  C   UNL     1       0.002  -0.004   0.002  0.00  0.00    +0.078 A 
ATOM     12  C   UNL     1      -1.082  -0.909   0.007  0.00  0.00    +0.029 A 
ATOM     13  C   UNL     1      -0.866  -2.252  -0.002  0.00  0.00    +0.002 A 
ATOM     14  C   UNL     1       0.417  -2.783  -0.017  0.00  0.00    +0.001 A 
ATOM     15  C   UNL     1       1.504  -1.931  -0.023  0.00  0.00    +0.017 A 
ATOM     16  C   UNL     1       1.296  -0.573  -0.013  0.00  0.00    +0.039 A 
ATOM     17  S   UNL     1       2.335   0.867  -0.016  0.00  0.00    -0.072 S 
ENDBRANCH   4   9
ENDBRANCH   1   7
BRANCH   1  19
ATOM     18  N   UNL     1       4.598   8.906  -1.309  0.00  0.00    -0.306 N 
ATOM     19  C   UNL     1       4.166   7.643  -1.118  0.00  0.00    +0.197 C 
ATOM     20  O   UNL     1       4.543   6.755  -1.853  0.00  0.00    -0.278 OA
ATOM     21  H   UNL     1       4.297   9.616  -0.721  0.00  0.00    +0.150 HD
BRANCH  18  22
ATOM     22  C   UNL     1       5.522   9.205  -2.406  0.00  0.00    +0.140 C 
BRANCH  22  26
ATOM     23  C   UNL     1       7.762  12.718  -1.463  0.00  0.00    +0.000 A 
ATOM     24  C   UNL     1       8.383  11.647  -2.079  0.00  0.00    +0.000 A 
ATOM     25  C   UNL     1       7.658  10.510  -2.384  0.00  0.00    +0.006 A 
ATOM     26  C   UNL     1       6.312  10.444  -2.073  0.00  0.00    -0.022 A 
ATOM     27  C   UNL     1       5.691  11.517  -1.461  0.00  0.00    +0.006 A 
ATOM     28  C   UNL     1       6.417  12.652  -1.152  0.00  0.00    +0.000 A 
ENDBRANCH  22  26
BRANCH  22  29
ATOM     29  C   UNL     1       4.740   9.434  -3.674  0.00  0.00    +0.014 A 
ATOM     30  C   UNL     1       5.029   9.040  -4.938  0.00  0.00    +0.013 A 
ATOM     31  C   UNL     1       4.154   9.362  -5.958  0.00  0.00    +0.008 A 
ATOM     32  C   UNL     1       3.037  10.073  -5.665  0.00  0.00    +0.045 A 
ATOM     33  S   UNL     1       3.196  10.300  -3.901  0.00  0.00    -0.099 S 
ENDBRANCH  22  29
ENDBRANCH  18  22
ENDBRANCH   1  19
TORSDOF 6
