REMARK  Name = ZINC09012333
REMARK  5 active torsions:
REMARK  status: ('A' for Active; 'I' for Inactive)
REMARK    1  A    between atoms: C_1  and  C_2
REMARK    2  A    between atoms: N_23  and  C_26
REMARK    3  A    between atoms: C_29  and  O_32
REMARK    4  A    between atoms: O_32  and  C_33
REMARK    5  A    between atoms: C_33  and  C_35
REMARK                            x       y       z     vdW  Elec       q    Type
REMARK                         _______ _______ _______ _____ _____    ______ ____
ROOT
ATOM      1  C   UNL     1      -1.987   1.475   0.656  0.00  0.00    +0.047 C 
ATOM      2  C   UNL     1      -0.779   2.360   0.488  0.00  0.00    -0.011 A 
ATOM      3  C   UNL     1       0.483   1.801   0.441  0.00  0.00    +0.046 A 
ATOM      4  C   UNL     1       1.597   2.605   0.281  0.00  0.00    +0.020 A 
ATOM      5  C   UNL     1       1.446   3.977   0.172  0.00  0.00    +0.006 A 
ATOM      6  C   UNL     1       0.191   4.538   0.222  0.00  0.00    -0.027 A 
ATOM      7  C   UNL     1      -0.938   3.740   0.384  0.00  0.00    +0.040 A 
ATOM      8  N   UNL     1      -2.089   4.530   0.407  0.00  0.00    -0.286 N 
ATOM      9  C   UNL     1      -1.809   5.840   0.268  0.00  0.00    +0.212 C 
ATOM     10  O   UNL     1      -2.607   6.753   0.252  0.00  0.00    -0.277 OA
ATOM     11  C   UNL     1      -0.315   5.951   0.134  0.00  0.00    +0.053 C 
ATOM     12  C   UNL     1       0.079   6.604  -1.196  0.00  0.00    +0.089 C 
ATOM     13  C   UNL     1       1.332   7.457  -0.859  0.00  0.00    +0.074 C 
ATOM     14  C   UNL     1       1.575   7.242   0.646  0.00  0.00    -0.054 C 
ATOM     15  C   UNL     1      -0.534   8.043   1.327  0.00  0.00    -0.076 C 
ATOM     16  C   UNL     1       0.474   9.118   1.779  0.00  0.00    -0.020 C 
ATOM     17  C   UNL     1       1.850   8.600   1.317  0.00  0.00    -0.016 C 
ATOM     18  C   UNL     1       2.442   6.799  -1.647  0.00  0.00    +0.228 C 
ATOM     19  O   UNL     1       3.599   7.161  -1.664  0.00  0.00    -0.275 OA
ATOM     20  N   UNL     1       1.949   5.754  -2.322  0.00  0.00    -0.210 N 
ATOM     21  C   UNL     1       0.639   5.547  -2.146  0.00  0.00    +0.229 C 
ATOM     22  O   UNL     1      -0.006   4.662  -2.664  0.00  0.00    -0.275 OA
ATOM     23 CL   UNL     1       0.671   0.081   0.578  0.00  0.00    -0.083 Cl
ATOM     24  H   UNL     1      -2.986   4.176   0.512  0.00  0.00    +0.155 HD
ATOM     25  N   UNL     1       0.284   6.831   1.149  0.00  0.00    +0.395 N 
ATOM     26  H   UNL     1       0.380   6.333   2.042  0.00  0.00    -0.079 HD
ENDROOT
BRANCH  20  27
ATOM     27  C   UNL     1       2.741   4.942  -3.148  0.00  0.00    +0.044 A 
ATOM     28  C   UNL     1       3.807   4.234  -2.609  0.00  0.00    +0.027 A 
ATOM     29  C   UNL     1       4.582   3.431  -3.421  0.00  0.00    +0.048 A 
ATOM     30  C   UNL     1       4.304   3.340  -4.777  0.00  0.00    +0.132 A 
ATOM     31  C   UNL     1       3.243   4.052  -5.317  0.00  0.00    +0.048 A 
ATOM     32  C   UNL     1       2.463   4.851  -4.505  0.00  0.00    +0.027 A 
BRANCH  30  33
ATOM     33  O   UNL     1       5.072   2.553  -5.577  0.00  0.00    -0.426 OA
BRANCH  33  34
ATOM     34  C   UNL     1       5.970   3.172  -6.360  0.00  0.00    +0.309 C 
ATOM     35  O   UNL     1       6.142   4.364  -6.256  0.00  0.00    -0.251 OA
ATOM     36  C   UNL     1       6.763   2.381  -7.368  0.00  0.00    +0.136 C 
ENDBRANCH  33  34
ENDBRANCH  30  33
ENDBRANCH  20  27
TORSDOF 3
