REMARK  Name = ZINC04820930
REMARK  9 active torsions:
REMARK  status: ('A' for Active; 'I' for Inactive)
REMARK    1  A    between atoms: C_1  and  C_2
REMARK    2  A    between atoms: C_7  and  N_8
REMARK    3  A    between atoms: C_9  and  C_11
REMARK    4  A    between atoms: C_12  and  C_31
REMARK    5  A    between atoms: C_17  and  C_19
REMARK    6  A    between atoms: C_22  and  O_30
REMARK    7  A    between atoms: C_23  and  O_28
REMARK    8  A    between atoms: C_24  and  N_25
REMARK    9  A    between atoms: O_28  and  C_29
REMARK                            x       y       z     vdW  Elec       q    Type
REMARK                         _______ _______ _______ _____ _____    ______ ____
ROOT
ATOM      1  C   UNL     1      -0.077   0.541   4.759  0.00  0.00    +0.056 C 
ATOM      2  C   UNL     1       0.019  -0.025   5.980  0.00  0.00    +0.019 C 
ATOM      3  N   UNL     1       0.000   0.738   7.114  0.00  0.00    -0.273 N 
ATOM      4  C   UNL     1      -0.114   2.072   7.109  0.00  0.00    +0.304 C 
ATOM      5  O   UNL     1      -0.122   2.666   8.170  0.00  0.00    -0.252 OA
ATOM      6  N   UNL     1      -0.219   2.779   5.966  0.00  0.00    -0.288 N 
ATOM      7  C   UNL     1      -0.202   2.049   4.687  0.00  0.00    +0.144 C 
ATOM      8  C   UNL     1       0.150  -1.521   6.096  0.00  0.00    +0.061 C 
ATOM      9  H   UNL     1       0.072   0.288   7.970  0.00  0.00    +0.156 HD
ATOM     10  H   UNL     1      -0.300   3.745   5.985  0.00  0.00    +0.151 HD
ENDROOT
BRANCH   7  11
ATOM     11  C   UNL     1       0.948   2.571   3.864  0.00  0.00    +0.011 A 
ATOM     12  C   UNL     1       2.159   2.849   4.469  0.00  0.00    +0.012 A 
ATOM     13  C   UNL     1       3.217   3.329   3.719  0.00  0.00    +0.049 A 
ATOM     14  C   UNL     1       3.064   3.531   2.357  0.00  0.00    +0.161 A 
ATOM     15  C   UNL     1       1.845   3.251   1.747  0.00  0.00    +0.192 A 
ATOM     16  C   UNL     1       0.790   2.766   2.505  0.00  0.00    +0.176 A 
BRANCH  16  17
ATOM     17  N   UNL     1      -0.506   2.462   1.859  0.00  0.00    +0.061 N 
ATOM     18  O   UNL     1      -1.342   3.327   1.743  0.00  0.00    -0.126 OA
ATOM     19  O   UNL     1      -0.729   1.347   1.446  0.00  0.00    -0.126 OA
ENDBRANCH  16  17
BRANCH  15  20
ATOM     20  O   UNL     1       1.690   3.447   0.411  0.00  0.00    -0.489 OA
ATOM     21  C   UNL     1       1.915   2.323  -0.441  0.00  0.00    +0.277 C 
ENDBRANCH  15  20
BRANCH  14  22
ATOM     22  O   UNL     1       4.103   4.003   1.617  0.00  0.00    -0.503 OA
ATOM     23  H   UNL     1       4.670   3.311   1.250  0.00  0.00    +0.292 HD
ENDBRANCH  14  22
ENDBRANCH   7  11
BRANCH   1  25
ATOM     24  N   UNL     1      -1.162  -0.922   3.204  0.00  0.00    -0.281 N 
ATOM     25  C   UNL     1      -0.058  -0.249   3.583  0.00  0.00    +0.248 C 
ATOM     26  O   UNL     1       0.958  -0.320   2.914  0.00  0.00    -0.270 OA
ATOM     27  H   UNL     1      -1.989  -0.814   3.699  0.00  0.00    +0.155 HD
BRANCH  24  34
ATOM     28  C   UNL     1      -3.615  -1.620   1.942  0.00  0.00    +0.045 C 
ATOM     29  C   UNL     1      -2.289  -2.143   1.452  0.00  0.00    -0.029 A 
ATOM     30  C   UNL     1      -2.239  -2.982   0.356  0.00  0.00    +0.005 A 
ATOM     31  C   UNL     1      -1.023  -3.462  -0.094  0.00  0.00    +0.000 A 
ATOM     32  C   UNL     1       0.147  -3.104   0.551  0.00  0.00    +0.002 A 
ATOM     33  C   UNL     1       0.104  -2.265   1.647  0.00  0.00    +0.023 A 
ATOM     34  C   UNL     1      -1.116  -1.776   2.098  0.00  0.00    +0.037 A 
ENDBRANCH  24  34
ENDBRANCH   1  25
TORSDOF 6
