REMARK  Name = ZINC20850550
REMARK  10 active torsions:
REMARK  status: ('A' for Active; 'I' for Inactive)
REMARK    1  A    between atoms: C_1  and  C_2
REMARK    2  A    between atoms: C_2  and  C_36
REMARK    3  A    between atoms: C_6  and  C_23
REMARK    4  A    between atoms: C_11  and  S_13
REMARK    5  A    between atoms: S_13  and  C_14
REMARK    6  A    between atoms: C_14  and  C_15
REMARK    7  A    between atoms: C_27  and  O_31
REMARK    8  A    between atoms: C_28  and  O_29
REMARK    9  A    between atoms: O_29  and  C_30
REMARK   10  A    between atoms: O_31  and  C_32
REMARK                            x       y       z     vdW  Elec       q    Type
REMARK                         _______ _______ _______ _____ _____    ______ ____
ROOT
ATOM      1  C   UNL     1       4.948   0.205   3.185  0.00  0.00    +0.011 C 
ATOM      2  C   UNL     1       4.065  -0.551   4.180  0.00  0.00    -0.023 C 
ATOM      3  C   UNL     1       3.389   0.442   5.128  0.00  0.00    +0.058 C 
ATOM      4  C   UNL     1       2.511   1.383   4.337  0.00  0.00    +0.020 C 
ATOM      5  C   UNL     1       1.910   0.978   3.198  0.00  0.00    +0.041 C 
ATOM      6  C   UNL     1       1.020   1.895   2.388  0.00  0.00    +0.179 C 
ATOM      7  N   UNL     1       0.678   3.076   3.171  0.00  0.00    -0.220 N 
ATOM      8  C   UNL     1       1.317   3.425   4.315  0.00  0.00    +0.219 A 
ATOM      9  N   UNL     1       0.780   4.527   4.760  0.00  0.00    -0.187 NA
ATOM     10  C   UNL     1      -0.205   4.911   3.935  0.00  0.00    +0.211 A 
ATOM     11  N   UNL     1      -0.299   4.045   2.949  0.00  0.00    -0.141 NA
ATOM     12  N   UNL     1       2.347   2.655   4.830  0.00  0.00    -0.287 N 
ATOM     13  C   UNL     1       2.092  -0.330   2.711  0.00  0.00    +0.164 C 
ATOM     14  O   UNL     1       1.523  -0.669   1.692  0.00  0.00    -0.292 OA
ATOM     15  C   UNL     1       2.974  -1.316   3.425  0.00  0.00    +0.086 C 
ATOM     16  C   UNL     1       4.919  -1.532   4.986  0.00  0.00    +0.011 C 
ATOM     17  H   UNL     1       3.024   3.035   5.609  0.00  0.00    +0.155 HD
ENDROOT
BRANCH   6  18
ATOM     18  C   UNL     1       1.745   2.318   1.136  0.00  0.00    +0.027 A 
ATOM     19  C   UNL     1       2.910   1.674   0.761  0.00  0.00    +0.010 A 
ATOM     20  C   UNL     1       3.580   2.063  -0.383  0.00  0.00    +0.004 A 
ATOM     21  C   UNL     1       3.085   3.094  -1.161  0.00  0.00    +0.049 A 
ATOM     22  C   UNL     1       1.915   3.738  -0.795  0.00  0.00    +0.162 A 
ATOM     23  C   UNL     1       1.240   3.347   0.358  0.00  0.00    +0.167 A 
BRANCH  23  24
ATOM     24  O   UNL     1       0.091   3.976   0.722  0.00  0.00    -0.491 OA
ATOM     25  C   UNL     1      -1.121   3.511   0.126  0.00  0.00    +0.277 C 
ENDBRANCH  23  24
BRANCH  22  26
ATOM     26  O   UNL     1       1.427   4.752  -1.559  0.00  0.00    -0.491 OA
ATOM     27  C   UNL     1       2.172   5.100  -2.728  0.00  0.00    +0.277 C 
ENDBRANCH  22  26
ENDBRANCH   6  18
BRANCH  10  28
ATOM     28  S   UNL     1      -1.212   6.343   4.140  0.00  0.00    -0.080 S 
BRANCH  28  29
ATOM     29  C   UNL     1      -0.591   7.101   5.666  0.00  0.00    +0.112 C 
BRANCH  29  30
ATOM     30  C   UNL     1      -1.377   8.353   5.961  0.00  0.00    -0.034 A 
ATOM     31  C   UNL     1      -0.950   9.570   5.462  0.00  0.00    +0.004 A 
ATOM     32  C   UNL     1      -1.673  10.718   5.728  0.00  0.00    +0.003 A 
ATOM     33  C   UNL     1      -2.817  10.652   6.500  0.00  0.00    +0.038 A 
ATOM     34  C   UNL     1      -3.242   9.435   7.004  0.00  0.00    +0.124 A 
ATOM     35  C   UNL     1      -2.520   8.285   6.733  0.00  0.00    +0.042 A 
ATOM     36  F   UNL     1      -4.360   9.370   7.760  0.00  0.00    -0.205 F 
ENDBRANCH  29  30
ENDBRANCH  28  29
ENDBRANCH  10  28
TORSDOF 6
