REMARK  Name = ZINC13131978
REMARK  4 active torsions:
REMARK  status: ('A' for Active; 'I' for Inactive)
REMARK    1  A    between atoms: C_1  and  O_2
REMARK    2  A    between atoms: O_2  and  C_3
REMARK    3  A    between atoms: C_6  and  C_9
REMARK    4  A    between atoms: C_12  and  C_21
REMARK                            x       y       z     vdW  Elec       q    Type
REMARK                         _______ _______ _______ _____ _____    ______ ____
ROOT
ATOM      1  C   UNL     1      -4.981  -2.629   0.035  0.00  0.00    +0.143 C 
ATOM      2  C   UNL     1      -5.087  -3.514   1.283  0.00  0.00    +0.058 C 
ATOM      3  C   UNL     1      -6.308  -4.434   1.163  0.00  0.00    +0.106 C 
ATOM      4  N   UNL     1      -6.117  -5.319  -0.002  0.00  0.00    -0.307 N 
ATOM      5  C   UNL     1      -5.626  -4.721  -1.155  0.00  0.00    +0.216 A 
ATOM      6  N   UNL     1      -5.100  -3.471  -1.155  0.00  0.00    -0.224 N 
ATOM      7  N   UNL     1      -4.719  -3.196  -2.470  0.00  0.00    -0.132 NA
ATOM      8  C   UNL     1      -5.023  -4.258  -3.182  0.00  0.00    +0.233 A 
ATOM      9  N   UNL     1      -5.572  -5.185  -2.375  0.00  0.00    -0.180 NA
ATOM     10  N   UNL     1      -4.808  -4.402  -4.554  0.00  0.00    -0.326 N 
ATOM     11  H   UNL     1      -6.323  -6.267   0.035  0.00  0.00    +0.149 HD
ATOM     12  H   UNL     1      -4.402  -3.680  -5.059  0.00  0.00    +0.145 HD
ATOM     13  H   UNL     1      -5.064  -5.223  -5.001  0.00  0.00    +0.145 HD
ENDROOT
BRANCH   3  14
ATOM     14  C   UNL     1      -7.551  -3.603   0.973  0.00  0.00    -0.026 A 
ATOM     15  C   UNL     1      -7.860  -3.098  -0.276  0.00  0.00    +0.007 A 
ATOM     16  C   UNL     1      -8.999  -2.335  -0.451  0.00  0.00    +0.022 A 
ATOM     17  C   UNL     1      -9.831  -2.077   0.624  0.00  0.00    +0.059 A 
ATOM     18  C   UNL     1      -9.521  -2.583   1.875  0.00  0.00    +0.060 A 
ATOM     19  C   UNL     1      -8.383  -3.351   2.047  0.00  0.00    +0.027 A 
ATOM     20 CL   UNL     1     -10.564  -2.260   3.225  0.00  0.00    -0.082 Cl
ATOM     21 CL   UNL     1     -11.262  -1.119   0.405  0.00  0.00    -0.082 Cl
ENDBRANCH   3  14
BRANCH   1  25
ATOM     22  C   UNL     1      -1.200  -0.637   0.010  0.00  0.00    +0.120 A 
ATOM     23  C   UNL     1      -2.375   0.101   0.019  0.00  0.00    +0.046 A 
ATOM     24  C   UNL     1      -3.596  -0.545   0.027  0.00  0.00    +0.009 A 
ATOM     25  C   UNL     1      -3.648  -1.927   0.026  0.00  0.00    -0.023 A 
ATOM     26  C   UNL     1      -2.479  -2.665   0.017  0.00  0.00    +0.009 A 
ATOM     27  C   UNL     1      -1.255  -2.024   0.003  0.00  0.00    +0.046 A 
BRANCH  22  29
ATOM     28  C   UNL     1      -0.017   1.425   0.010  0.00  0.00    +0.277 C 
ATOM     29  O   UNL     1       0.002  -0.004   0.002  0.00  0.00    -0.495 OA
ENDBRANCH  22  29
ENDBRANCH   1  25
TORSDOF 3
