REMARK  Name = ZINC03455183
REMARK  7 active torsions:
REMARK  status: ('A' for Active; 'I' for Inactive)
REMARK    1  A    between atoms: C_1  and  C_2
REMARK    2  A    between atoms: C_9  and  N_14
REMARK    3  A    between atoms: C_10  and  C_11
REMARK    4  A    between atoms: C_15  and  C_17
REMARK    5  A    between atoms: C_17  and  S_18
REMARK    6  A    between atoms: S_18  and  C_19
REMARK    7  A    between atoms: N_23  and  C_24
REMARK                            x       y       z     vdW  Elec       q    Type
REMARK                         _______ _______ _______ _____ _____    ______ ____
ROOT
ATOM      1  N   UNL     1       4.059   6.860  -4.513  0.00  0.00    -0.279 N 
ATOM      2  C   UNL     1       3.404   5.859  -3.893  0.00  0.00    +0.228 C 
ATOM      3  O   UNL     1       2.285   5.554  -4.248  0.00  0.00    -0.275 OA
ATOM      4  H   UNL     1       4.954   7.104  -4.229  0.00  0.00    +0.155 HD
ENDROOT
BRANCH   1  12
ATOM      5  C   UNL     1       0.265  10.511 -10.298  0.00  0.00    +0.008 C 
ATOM      6  C   UNL     1       1.159  10.264  -9.082  0.00  0.00    -0.009 C 
ATOM      7  C   UNL     1       2.630  10.277  -9.511  0.00  0.00    +0.008 C 
ATOM      8  C   UNL     1       3.532  10.280  -8.275  0.00  0.00    +0.037 C 
ATOM      9  C   UNL     1       3.118   9.133  -7.362  0.00  0.00    -0.023 A 
ATOM     10  C   UNL     1       1.908   8.546  -7.488  0.00  0.00    -0.004 A 
ATOM     11  S   UNL     1       1.884   7.287  -6.244  0.00  0.00    -0.077 S 
ATOM     12  C   UNL     1       3.455   7.541  -5.558  0.00  0.00    +0.084 A 
ATOM     13  C   UNL     1       3.963   8.589  -6.313  0.00  0.00    +0.068 A 
ATOM     14  C   UNL     1       0.834   8.891  -8.473  0.00  0.00    +0.046 C 
BRANCH  13  15
ATOM     15  C   UNL     1       5.303   9.127  -6.061  0.00  0.00    +0.244 C 
ATOM     16  O   UNL     1       6.266   8.660  -6.641  0.00  0.00    -0.270 OA
ATOM     17  N   UNL     1       5.470  10.140  -5.187  0.00  0.00    -0.325 N 
ATOM     18  H   UNL     1       4.702  10.512  -4.725  0.00  0.00    +0.145 HD
ATOM     19  H   UNL     1       6.356  10.496  -5.020  0.00  0.00    +0.145 HD
ENDBRANCH  13  15
ENDBRANCH   1  12
BRANCH   2  20
ATOM     20  C   UNL     1       4.061   5.118  -2.757  0.00  0.00    +0.173 C 
BRANCH  20  21
ATOM     21  S   UNL     1       2.937   3.842  -2.137  0.00  0.00    -0.076 S 
BRANCH  21  22
ATOM     22  C   UNL     1       3.931   3.154  -0.855  0.00  0.00    +0.196 A 
ATOM     23  N   UNL     1       5.142   3.532  -0.518  0.00  0.00    -0.122 NA
ATOM     24  N   UNL     1       5.569   2.814   0.458  0.00  0.00    -0.137 NA
ATOM     25  C   UNL     1       4.662   1.945   0.805  0.00  0.00    +0.230 A 
ATOM     26  N   UNL     1       3.586   2.125  -0.022  0.00  0.00    -0.277 N 
BRANCH  26  27
ATOM     27  C   UNL     1       2.381   1.409  -0.014  0.00  0.00    +0.050 A 
ATOM     28  C   UNL     1       1.169   2.087   0.002  0.00  0.00    +0.026 A 
ATOM     29  C   UNL     1      -0.017   1.379   0.010  0.00  0.00    +0.002 A 
ATOM     30  C   UNL     1       0.002  -0.004   0.002  0.00  0.00    +0.000 A 
ATOM     31  C   UNL     1       1.207  -0.682  -0.013  0.00  0.00    +0.002 A 
ATOM     32  C   UNL     1       2.396   0.021  -0.021  0.00  0.00    +0.026 A 
ENDBRANCH  26  27
ENDBRANCH  21  22
ENDBRANCH  20  21
ENDBRANCH   2  20
TORSDOF 6
