REMARK  Name = ZINC14475648
REMARK  6 active torsions:
REMARK  status: ('A' for Active; 'I' for Inactive)
REMARK    1  A    between atoms: C_3  and  O_36
REMARK    2  A    between atoms: C_4  and  C_10
REMARK    3  A    between atoms: C_6  and  N_7
REMARK    4  A    between atoms: C_21  and  S_26
REMARK    5  A    between atoms: S_26  and  N_29
REMARK    6  A    between atoms: N_29  and  C_30
REMARK                            x       y       z     vdW  Elec       q    Type
REMARK                         _______ _______ _______ _____ _____    ______ ____
ROOT
ATOM      1  C   UNL     1       3.710  -0.717  -0.038  0.00  0.00    +0.108 C 
ATOM      2  C   UNL     1       4.252  -0.790  -1.454  0.00  0.00    +0.029 C 
ATOM      3  C   UNL     1       4.698   0.527  -2.102  0.00  0.00    +0.033 C 
ATOM      4  C   UNL     1       5.791   0.045  -3.058  0.00  0.00    -0.030 C 
ATOM      5  C   UNL     1       6.317  -1.089  -2.611  0.00  0.00    -0.023 C 
ATOM      6  C   UNL     1       5.649  -1.469  -1.329  0.00  0.00    +0.049 C 
ATOM      7  C   UNL     1       5.435  -2.873  -0.918  0.00  0.00    -0.018 A 
ATOM      8  C   UNL     1       6.238  -3.904  -1.357  0.00  0.00    +0.034 A 
ATOM      9  C   UNL     1       6.006  -5.199  -0.933  0.00  0.00    +0.106 A 
ATOM     10  C   UNL     1       4.964  -5.465  -0.063  0.00  0.00    +0.030 A 
ATOM     11  C   UNL     1       4.151  -4.441   0.378  0.00  0.00    +0.025 A 
ATOM     12  C   UNL     1       4.372  -3.137  -0.047  0.00  0.00    +0.031 A 
ATOM     13  N   UNL     1       3.513  -2.119   0.390  0.00  0.00    -0.336 N 
ATOM     14  H   UNL     1       2.775  -2.338   0.980  0.00  0.00    +0.147 HD
ENDROOT
BRANCH   1  18
ATOM     15  C   UNL     1      -0.017   1.378   0.010  0.00  0.00    +0.036 A 
ATOM     16  C   UNL     1       1.170   2.086   0.002  0.00  0.00    +0.048 A 
ATOM     17  C   UNL     1       2.380   1.409  -0.013  0.00  0.00    +0.122 A 
ATOM     18  C   UNL     1       2.396   0.022  -0.021  0.00  0.00    +0.017 A 
ATOM     19  C   UNL     1       1.208  -0.681  -0.013  0.00  0.00    +0.041 A 
ATOM     20  C   UNL     1       0.002  -0.004   0.002  0.00  0.00    +0.127 A 
BRANCH  20  21
ATOM     21  N   UNL     1      -1.270  -0.760   0.011  0.00  0.00    +0.056 N 
ATOM     22  O   UNL     1      -2.325  -0.169   0.024  0.00  0.00    -0.126 OA
ATOM     23  O   UNL     1      -1.255  -1.969   0.004  0.00  0.00    -0.126 OA
ENDBRANCH  20  21
BRANCH  17  24
ATOM     24  O   UNL     1       3.548   2.104  -0.021  0.00  0.00    -0.506 OA
ATOM     25  H   UNL     1       3.895   2.300   0.860  0.00  0.00    +0.292 HD
ENDBRANCH  17  24
ENDBRANCH   1  18
BRANCH   9  26
ATOM     26  S   UNL     1       7.036  -6.511  -1.502  0.00  0.00    +0.059 S 
ATOM     27  O   UNL     1       6.273  -7.704  -1.388  0.00  0.00    -0.153 OA
ATOM     28  O   UNL     1       7.598  -6.080  -2.734  0.00  0.00    -0.153 OA
BRANCH  26  29
ATOM     29  N   UNL     1       8.291  -6.647  -0.431  0.00  0.00    -0.187 NA
ATOM     30  H   UNL     1       9.198  -6.458  -0.719  0.00  0.00    +0.148 HD
BRANCH  29  31
ATOM     31  C   UNL     1       8.033  -7.053   0.953  0.00  0.00    +0.077 C 
ATOM     32  C   UNL     1       7.897  -5.808   1.833  0.00  0.00    +0.020 C 
ATOM     33  C   UNL     1       7.627  -6.232   3.278  0.00  0.00    +0.002 C 
ATOM     34  C   UNL     1       8.789  -7.089   3.783  0.00  0.00    +0.000 C 
ATOM     35  C   UNL     1       8.924  -8.334   2.904  0.00  0.00    +0.002 C 
ATOM     36  C   UNL     1       9.194  -7.910   1.459  0.00  0.00    +0.020 C 
ENDBRANCH  29  31
ENDBRANCH  26  29
ENDBRANCH   9  26
TORSDOF 6
