REMARK  Name = ZINC36529208
REMARK  16 active torsions:
REMARK  status: ('A' for Active; 'I' for Inactive)
REMARK    1  A    between atoms: C_1  and  C_2
REMARK    2  A    between atoms: C_2  and  C_3
REMARK    3  A    between atoms: C_2  and  C_4
REMARK    4  A    between atoms: C_2  and  C_5
REMARK    5  A    between atoms: C_5  and  C_6
REMARK    6  A    between atoms: C_6  and  C_7
REMARK    7  A    between atoms: C_6  and  C_8
REMARK    8  A    between atoms: C_6  and  N_9
REMARK    9  A    between atoms: C_10  and  C_12
REMARK   10  A    between atoms: C_12  and  C_14
REMARK   11  A    between atoms: C_12  and  N_23
REMARK   12  A    between atoms: C_15  and  O_22
REMARK   13  A    between atoms: C_17  and  O_21
REMARK   14  A    between atoms: C_19  and  O_20
REMARK   15  A    between atoms: N_23  and  C_24
REMARK   16  A    between atoms: C_25  and  C_27
REMARK                            x       y       z     vdW  Elec       q    Type
REMARK                         _______ _______ _______ _____ _____    ______ ____
ROOT
ATOM      1  C   UNL     1       5.323  -0.277  -4.261  0.00  0.00    +0.199 C 
ENDROOT
BRANCH   1   2
ATOM      2  C   UNL     1       4.924   1.101  -4.722  0.00  0.00    +0.065 A 
ATOM      3  C   UNL     1       5.476   2.221  -4.119  0.00  0.00    +0.129 A 
ATOM      4  C   UNL     1       5.109   3.489  -4.543  0.00  0.00    +0.091 A 
ATOM      5  C   UNL     1       4.190   3.638  -5.570  0.00  0.00    +0.124 A 
ATOM      6  C   UNL     1       3.638   2.518  -6.174  0.00  0.00    +0.091 A 
ATOM      7  C   UNL     1       4.008   1.250  -5.753  0.00  0.00    +0.129 A 
BRANCH   7   8
ATOM      8  O   UNL     1       3.471   0.152  -6.348  0.00  0.00    -0.506 OA
ATOM      9  H   UNL     1       2.655  -0.161  -5.933  0.00  0.00    +0.292 HD
ENDBRANCH   7   8
BRANCH   5  10
ATOM     10  O   UNL     1       3.829   4.880  -5.985  0.00  0.00    -0.507 OA
ATOM     11  H   UNL     1       4.383   5.234  -6.695  0.00  0.00    +0.292 HD
ENDBRANCH   5  10
BRANCH   3  12
ATOM     12  O   UNL     1       6.377   2.076  -3.112  0.00  0.00    -0.506 OA
ATOM     13  H   UNL     1       7.299   2.105  -3.401  0.00  0.00    +0.292 HD
ENDBRANCH   3  12
ENDBRANCH   1   2
BRANCH   1  15
ATOM     14  N   UNL     1       3.508  -1.198  -2.855  0.00  0.00    -0.308 N 
ATOM     15  C   UNL     1       4.694  -0.560  -2.921  0.00  0.00    +0.239 C 
ATOM     16  O   UNL     1       5.254  -0.215  -1.903  0.00  0.00    -0.273 OA
ATOM     17  H   UNL     1       3.060  -1.475  -3.670  0.00  0.00    +0.149 HD
BRANCH  14  18
ATOM     18  C   UNL     1       2.896  -1.474  -1.553  0.00  0.00    +0.030 C 
ATOM     19  C   UNL     1       2.982  -0.224  -0.674  0.00  0.00    +0.031 C 
ATOM     20  C   UNL     1       3.639  -2.626  -0.874  0.00  0.00    +0.031 C 
BRANCH  18  21
ATOM     21  C   UNL     1       1.429  -1.859  -1.750  0.00  0.00    +0.031 C 
BRANCH  21  23
ATOM     22  C   UNL     1       1.141  -1.335  -4.176  0.00  0.00    +0.010 C 
ATOM     23  C   UNL     1       0.781  -0.903  -2.753  0.00  0.00    -0.036 C 
ATOM     24  C   UNL     1       1.292   0.518  -2.506  0.00  0.00    +0.010 C 
ATOM     25  C   UNL     1      -0.739  -0.935  -2.579  0.00  0.00    +0.010 C 
ENDBRANCH  21  23
ENDBRANCH  18  21
ENDBRANCH  14  18
ENDBRANCH   1  15
BRANCH   1  26
ATOM     26  N   UNL     1       6.781  -0.348  -4.140  0.00  0.00    -0.282 N 
ATOM     27  C   UNL     1       7.411  -0.276  -2.820  0.00  0.00    +0.133 C 
ATOM     28  C   UNL     1       7.543  -0.481  -5.244  0.00  0.00    +0.283 C 
ATOM     29  O   UNL     1       8.754  -0.551  -5.143  0.00  0.00    -0.267 OA
BRANCH  28  30
ATOM     30  C   UNL     1       6.913  -0.540  -6.567  0.00  0.00    +0.189 A 
ATOM     31  C   UNL     1       7.564  -0.529  -7.767  0.00  0.00    +0.054 A 
ATOM     32  C   UNL     1       6.577  -0.601  -8.762  0.00  0.00    +0.042 A 
ATOM     33  C   UNL     1       5.382  -0.652  -8.134  0.00  0.00    +0.196 A 
ATOM     34  O   UNL     1       5.589  -0.620  -6.811  0.00  0.00    -0.458 OA
ENDBRANCH  28  30
ENDBRANCH   1  26
TORSDOF 10
