REMARK  Name = ZINC41630101
REMARK  12 active torsions:
REMARK  status: ('A' for Active; 'I' for Inactive)
REMARK    1  A    between atoms: C_1  and  C_2
REMARK    2  A    between atoms: C_2  and  C_4
REMARK    3  A    between atoms: C_2  and  S_19
REMARK    4  A    between atoms: N_6  and  C_7
REMARK    5  A    between atoms: C_8  and  C_16
REMARK    6  A    between atoms: C_12  and  C_13
REMARK    7  A    between atoms: C_13  and  C_14
REMARK    8  A    between atoms: C_13  and  C_15
REMARK    9  A    between atoms: C_16  and  C_17
REMARK   10  A    between atoms: C_16  and  C_18
REMARK   11  A    between atoms: S_19  and  C_20
REMARK   12  A    between atoms: C_26  and  N_28
REMARK                            x       y       z     vdW  Elec       q    Type
REMARK                         _______ _______ _______ _____ _____    ______ ____
ROOT
ATOM      1  C   UNL     1       1.025  -1.063   0.827  0.00  0.00    +0.230 C 
ATOM      2  O   UNL     1       0.672  -2.080   1.386  0.00  0.00    -0.274 OA
ATOM      3  N   UNL     1       2.100  -0.385   1.277  0.00  0.00    -0.284 N 
ATOM      4  H   UNL     1       2.411   0.401   0.802  0.00  0.00    +0.155 HD
ENDROOT
BRANCH   3   5
ATOM      5  C   UNL     1       2.767  -0.816   2.430  0.00  0.00    +0.040 A 
ATOM      6  C   UNL     1       2.057  -1.032   3.604  0.00  0.00    -0.023 A 
ATOM      7  C   UNL     1       2.718  -1.457   4.740  0.00  0.00    +0.006 A 
ATOM      8  C   UNL     1       4.085  -1.668   4.708  0.00  0.00    +0.001 A 
ATOM      9  C   UNL     1       4.793  -1.454   3.541  0.00  0.00    +0.006 A 
ATOM     10  C   UNL     1       4.138  -1.035   2.400  0.00  0.00    -0.023 A 
BRANCH  10  11
ATOM     11  C   UNL     1       4.910  -0.808   1.126  0.00  0.00    +0.015 C 
ATOM     12  C   UNL     1       5.977   0.263   1.359  0.00  0.00    +0.012 C 
ATOM     13  C   UNL     1       5.583  -2.114   0.699  0.00  0.00    +0.012 C 
ENDBRANCH  10  11
BRANCH   6  14
ATOM     14  C   UNL     1       0.569  -0.801   3.639  0.00  0.00    +0.015 C 
ATOM     15  C   UNL     1      -0.126  -2.040   4.210  0.00  0.00    +0.012 C 
ATOM     16  C   UNL     1       0.261   0.409   4.523  0.00  0.00    +0.012 C 
ENDBRANCH   6  14
ENDBRANCH   3   5
BRANCH   1  18
ATOM     17  C   UNL     1      -0.677   0.570   0.062  0.00  0.00    +0.029 C 
ATOM     18  C   UNL     1       0.263  -0.557  -0.370  0.00  0.00    +0.137 C 
BRANCH  18  19
ATOM     19  S   UNL     1      -0.708  -1.912  -1.086  0.00  0.00    -0.075 S 
BRANCH  19  20
ATOM     20  C   UNL     1      -1.413  -1.210  -2.540  0.00  0.00    +0.171 A 
ATOM     21  N   UNL     1      -2.221  -1.975  -3.326  0.00  0.00    -0.302 N 
ATOM     22  H   UNL     1      -2.402  -2.896  -3.082  0.00  0.00    +0.171 HD
ATOM     23  C   UNL     1      -2.769  -1.454  -4.443  0.00  0.00    +0.254 A 
ATOM     24  O   UNL     1      -3.495  -2.132  -5.153  0.00  0.00    -0.268 OA
ATOM     25  C   UNL     1      -2.493  -0.124  -4.774  0.00  0.00    +0.113 A 
ATOM     26  C   UNL     1      -1.664   0.613  -3.940  0.00  0.00    +0.124 A 
ATOM     27  N   UNL     1      -1.153   0.045  -2.842  0.00  0.00    -0.209 NA
BRANCH  26  28
ATOM     28  N   UNL     1      -1.373   1.929  -4.239  0.00  0.00    -0.343 N 
ATOM     29  H   UNL     1      -1.747   2.340  -5.033  0.00  0.00    +0.144 HD
ATOM     30  H   UNL     1      -0.793   2.442  -3.655  0.00  0.00    +0.144 HD
ENDBRANCH  26  28
ENDBRANCH  19  20
ENDBRANCH  18  19
ENDBRANCH   1  18
TORSDOF 7
