REMARK  Name = ZINC39658652
REMARK  7 active torsions:
REMARK  status: ('A' for Active; 'I' for Inactive)
REMARK    1  A    between atoms: C_4  and  C_7
REMARK    2  A    between atoms: C_7  and  S_8
REMARK    3  A    between atoms: S_8  and  C_9
REMARK    4  A    between atoms: C_9  and  C_10
REMARK    5  A    between atoms: C_10  and  N_11
REMARK    6  A    between atoms: C_12  and  C_14
REMARK    7  A    between atoms: C_25  and  C_27
REMARK                            x       y       z     vdW  Elec       q    Type
REMARK                         _______ _______ _______ _____ _____    ______ ____
ROOT
ATOM      1  C   UNL     1       8.775  -4.669   3.876  0.00  0.00    +0.100 C 
ATOM      2  C   UNL     1       9.052  -5.899   2.982  0.00  0.00    +0.121 C 
ATOM      3  N   UNL     1      10.089  -6.666   3.711  0.00  0.00    -0.296 N 
ATOM      4  C   UNL     1       9.694  -6.557   5.136  0.00  0.00    +0.115 C 
ATOM      5  C   UNL     1       9.197  -5.105   5.289  0.00  0.00    -0.004 C 
ATOM      6  C   UNL     1       8.003  -5.054   6.237  0.00  0.00    -0.010 C 
ATOM      7  C   UNL     1       8.460  -5.436   7.648  0.00  0.00    -0.082 C 
ATOM      8  N   UNL     1       9.504  -4.505   8.094  0.00  0.00    +0.379 N 
ATOM      9  C   UNL     1      10.685  -4.628   7.232  0.00  0.00    -0.082 C 
ATOM     10  C   UNL     1      10.323  -4.213   5.803  0.00  0.00    -0.010 C 
ATOM     11  C   UNL     1      11.151  -7.317   3.196  0.00  0.00    +0.248 C 
ATOM     12  O   UNL     1      11.413  -7.211   2.013  0.00  0.00    -0.270 OA
ATOM     13  H   UNL     1       9.153  -3.561   8.048  0.00  0.00    -0.086 HD
ATOM     14  H   UNL     1       9.760  -4.721   9.046  0.00  0.00    -0.086 HD
ENDROOT
BRANCH  11  15
ATOM     15  C   UNL     1      11.995  -8.157   4.066  0.00  0.00    +0.055 A 
ATOM     16  C   UNL     1      11.505  -8.626   5.295  0.00  0.00    +0.018 A 
ATOM     17  C   UNL     1      12.322  -9.403   6.071  0.00  0.00    +0.044 A 
ATOM     18  C   UNL     1      13.607  -9.704   5.622  0.00  0.00    +0.121 A 
ATOM     19  N   UNL     1      14.046  -9.247   4.457  0.00  0.00    -0.240 NA
ATOM     20  C   UNL     1      13.290  -8.502   3.677  0.00  0.00    +0.126 A 
ATOM     21  N   UNL     1      14.437 -10.489   6.404  0.00  0.00    -0.311 N 
ATOM     22  C   UNL     1      15.723 -10.982   5.885  0.00  0.00    +0.134 C 
ATOM     23  C   UNL     1      16.817 -10.646   6.905  0.00  0.00    +0.178 C 
ATOM     24  O   UNL     1      16.424 -11.129   8.192  0.00  0.00    -0.377 OA
ATOM     25  C   UNL     1      15.235 -10.525   8.706  0.00  0.00    +0.178 C 
ATOM     26  C   UNL     1      14.062 -10.850   7.780  0.00  0.00    +0.134 C 
ENDBRANCH  11  15
BRANCH   1  28
ATOM     27  N   UNL     1       6.919  -3.038   3.985  0.00  0.00    -0.314 N 
ATOM     28  C   UNL     1       7.309  -4.321   3.850  0.00  0.00    +0.218 C 
ATOM     29  O   UNL     1       6.481  -5.196   3.708  0.00  0.00    -0.275 OA
ATOM     30  H   UNL     1       7.581  -2.339   4.098  0.00  0.00    +0.149 HD
BRANCH  27  31
ATOM     31  C   UNL     1       5.494  -2.700   3.959  0.00  0.00    +0.115 C 
BRANCH  31  32
ATOM     32  C   UNL     1       5.325  -1.189   4.131  0.00  0.00    +0.088 C 
BRANCH  32  33
ATOM     33  S   UNL     1       3.560  -0.770   4.100  0.00  0.00    -0.155 S 
BRANCH  33  34
ATOM     34  C   UNL     1       3.533   1.031   4.313  0.00  0.00    +0.104 C 
BRANCH  34  38
ATOM     35  C   UNL     1      -0.510   2.409   4.291  0.00  0.00    +0.000 A 
ATOM     36  C   UNL     1       0.089   2.044   5.482  0.00  0.00    +0.000 A 
ATOM     37  C   UNL     1       1.398   1.598   5.489  0.00  0.00    +0.004 A 
ATOM     38  C   UNL     1       2.107   1.517   4.305  0.00  0.00    -0.038 A 
ATOM     39  C   UNL     1       1.507   1.881   3.114  0.00  0.00    +0.004 A 
ATOM     40  C   UNL     1       0.199   2.328   3.107  0.00  0.00    +0.000 A 
ENDBRANCH  34  38
ENDBRANCH  33  34
ENDBRANCH  32  33
ENDBRANCH  31  32
ENDBRANCH  27  31
ENDBRANCH   1  28
TORSDOF 7
