REMARK  Name = ZINC09272863
REMARK  7 active torsions:
REMARK  status: ('A' for Active; 'I' for Inactive)
REMARK    1  A    between atoms: C_1  and  C_2
REMARK    2  A    between atoms: C_9  and  N_31
REMARK    3  A    between atoms: C_10  and  C_29
REMARK    4  A    between atoms: C_11  and  C_13
REMARK    5  A    between atoms: C_17  and  O_19
REMARK    6  A    between atoms: O_19  and  C_20
REMARK    7  A    between atoms: C_20  and  C_21
REMARK                            x       y       z     vdW  Elec       q    Type
REMARK                         _______ _______ _______ _____ _____    ______ ____
ROOT
ATOM      1  C   UNL     1      -0.018   1.503   0.010  0.00  0.00    +0.068 C 
ATOM      2  C   UNL     1       0.002  -0.004   0.002  0.00  0.00    +0.068 A 
ATOM      3  C   UNL     1       0.008  -0.813  -1.126  0.00  0.00    +0.049 A 
ATOM      4  C   UNL     1       0.027  -2.116  -0.713  0.00  0.00    +0.222 A 
ATOM      5  N   UNL     1       0.034  -2.116   0.629  0.00  0.00    -0.246 N 
ATOM      6  H   UNL     1       0.048  -2.900   1.201  0.00  0.00    +0.192 HD
ATOM      7  N   UNL     1       0.023  -0.780   1.060  0.00  0.00    -0.176 NA
ATOM      8  O   UNL     1       0.034  -3.159  -1.580  0.00  0.00    -0.423 OA
ATOM      9  C   UNL     1      -0.255  -2.900  -2.872  0.00  0.00    +0.200 C 
ATOM     10  C   UNL     1      -0.291  -1.656  -3.399  0.00  0.00    +0.098 C 
ATOM     11  C   UNL     1      -0.002  -0.421  -2.581  0.00  0.00    +0.101 C 
ENDROOT
BRANCH  11  12
ATOM     12  C   UNL     1       1.341   0.142  -2.966  0.00  0.00    -0.031 A 
ATOM     13  C   UNL     1       2.477  -0.638  -2.846  0.00  0.00    +0.005 A 
ATOM     14  C   UNL     1       3.712  -0.124  -3.198  0.00  0.00    +0.004 A 
ATOM     15  C   UNL     1       3.813   1.171  -3.670  0.00  0.00    +0.045 A 
ATOM     16  C   UNL     1       2.675   1.955  -3.791  0.00  0.00    +0.121 A 
ATOM     17  C   UNL     1       1.437   1.435  -3.443  0.00  0.00    +0.050 A 
BRANCH  16  18
ATOM     18  O   UNL     1       2.773   3.228  -4.255  0.00  0.00    -0.487 OA
BRANCH  18  19
ATOM     19  C   UNL     1       4.079   3.695  -4.600  0.00  0.00    +0.266 C 
BRANCH  19  20
ATOM     20  C   UNL     1       3.990   5.117  -5.091  0.00  0.00    +0.008 A 
ATOM     21  C   UNL     1       2.765   5.756  -5.142  0.00  0.00    +0.010 A 
ATOM     22  C   UNL     1       2.683   7.060  -5.593  0.00  0.00    +0.020 A 
ATOM     23  C   UNL     1       3.828   7.727  -5.992  0.00  0.00    +0.042 A 
ATOM     24  C   UNL     1       5.054   7.089  -5.940  0.00  0.00    +0.040 A 
ATOM     25  C   UNL     1       5.136   5.785  -5.485  0.00  0.00    +0.049 A 
ATOM     26 CL   UNL     1       6.675   4.986  -5.414  0.00  0.00    -0.083 Cl
ATOM     27 CL   UNL     1       3.725   9.365  -6.558  0.00  0.00    -0.083 Cl
ENDBRANCH  19  20
ENDBRANCH  18  19
ENDBRANCH  16  18
ENDBRANCH  11  12
BRANCH   9  28
ATOM     28  N   UNL     1      -0.527  -3.961  -3.699  0.00  0.00    -0.328 N 
ATOM     29  H   UNL     1      -0.509  -4.865  -3.349  0.00  0.00    +0.145 HD
ATOM     30  H   UNL     1      -0.738  -3.806  -4.633  0.00  0.00    +0.145 HD
ENDBRANCH   9  28
BRANCH  10  31
ATOM     31  C   UNL     1      -0.615  -1.504  -4.786  0.00  0.00    +0.101 C 
ATOM     32  N   UNL     1      -0.872  -1.384  -5.886  0.00  0.00    -0.191 NA
ENDBRANCH  10  31
TORSDOF 6
