REMARK  Name = ZINC24305882
REMARK  10 active torsions:
REMARK  status: ('A' for Active; 'I' for Inactive)
REMARK    1  A    between atoms: C_1  and  C_2
REMARK    2  A    between atoms: C_2  and  C_30
REMARK    3  A    between atoms: N_5  and  C_9
REMARK    4  A    between atoms: C_9  and  C_10
REMARK    5  A    between atoms: N_12  and  N_13
REMARK    6  A    between atoms: C_14  and  C_16
REMARK    7  A    between atoms: C_23  and  C_26
REMARK    8  A    between atoms: C_26  and  C_27
REMARK    9  A    between atoms: C_26  and  C_28
REMARK   10  A    between atoms: C_26  and  C_29
REMARK                            x       y       z     vdW  Elec       q    Type
REMARK                         _______ _______ _______ _____ _____    ______ ____
ROOT
ATOM      1  C   UNL     1       1.940  -2.199  -1.450  0.00  0.00    +0.247 C 
ATOM      2  O   UNL     1       1.671  -1.450  -2.365  0.00  0.00    -0.273 OA
ATOM      3  N   UNL     1       2.375  -3.449  -1.708  0.00  0.00    -0.233 N 
ATOM      4  H   UNL     1       2.619  -4.128  -0.878  0.00  0.00    +0.173 HD
ENDROOT
BRANCH   3   5
ATOM      5  N   UNL     1       2.517  -3.881  -3.033  0.00  0.00    -0.230 N 
ATOM      6  C   UNL     1       2.952  -5.131  -3.291  0.00  0.00    +0.267 C 
ATOM      7  O   UNL     1       3.221  -5.883  -2.373  0.00  0.00    -0.268 OA
ATOM      8  H   UNL     1       2.273  -3.202  -3.863  0.00  0.00    +0.173 HD
BRANCH   6   9
ATOM      9  C   UNL     1       3.100  -5.584  -4.677  0.00  0.00    +0.076 A 
ATOM     10  C   UNL     1       3.526  -6.810  -5.153  0.00  0.00    +0.024 A 
ATOM     11  C   UNL     1       3.581  -6.997  -6.524  0.00  0.00    -0.036 A 
ATOM     12  C   UNL     1       3.205  -5.940  -7.304  0.00  0.00    -0.006 A 
ATOM     13  S   UNL     1       2.771  -4.699  -6.192  0.00  0.00    -0.088 S 
ATOM     14  C   UNL     1       3.175  -5.888  -8.801  0.00  0.00    +0.043 C 
ATOM     15  C   UNL     1       3.275  -7.323  -9.337  0.00  0.00    +0.009 C 
ATOM     16  C   UNL     1       4.421  -8.039  -8.617  0.00  0.00    -0.001 C 
ATOM     17  C   UNL     1       4.036  -8.307  -7.162  0.00  0.00    +0.040 C 
BRANCH  16  18
ATOM     18  C   UNL     1       4.711  -9.367  -9.319  0.00  0.00    -0.035 C 
ATOM     19  C   UNL     1       3.462 -10.250  -9.275  0.00  0.00    +0.011 C 
ATOM     20  C   UNL     1       5.097  -9.101 -10.775  0.00  0.00    +0.011 C 
ATOM     21  C   UNL     1       5.864 -10.079  -8.607  0.00  0.00    +0.011 C 
ENDBRANCH  16  18
ENDBRANCH   6   9
ENDBRANCH   3   5
BRANCH   1  22
ATOM     22  C   UNL     1       1.788  -1.734  -0.025  0.00  0.00    +0.215 C 
BRANCH  22  27
ATOM     23  C   UNL     1      -0.722   2.047  -1.238  0.00  0.00    +0.042 C 
ATOM     24  C   UNL     1      -0.018   1.512   0.010  0.00  0.00    +0.113 C 
ATOM     25  C   UNL     1       0.002  -0.004   0.002  0.00  0.00    +0.247 C 
ATOM     26  O   UNL     1      -0.954  -0.749   0.008  0.00  0.00    -0.273 OA
ATOM     27  N   UNL     1       1.304  -0.351  -0.012  0.00  0.00    -0.215 N 
ATOM     28  C   UNL     1       2.101   0.724  -0.014  0.00  0.00    +0.310 C 
ATOM     29  O   UNL     1       3.315   0.665  -0.026  0.00  0.00    -0.252 OA
ATOM     30  N   UNL     1       1.409   1.877  -0.001  0.00  0.00    -0.285 N 
ATOM     31  H   UNL     1       1.705   2.937   0.002  0.00  0.00    +0.151 HD
BRANCH  24  32
ATOM     32  C   UNL     1      -0.698   2.034   1.278  0.00  0.00    +0.021 C 
ATOM     33  C   UNL     1      -2.103   2.622   1.135  0.00  0.00    +0.006 C 
ATOM     34  C   UNL     1      -0.910   3.545   1.395  0.00  0.00    +0.006 C 
ENDBRANCH  24  32
ENDBRANCH  22  27
ENDBRANCH   1  22
TORSDOF 6
