REMARK  Name = ZINC36500706
REMARK  10 active torsions:
REMARK  status: ('A' for Active; 'I' for Inactive)
REMARK    1  A    between atoms: C_3  and  C_9
REMARK    2  A    between atoms: C_4  and  O_8
REMARK    3  A    between atoms: C_5  and  O_7
REMARK    4  A    between atoms: N_11  and  C_12
REMARK    5  A    between atoms: N_11  and  C_18
REMARK    6  A    between atoms: C_12  and  C_13
REMARK    7  A    between atoms: C_18  and  C_20
REMARK    8  A    between atoms: C_18  and  C_27
REMARK    9  A    between atoms: C_23  and  O_26
REMARK   10  A    between atoms: N_29  and  C_30
REMARK                            x       y       z     vdW  Elec       q    Type
REMARK                         _______ _______ _______ _____ _____    ______ ____
ROOT
ATOM      1  C   UNL     1       3.144   2.682   0.678  0.00  0.00    +0.252 C 
ATOM      2  O   UNL     1       2.230   2.473   1.452  0.00  0.00    -0.270 OA
ATOM      3  N   UNL     1       3.387   3.934   0.244  0.00  0.00    -0.275 N 
ENDROOT
BRANCH   1   6
ATOM      4  C   UNL     1       5.078   0.381  -1.571  0.00  0.00    +0.005 A 
ATOM      5  C   UNL     1       4.289   1.426  -1.142  0.00  0.00    +0.017 A 
ATOM      6  C   UNL     1       3.989   1.564   0.216  0.00  0.00    +0.082 A 
ATOM      7  C   UNL     1       4.494   0.636   1.135  0.00  0.00    +0.171 A 
ATOM      8  C   UNL     1       5.289  -0.414   0.687  0.00  0.00    +0.159 A 
ATOM      9  C   UNL     1       5.578  -0.537  -0.662  0.00  0.00    +0.049 A 
BRANCH   8  10
ATOM     10  O   UNL     1       5.784  -1.319   1.573  0.00  0.00    -0.503 OA
ATOM     11  H   UNL     1       5.207  -2.080   1.722  0.00  0.00    +0.292 HD
ENDBRANCH   8  10
BRANCH   7  12
ATOM     12  O   UNL     1       4.209   0.760   2.456  0.00  0.00    -0.503 OA
ATOM     13  H   UNL     1       3.406   0.297   2.731  0.00  0.00    +0.292 HD
ENDBRANCH   7  12
ENDBRANCH   1   6
BRANCH   3  14
ATOM     14  C   UNL     1       2.618   5.058   0.783  0.00  0.00    +0.183 C 
BRANCH  14  15
ATOM     15  C   UNL     1       2.681   5.034   2.289  0.00  0.00    +0.122 A 
ATOM     16  C   UNL     1       3.293   5.946   3.065  0.00  0.00    +0.046 A 
ATOM     17  C   UNL     1       3.105   5.535   4.405  0.00  0.00    +0.041 A 
ATOM     18  C   UNL     1       2.389   4.396   4.367  0.00  0.00    +0.195 A 
ATOM     19  O   UNL     1       2.130   4.101   3.083  0.00  0.00    -0.466 OA
ENDBRANCH  14  15
ENDBRANCH   3  14
BRANCH   3  20
ATOM     20  C   UNL     1       4.419   4.171  -0.768  0.00  0.00    +0.193 C 
BRANCH  20  21
ATOM     21  C   UNL     1       3.767   4.566  -2.068  0.00  0.00    -0.018 A 
ATOM     22  C   UNL     1       2.400   4.766  -2.122  0.00  0.00    +0.009 A 
ATOM     23  C   UNL     1       1.800   5.127  -3.313  0.00  0.00    +0.046 A 
ATOM     24  C   UNL     1       2.570   5.289  -4.455  0.00  0.00    +0.117 A 
ATOM     25  C   UNL     1       3.942   5.088  -4.398  0.00  0.00    +0.046 A 
ATOM     26  C   UNL     1       4.538   4.733  -3.204  0.00  0.00    +0.009 A 
BRANCH  24  27
ATOM     27  O   UNL     1       1.982   5.644  -5.628  0.00  0.00    -0.507 OA
ATOM     28  H   UNL     1       1.928   6.599  -5.767  0.00  0.00    +0.292 HD
ENDBRANCH  24  27
ENDBRANCH  20  21
BRANCH  20  29
ATOM     29  C   UNL     1       5.330   5.280  -0.306  0.00  0.00    +0.238 C 
ATOM     30  O   UNL     1       5.189   5.760   0.798  0.00  0.00    -0.273 OA
ATOM     31  N   UNL     1       6.301   5.737  -1.121  0.00  0.00    -0.311 N 
ATOM     32  H   UNL     1       6.414   5.353  -2.005  0.00  0.00    +0.149 HD
BRANCH  31  33
ATOM     33  C   UNL     1       7.187   6.815  -0.672  0.00  0.00    +0.073 C 
ATOM     34  C   UNL     1       6.524   8.166  -0.945  0.00  0.00    +0.022 C 
ATOM     35  C   UNL     1       7.448   9.292  -0.476  0.00  0.00    +0.002 C 
ATOM     36  C   UNL     1       8.774   9.212  -1.235  0.00  0.00    +0.000 C 
ATOM     37  C   UNL     1       9.437   7.860  -0.962  0.00  0.00    +0.002 C 
ATOM     38  C   UNL     1       8.513   6.735  -1.431  0.00  0.00    +0.022 C 
ENDBRANCH  31  33
ENDBRANCH  20  29
ENDBRANCH   3  20
TORSDOF 10
