REMARK  Name = ZINC67239495
REMARK  11 active torsions:
REMARK  status: ('A' for Active; 'I' for Inactive)
REMARK    1  A    between atoms: C_1  and  C_2
REMARK    2  A    between atoms: C_5  and  C_26
REMARK    3  A    between atoms: C_7  and  O_8
REMARK    4  A    between atoms: O_8  and  C_9
REMARK    5  A    between atoms: C_9  and  C_11
REMARK    6  A    between atoms: C_9  and  C_12
REMARK    7  A    between atoms: N_14  and  C_15
REMARK    8  A    between atoms: C_18  and  C_21
REMARK    9  A    between atoms: C_21  and  N_22
REMARK   10  A    between atoms: C_26  and  C_27
REMARK   11  A    between atoms: C_26  and  C_28
REMARK                            x       y       z     vdW  Elec       q    Type
REMARK                         _______ _______ _______ _____ _____    ______ ____
ROOT
ATOM      1  C   UNL     1       0.701  -0.110   4.691  0.00  0.00    +0.258 C 
ATOM      2  O   UNL     1       1.224   0.969   4.508  0.00  0.00    -0.271 OA
ATOM      3  N   UNL     1       0.668  -0.641   5.929  0.00  0.00    -0.282 N 
ATOM      4  H   UNL     1       0.318  -1.536   6.063  0.00  0.00    +0.155 HD
ENDROOT
BRANCH   3   5
ATOM      5  C   UNL     1       1.138   0.097   7.020  0.00  0.00    +0.034 A 
ATOM      6  C   UNL     1       1.754  -0.549   8.084  0.00  0.00    +0.023 A 
ATOM      7  C   UNL     1       2.217   0.183   9.160  0.00  0.00    +0.007 A 
ATOM      8  C   UNL     1       2.067   1.558   9.179  0.00  0.00    -0.030 A 
ATOM      9  C   UNL     1       1.454   2.204   8.121  0.00  0.00    +0.007 A 
ATOM     10  C   UNL     1       0.995   1.478   7.039  0.00  0.00    +0.023 A 
BRANCH   8  11
ATOM     11  C   UNL     1       2.574   2.353  10.354  0.00  0.00    +0.141 C 
BRANCH  11  12
ATOM     12  N   UNL     1       3.962   2.752  10.112  0.00  0.00    -0.295 N 
ATOM     13  C   UNL     1       4.626   3.477  11.035  0.00  0.00    +0.297 C 
ATOM     14  O   UNL     1       4.072   3.799  12.068  0.00  0.00    -0.253 OA
ATOM     15  N   UNL     1       5.903   3.844  10.812  0.00  0.00    -0.313 N 
ATOM     16  H   UNL     1       4.404   2.495   9.288  0.00  0.00    +0.151 HD
ATOM     17  H   UNL     1       6.345   3.587   9.988  0.00  0.00    +0.146 HD
ATOM     18  H   UNL     1       6.381   4.366  11.476  0.00  0.00    +0.146 HD
ENDBRANCH  11  12
ENDBRANCH   8  11
ENDBRANCH   3   5
BRANCH   1  19
ATOM     19  C   UNL     1       0.088  -0.856   3.534  0.00  0.00    +0.256 C 
ATOM     20  C   UNL     1      -1.423  -0.967   3.742  0.00  0.00    +0.062 C 
BRANCH  19  21
ATOM     21  O   UNL     1       0.351  -0.149   2.319  0.00  0.00    -0.480 OA
BRANCH  21  28
ATOM     22  C   UNL     1       1.092   1.177  -0.062  0.00  0.00    +0.047 C 
ATOM     23  C   UNL     1       0.700  -0.278  -0.030  0.00  0.00    -0.009 A 
ATOM     24  C   UNL     1       0.700  -1.019  -1.196  0.00  0.00    +0.007 A 
ATOM     25  C   UNL     1       0.341  -2.354  -1.168  0.00  0.00    +0.004 A 
ATOM     26  C   UNL     1      -0.019  -2.950   0.027  0.00  0.00    -0.041 A 
ATOM     27  C   UNL     1      -0.020  -2.213   1.195  0.00  0.00    +0.049 A 
ATOM     28  C   UNL     1       0.345  -0.875   1.170  0.00  0.00    +0.125 A 
BRANCH  26  29
ATOM     29  C   UNL     1      -0.410  -4.405   0.054  0.00  0.00    +0.013 C 
ATOM     30  C   UNL     1      -1.626  -4.623  -0.849  0.00  0.00    +0.012 C 
ATOM     31  C   UNL     1       0.757  -5.257  -0.448  0.00  0.00    +0.012 C 
ENDBRANCH  26  29
ENDBRANCH  21  28
ENDBRANCH  19  21
ENDBRANCH   1  19
TORSDOF 7
