REMARK  Name = ZINC15900726
REMARK  7 active torsions:
REMARK  status: ('A' for Active; 'I' for Inactive)
REMARK    1  A    between atoms: C_1  and  C_2
REMARK    2  A    between atoms: C_2  and  C_3
REMARK    3  A    between atoms: C_2  and  C_4
REMARK    4  A    between atoms: C_2  and  C_5
REMARK    5  A    between atoms: C_8  and  C_11
REMARK    6  A    between atoms: N_13  and  N_14
REMARK    7  A    between atoms: C_15  and  C_17
REMARK                            x       y       z     vdW  Elec       q    Type
REMARK                         _______ _______ _______ _____ _____    ______ ____
ROOT
ATOM      1  C   UNL     1      -1.455   3.595   2.515  0.00  0.00    +0.232 C 
ATOM      2  O   UNL     1      -2.451   4.279   2.417  0.00  0.00    -0.274 OA
ATOM      3  N   UNL     1      -0.979   3.269   3.733  0.00  0.00    -0.234 N 
ATOM      4  H   UNL     1      -0.181   2.722   3.811  0.00  0.00    +0.173 HD
ENDROOT
BRANCH   1   8
ATOM      5  C   UNL     1      -0.753   1.593  -1.232  0.00  0.00    -0.006 C 
ATOM      6  C   UNL     1      -0.013   1.086   0.008  0.00  0.00    +0.005 C 
ATOM      7  C   UNL     1      -0.729   1.579   1.267  0.00  0.00    +0.013 C 
ATOM      8  C   UNL     1      -0.750   3.109   1.275  0.00  0.00    +0.076 C 
ATOM      9  C   UNL     1      -1.490   3.616   0.036  0.00  0.00    +0.013 C 
ATOM     10  C   UNL     1      -0.773   3.123  -1.223  0.00  0.00    +0.005 C 
BRANCH   5  12
ATOM     11  C   UNL     1      -0.016  -0.431  -2.499  0.00  0.00    +0.011 C 
ATOM     12  C   UNL     1      -0.037   1.099  -2.490  0.00  0.00    -0.035 C 
ATOM     13  C   UNL     1      -0.777   1.606  -3.730  0.00  0.00    +0.011 C 
ATOM     14  C   UNL     1       1.399   1.629  -2.501  0.00  0.00    +0.011 C 
ENDBRANCH   5  12
ENDBRANCH   1   8
BRANCH   3  15
ATOM     15  N   UNL     1      -1.634   3.721   4.886  0.00  0.00    -0.234 N 
ATOM     16  C   UNL     1      -1.158   3.395   6.104  0.00  0.00    +0.235 C 
ATOM     17  O   UNL     1      -0.161   2.711   6.202  0.00  0.00    -0.274 OA
ATOM     18  H   UNL     1      -2.431   4.268   4.807  0.00  0.00    +0.173 HD
BRANCH  16  19
ATOM     19  C   UNL     1      -1.863   3.881   7.343  0.00  0.00    +0.049 C 
ATOM     20  C   UNL     1      -1.884   5.411   7.352  0.00  0.00    +0.019 C 
ATOM     21  C   UNL     1      -2.600   5.904   8.611  0.00  0.00    -0.009 C 
ATOM     22  C   UNL     1      -1.860   5.398   9.850  0.00  0.00    +0.007 C 
ATOM     23  C   UNL     1      -1.839   3.868   9.842  0.00  0.00    -0.009 C 
ATOM     24  C   UNL     1      -1.123   3.374   8.583  0.00  0.00    +0.019 C 
ATOM     25  C   UNL     1      -3.275   3.338   9.853  0.00  0.00    +0.007 C 
ATOM     26  C   UNL     1      -4.015   3.845   8.613  0.00  0.00    -0.009 C 
ATOM     27  C   UNL     1      -4.035   5.375   8.621  0.00  0.00    +0.007 C 
ATOM     28  C   UNL     1      -3.299   3.352   7.354  0.00  0.00    +0.019 C 
ENDBRANCH  16  19
ENDBRANCH   3  15
TORSDOF 4
