REMARK  Name = ZINC14568369
REMARK  15 active torsions:
REMARK  status: ('A' for Active; 'I' for Inactive)
REMARK    1  A    between atoms: C_1  and  C_2
REMARK    2  A    between atoms: C_2  and  C_4
REMARK    3  A    between atoms: C_2  and  S_14
REMARK    4  A    between atoms: N_9  and  C_10
REMARK    5  A    between atoms: C_10  and  C_11
REMARK    6  A    between atoms: C_11  and  C_12
REMARK    7  A    between atoms: C_11  and  C_13
REMARK    8  A    between atoms: S_14  and  C_15
REMARK    9  A    between atoms: C_18  and  C_23
REMARK   10  A    between atoms: N_19  and  C_20
REMARK   11  A    between atoms: C_20  and  C_21
REMARK   12  A    between atoms: C_26  and  C_29
REMARK   13  A    between atoms: C_29  and  C_30
REMARK   14  A    between atoms: C_29  and  C_31
REMARK   15  A    between atoms: C_29  and  C_32
REMARK                            x       y       z     vdW  Elec       q    Type
REMARK                         _______ _______ _______ _____ _____    ______ ____
ROOT
ATOM      1  C   UNL     1      -0.297  -0.030   2.875  0.00  0.00    +0.193 A 
ATOM      2  N   UNL     1      -1.139   0.977   2.933  0.00  0.00    -0.122 NA
ATOM      3  N   UNL     1      -1.593   1.105   4.128  0.00  0.00    -0.128 NA
ATOM      4  C   UNL     1      -1.069   0.187   4.907  0.00  0.00    +0.165 A 
ATOM      5  N   UNL     1      -0.227  -0.572   4.127  0.00  0.00    -0.298 N 
ENDROOT
BRANCH   4   6
ATOM      6  C   UNL     1      -1.337   0.001   6.349  0.00  0.00    +0.019 A 
ATOM      7  C   UNL     1      -0.329  -0.462   7.196  0.00  0.00    +0.012 A 
ATOM      8  C   UNL     1      -0.586  -0.633   8.540  0.00  0.00    +0.005 A 
ATOM      9  C   UNL     1      -1.840  -0.348   9.050  0.00  0.00    -0.042 A 
ATOM     10  C   UNL     1      -2.845   0.110   8.216  0.00  0.00    +0.005 A 
ATOM     11  C   UNL     1      -2.599   0.291   6.870  0.00  0.00    +0.012 A 
BRANCH   9  12
ATOM     12  C   UNL     1      -2.114  -0.538  10.519  0.00  0.00    -0.013 C 
ATOM     13  C   UNL     1      -1.172   0.351  11.333  0.00  0.00    +0.015 C 
ATOM     14  C   UNL     1      -3.564  -0.155  10.822  0.00  0.00    +0.015 C 
ATOM     15  C   UNL     1      -1.884  -2.003  10.896  0.00  0.00    +0.015 C 
ENDBRANCH   9  12
ENDBRANCH   4   6
BRANCH   1  16
ATOM     16  S   UNL     1       0.574  -0.584   1.447  0.00  0.00    -0.073 S 
BRANCH  16  18
ATOM     17  C   UNL     1       0.523   1.967   0.463  0.00  0.00    +0.029 C 
ATOM     18  C   UNL     1       0.039   0.552   0.139  0.00  0.00    +0.137 C 
BRANCH  18  19
ATOM     19  C   UNL     1       0.622   0.111  -1.179  0.00  0.00    +0.233 C 
ATOM     20  O   UNL     1       1.589  -0.619  -1.200  0.00  0.00    -0.274 OA
ATOM     21  N   UNL     1       0.068   0.529  -2.335  0.00  0.00    -0.239 N 
ATOM     22  C   UNL     1       0.590   0.135  -3.513  0.00  0.00    +0.306 C 
ATOM     23  O   UNL     1       1.560  -0.598  -3.534  0.00  0.00    -0.252 OA
ATOM     24  N   UNL     1       0.036   0.552  -4.669  0.00  0.00    -0.299 N 
ATOM     25  H   UNL     1      -0.706   1.113  -2.318  0.00  0.00    +0.159 HD
ATOM     26  H   UNL     1      -0.738   1.137  -4.652  0.00  0.00    +0.150 HD
BRANCH  24  27
ATOM     27  C   UNL     1       0.603   0.124  -5.950  0.00  0.00    +0.108 C 
BRANCH  27  28
ATOM     28  C   UNL     1      -0.206   0.735  -7.096  0.00  0.00    -0.000 C 
ATOM     29  C   UNL     1       0.458   0.390  -8.430  0.00  0.00    +0.009 C 
ATOM     30  C   UNL     1      -1.628   0.170  -7.073  0.00  0.00    +0.009 C 
ENDBRANCH  27  28
ENDBRANCH  24  27
ENDBRANCH  18  19
ENDBRANCH  16  18
ENDBRANCH   1  16
BRANCH   5  31
ATOM     31  C   UNL     1       0.578  -1.720   4.551  0.00  0.00    +0.152 C 
BRANCH  31  32
ATOM     32  C   UNL     1       1.979  -1.263   4.864  0.00  0.00    -0.013 C 
ATOM     33  C   UNL     1       2.520  -1.554   6.021  0.00  0.00    +0.005 C 
ENDBRANCH  31  32
ENDBRANCH   5  31
TORSDOF 9
