REMARK  Name = ZINC66362745
REMARK  6 active torsions:
REMARK  status: ('A' for Active; 'I' for Inactive)
REMARK    1  A    between atoms: C_9  and  N_11
REMARK    2  A    between atoms: C_12  and  C_14
REMARK    3  A    between atoms: C_14  and  S_15
REMARK    4  A    between atoms: S_15  and  C_16
REMARK    5  A    between atoms: C_16  and  C_17
REMARK    6  A    between atoms: N_19  and  C_20
REMARK                            x       y       z     vdW  Elec       q    Type
REMARK                         _______ _______ _______ _____ _____    ______ ____
ROOT
ATOM      1  S   UNL     1      -1.599  -4.905   0.310  0.00  0.00    -0.142 S 
ENDROOT
BRANCH   1   2
ATOM      2  C   UNL     1       0.097  -4.279   0.162  0.00  0.00    +0.165 C 
BRANCH   2   4
ATOM      3  N   UNL     1       1.222  -2.088  -0.067  0.00  0.00    -0.284 N 
ATOM      4  C   UNL     1       0.070  -2.776   0.053  0.00  0.00    +0.227 C 
ATOM      5  O   UNL     1      -0.990  -2.185   0.073  0.00  0.00    -0.275 OA
ATOM      6  H   UNL     1       2.063  -2.563  -0.164  0.00  0.00    +0.155 HD
BRANCH   3  15
ATOM      7  C   UNL     1       0.160   1.375   0.590  0.00  0.00    +0.004 A 
ATOM      8  C   UNL     1       1.166   2.099  -0.013  0.00  0.00    +0.026 A 
ATOM      9  C   UNL     1       2.214   1.439  -0.649  0.00  0.00    +0.048 A 
ATOM     10  C   UNL     1       2.236   0.034  -0.669  0.00  0.00    +0.021 A 
ATOM     11  C   UNL     1       3.447  -0.343  -1.402  0.00  0.00    +0.029 A 
ATOM     12  C   UNL     1       4.056   0.797  -1.765  0.00  0.00    +0.083 A 
ATOM     13  N   UNL     1       3.334   1.873  -1.323  0.00  0.00    -0.361 N 
ATOM     14  H   UNL     1       3.575   2.802  -1.464  0.00  0.00    +0.165 HD
ATOM     15  C   UNL     1       1.207  -0.690  -0.052  0.00  0.00    +0.043 A 
ATOM     16  C   UNL     1       0.176  -0.012   0.573  0.00  0.00    +0.024 A 
ENDBRANCH   3  15
ENDBRANCH   2   4
ENDBRANCH   1   2
BRANCH   1  17
ATOM     17  C   UNL     1      -1.394  -6.703   0.430  0.00  0.00    +0.165 C 
BRANCH  17  18
ATOM     18  C   UNL     1      -2.746  -7.356   0.559  0.00  0.00    +0.227 C 
ATOM     19  O   UNL     1      -3.750  -6.674   0.570  0.00  0.00    -0.275 OA
ATOM     20  N   UNL     1      -2.841  -8.696   0.663  0.00  0.00    -0.284 N 
ATOM     21  H   UNL     1      -2.037  -9.235   0.736  0.00  0.00    +0.155 HD
BRANCH  20  22
ATOM     22  C   UNL     1      -4.096  -9.310   0.667  0.00  0.00    +0.043 A 
ATOM     23  C   UNL     1      -5.179  -8.686   0.074  0.00  0.00    +0.024 A 
ATOM     24  C   UNL     1      -6.426  -9.294   0.077  0.00  0.00    +0.004 A 
ATOM     25  C   UNL     1      -6.607 -10.525   0.668  0.00  0.00    +0.026 A 
ATOM     26  C   UNL     1      -5.534 -11.174   1.271  0.00  0.00    +0.048 A 
ATOM     27  C   UNL     1      -4.267 -10.566   1.266  0.00  0.00    +0.021 A 
ATOM     28  C   UNL     1      -3.369 -11.491   1.961  0.00  0.00    +0.029 A 
ATOM     29  C   UNL     1      -4.104 -12.554   2.322  0.00  0.00    +0.083 A 
ATOM     30  N   UNL     1      -5.403 -12.378   1.926  0.00  0.00    -0.361 N 
ATOM     31  H   UNL     1      -6.122 -13.012   2.075  0.00  0.00    +0.165 HD
ENDBRANCH  20  22
ENDBRANCH  17  18
ENDBRANCH   1  17
TORSDOF 6
