REMARK  Name = ZINC19939628
REMARK  5 active torsions:
REMARK  status: ('A' for Active; 'I' for Inactive)
REMARK    1  A    between atoms: C_11  and  N_28
REMARK    2  A    between atoms: C_13  and  N_15
REMARK    3  A    between atoms: C_21  and  C_23
REMARK    4  A    between atoms: N_28  and  S_29
REMARK    5  A    between atoms: S_29  and  C_32
REMARK                            x       y       z     vdW  Elec       q    Type
REMARK                         _______ _______ _______ _____ _____    ______ ____
ROOT
ATOM      1  C   UNL     1       4.188   2.430   0.118  0.00  0.00    +0.001 A 
ATOM      2  C   UNL     1       3.366   3.512   0.246  0.00  0.00    +0.008 A 
ATOM      3  C   UNL     1       1.977   3.308   0.269  0.00  0.00    -0.017 A 
ATOM      4  C   UNL     1       1.027   4.335   0.394  0.00  0.00    +0.008 A 
ATOM      5  C   UNL     1      -0.298   4.009   0.403  0.00  0.00    +0.001 A 
ATOM      6  C   UNL     1      -0.743   2.689   0.288  0.00  0.00    +0.006 A 
ATOM      7  C   UNL     1       0.151   1.670   0.170  0.00  0.00    -0.020 A 
ATOM      8  C   UNL     1       1.505   1.988   0.158  0.00  0.00    -0.008 A 
ATOM      9  C   UNL     1       2.356   0.894   0.029  0.00  0.00    -0.019 A 
ATOM     10  C   UNL     1       3.697   1.127   0.009  0.00  0.00    +0.006 A 
ATOM     11  C   UNL     1       1.492  -0.340  -0.061  0.00  0.00    +0.128 C 
ATOM     12  C   UNL     1       0.038   0.171   0.032  0.00  0.00    +0.110 C 
ENDROOT
BRANCH  12  13
ATOM     13  N   UNL     1      -0.630  -0.400   1.209  0.00  0.00    -0.291 NA
ATOM     14  C   UNL     1      -2.072  -0.121   1.183  0.00  0.00    +0.104 C 
ATOM     15  C   UNL     1      -2.757  -0.881   2.324  0.00  0.00    +0.123 C 
ATOM     16  N   UNL     1      -2.080  -0.541   3.584  0.00  0.00    -0.293 N 
ATOM     17  C   UNL     1      -0.616  -0.664   3.643  0.00  0.00    +0.123 C 
ATOM     18  C   UNL     1      -0.015   0.088   2.451  0.00  0.00    +0.104 C 
ATOM     19  C   UNL     1      -2.783  -0.127   4.657  0.00  0.00    +0.282 C 
ATOM     20  O   UNL     1      -2.202   0.261   5.653  0.00  0.00    -0.267 OA
BRANCH  19  21
ATOM     21  C   UNL     1      -4.249  -0.142   4.623  0.00  0.00    +0.189 A 
ATOM     22  C   UNL     1      -5.079   0.372   5.577  0.00  0.00    +0.054 A 
ATOM     23  C   UNL     1      -6.392   0.140   5.138  0.00  0.00    +0.042 A 
ATOM     24  C   UNL     1      -6.307  -0.498   3.950  0.00  0.00    +0.196 A 
ATOM     25  O   UNL     1      -5.014  -0.662   3.641  0.00  0.00    -0.458 OA
ENDBRANCH  19  21
ENDBRANCH  12  13
BRANCH  11  26
ATOM     26  N   UNL     1       1.710  -1.020  -1.341  0.00  0.00    -0.181 NA
ATOM     27  H   UNL     1       1.085  -0.769  -2.211  0.00  0.00    +0.149 HD
BRANCH  26  28
ATOM     28  S   UNL     1       2.719  -2.331  -1.420  0.00  0.00    +0.059 S 
ATOM     29  O   UNL     1       2.701  -2.776  -2.770  0.00  0.00    -0.153 OA
ATOM     30  O   UNL     1       3.920  -1.960  -0.757  0.00  0.00    -0.153 OA
BRANCH  28  31
ATOM     31  C   UNL     1       1.986  -3.612  -0.458  0.00  0.00    +0.105 A 
ATOM     32  C   UNL     1       2.289  -3.725   0.886  0.00  0.00    +0.030 A 
ATOM     33  C   UNL     1       1.710  -4.726   1.643  0.00  0.00    +0.022 A 
ATOM     34  C   UNL     1       0.836  -5.622   1.053  0.00  0.00    +0.041 A 
ATOM     35  C   UNL     1       0.538  -5.511  -0.293  0.00  0.00    +0.022 A 
ATOM     36  C   UNL     1       1.113  -4.506  -1.048  0.00  0.00    +0.030 A 
ATOM     37 CL   UNL     1       0.115  -6.884   2.002  0.00  0.00    -0.084 Cl
ENDBRANCH  28  31
ENDBRANCH  26  28
ENDBRANCH  11  26
TORSDOF 5
