REMARK  Name = ZINC52907868
REMARK  6 active torsions:
REMARK  status: ('A' for Active; 'I' for Inactive)
REMARK    1  A    between atoms: C_1  and  O_2
REMARK    2  A    between atoms: O_2  and  C_3
REMARK    3  A    between atoms: C_8  and  N_10
REMARK    4  A    between atoms: N_10  and  C_11
REMARK    5  A    between atoms: C_16  and  C_17
REMARK    6  A    between atoms: C_17  and  N_19
REMARK                            x       y       z     vdW  Elec       q    Type
REMARK                         _______ _______ _______ _____ _____    ______ ____
ROOT
ATOM      1  C   UNL     1       1.852  -3.096   1.331  0.00  0.00    +0.038 A 
ATOM      2  C   UNL     1       2.890  -3.738   0.669  0.00  0.00    +0.024 A 
ATOM      3  C   UNL     1       3.734  -4.584   1.361  0.00  0.00    +0.003 A 
ATOM      4  C   UNL     1       3.554  -4.800   2.717  0.00  0.00    +0.021 A 
ATOM      5  C   UNL     1       2.530  -4.171   3.393  0.00  0.00    +0.052 A 
ATOM      6  C   UNL     1       1.670  -3.306   2.707  0.00  0.00    +0.042 A 
ATOM      7 CL   UNL     1       2.311  -4.447   5.093  0.00  0.00    -0.083 Cl
ENDROOT
BRANCH   1   8
ATOM      8  N   UNL     1       1.002  -2.244   0.636  0.00  0.00    -0.338 N 
ATOM      9  H   UNL     1       0.230  -1.861   1.081  0.00  0.00    +0.146 HD
BRANCH   8  14
ATOM     10  C   UNL     1       0.641  -0.570  -1.132  0.00  0.00    +0.138 C 
ATOM     11  C   UNL     1      -0.378  -0.844  -2.256  0.00  0.00    +0.033 C 
ATOM     12  C   UNL     1       0.116  -2.161  -2.905  0.00  0.00    +0.004 C 
ATOM     13  C   UNL     1       0.611  -2.977  -1.685  0.00  0.00    +0.025 C 
ATOM     14  C   UNL     1       1.272  -1.926  -0.768  0.00  0.00    +0.099 C 
BRANCH  10  16
ATOM     15  C   UNL     1      -0.057   1.411   0.024  0.00  0.00    +0.194 C 
ATOM     16  O   UNL     1      -0.023  -0.018   0.007  0.00  0.00    -0.378 OA
ENDBRANCH  10  16
ENDBRANCH   8  14
ENDBRANCH   1   8
BRANCH   6  17
ATOM     17  C   UNL     1       0.578  -2.626   3.422  0.00  0.00    +0.080 C 
ATOM     18  S   UNL     1       0.807  -1.040   4.027  0.00  0.00    -0.035 S 
BRANCH  17  19
ATOM     19  N   UNL     1      -0.602  -3.251   3.602  0.00  0.00    -0.352 N 
ATOM     20  H   UNL     1      -0.709  -4.175   3.325  0.00  0.00    +0.143 HD
ATOM     21  H   UNL     1      -1.345  -2.778   4.008  0.00  0.00    +0.143 HD
ENDBRANCH  17  19
ENDBRANCH   6  17
TORSDOF 5
