REMARK  Name = ZINC41510686
REMARK  9 active torsions:
REMARK  status: ('A' for Active; 'I' for Inactive)
REMARK    1  A    between atoms: C_1  and  C_2
REMARK    2  A    between atoms: C_2  and  N_3
REMARK    3  A    between atoms: N_3  and  C_4
REMARK    4  A    between atoms: N_3  and  C_6
REMARK    5  A    between atoms: C_4  and  C_5
REMARK    6  A    between atoms: C_6  and  C_7
REMARK    7  A    between atoms: C_8  and  O_30
REMARK    8  A    between atoms: C_10  and  C_29
REMARK    9  A    between atoms: C_15  and  C_16
REMARK                            x       y       z     vdW  Elec       q    Type
REMARK                         _______ _______ _______ _____ _____    ______ ____
ROOT
ATOM      1  C   UNL     1      -1.211  -3.546   1.996  0.00  0.00    +0.020 A 
ATOM      2  C   UNL     1       0.070  -4.059   2.117  0.00  0.00    +0.122 A 
ATOM      3  C   UNL     1       0.695  -4.119   3.359  0.00  0.00    +0.050 A 
ATOM      4  C   UNL     1       0.047  -3.671   4.476  0.00  0.00    -0.033 A 
ATOM      5  C   UNL     1      -1.244  -3.153   4.370  0.00  0.00    +0.071 A 
ATOM      6  C   UNL     1      -1.882  -3.082   3.121  0.00  0.00    +0.145 A 
ATOM      7  O   UNL     1      -3.111  -2.542   3.268  0.00  0.00    -0.451 OA
ATOM      8  C   UNL     1      -3.370  -2.223   4.558  0.00  0.00    +0.176 C 
ATOM      9  C   UNL     1      -4.514  -1.666   5.033  0.00  0.00    +0.061 C 
ATOM     10  C   UNL     1      -2.193  -2.601   5.353  0.00  0.00    +0.232 C 
ATOM     11  O   UNL     1      -2.033  -2.475   6.555  0.00  0.00    -0.283 OA
ATOM     12  C   UNL     1       0.725  -3.738   5.820  0.00  0.00    +0.045 C 
ENDROOT
BRANCH   9  13
ATOM     13  C   UNL     1      -5.670  -1.494   4.145  0.00  0.00    +0.022 A 
ATOM     14  C   UNL     1      -5.738  -2.194   2.934  0.00  0.00    +0.027 A 
ATOM     15  C   UNL     1      -6.827  -2.025   2.106  0.00  0.00    +0.019 A 
ATOM     16  C   UNL     1      -7.853  -1.165   2.466  0.00  0.00    +0.024 A 
ATOM     17  C   UNL     1      -7.799  -0.468   3.659  0.00  0.00    +0.022 A 
ATOM     18  C   UNL     1      -6.718  -0.631   4.509  0.00  0.00    +0.136 A 
ATOM     19  O   UNL     1      -6.659   0.035   5.690  0.00  0.00    -0.465 OA
ATOM     20  C   UNL     1      -7.542   1.150   5.848  0.00  0.00    +0.395 C 
ATOM     21  O   UNL     1      -8.854   0.757   5.430  0.00  0.00    -0.339 OA
ATOM     22  C   UNL     1      -8.925   0.465   4.028  0.00  0.00    +0.202 C 
ATOM     23 BR   UNL     1      -6.920  -2.970   0.471  0.00  0.00    -0.050 Br
ENDBRANCH   9  13
BRANCH   2  24
ATOM     24  O   UNL     1       0.722  -4.507   1.014  0.00  0.00    -0.506 OA
ATOM     25  H   UNL     1       1.246  -3.829   0.564  0.00  0.00    +0.292 HD
ENDBRANCH   2  24
BRANCH   1  26
ATOM     26  C   UNL     1      -1.875  -3.486   0.645  0.00  0.00    -0.036 C 
BRANCH  26  27
ATOM     27  N   UNL     1      -1.560  -2.204   0.001  0.00  0.00    +0.382 N 
ATOM     28  H   UNL     1      -1.824  -1.447   0.612  0.00  0.00    -0.081 HD
BRANCH  27  30
ATOM     29  C   UNL     1       0.224  -0.764  -0.860  0.00  0.00    -0.017 C 
ATOM     30  C   UNL     1      -0.118  -2.134  -0.271  0.00  0.00    -0.082 C 
ENDBRANCH  27  30
BRANCH  27  31
ATOM     31  C   UNL     1      -2.302  -2.095  -1.262  0.00  0.00    -0.082 C 
ATOM     32  C   UNL     1      -3.802  -2.031  -0.969  0.00  0.00    -0.017 C 
ENDBRANCH  27  31
ENDBRANCH  26  27
ENDBRANCH   1  26
TORSDOF 6
