REMARK  Name = ZINC32802177
REMARK  11 active torsions:
REMARK  status: ('A' for Active; 'I' for Inactive)
REMARK    1  A    between atoms: C_1  and  C_2
REMARK    2  A    between atoms: C_2  and  C_3
REMARK    3  A    between atoms: C_2  and  C_4
REMARK    4  A    between atoms: C_4  and  O_5
REMARK    5  A    between atoms: O_5  and  C_6
REMARK    6  A    between atoms: C_6  and  C_7
REMARK    7  A    between atoms: C_7  and  C_8
REMARK    8  A    between atoms: C_8  and  N_9
REMARK    9  A    between atoms: N_15  and  C_18
REMARK   10  A    between atoms: C_18  and  C_19
REMARK   11  A    between atoms: C_24  and  C_29
REMARK                            x       y       z     vdW  Elec       q    Type
REMARK                         _______ _______ _______ _____ _____    ______ ____
ROOT
ATOM      1  N   UNL     1       9.448   1.258  -1.105  0.00  0.00    -0.299 N 
ATOM      2  C   UNL     1       8.265   1.755  -1.518  0.00  0.00    +0.302 C 
ATOM      3  O   UNL     1       8.208   2.432  -2.526  0.00  0.00    -0.253 OA
ATOM      4  N   UNL     1       7.145   1.502  -0.812  0.00  0.00    -0.289 N 
ATOM      5  C   UNL     1       7.170   0.594   0.345  0.00  0.00    +0.091 C 
ATOM      6  C   UNL     1       6.056  -0.443   0.174  0.00  0.00    -0.059 C 
ATOM      7  N   UNL     1       4.778   0.247  -0.045  0.00  0.00    +0.386 N 
ATOM      8  C   UNL     1       4.801   1.029  -1.289  0.00  0.00    -0.059 C 
ATOM      9  C   UNL     1       5.865   2.127  -1.178  0.00  0.00    +0.091 C 
ATOM     10  H   UNL     1       9.488   0.579  -0.240  0.00  0.00    +0.150 HD
ATOM     11  H   UNL     1       4.630   0.949   0.789  0.00  0.00    -0.081 HD
ENDROOT
BRANCH   1  12
ATOM     12  C   UNL     1      10.681   1.622  -1.808  0.00  0.00    +0.108 C 
BRANCH  12  13
ATOM     13  C   UNL     1      11.871   0.927  -1.144  0.00  0.00    +0.047 C 
BRANCH  13  14
ATOM     14  C   UNL     1      13.158   1.307  -1.878  0.00  0.00    +0.161 C 
BRANCH  14  15
ATOM     15  O   UNL     1      14.270   0.659  -1.258  0.00  0.00    -0.379 OA
BRANCH  15  16
ATOM     16  C   UNL     1      15.528   0.948  -1.870  0.00  0.00    +0.162 C 
BRANCH  16  18
ATOM     17  C   UNL     1      16.446  -1.304  -1.295  0.00  0.00    +0.009 C 
ATOM     18  C   UNL     1      16.640   0.205  -1.128  0.00  0.00    +0.009 C 
ATOM     19  C   UNL     1      17.998   0.611  -1.704  0.00  0.00    +0.009 C 
ENDBRANCH  16  18
ENDBRANCH  15  16
ENDBRANCH  14  15
ENDBRANCH  13  14
ENDBRANCH  12  13
ENDBRANCH   1  12
BRANCH   7  20
ATOM     20  C   UNL     1       3.658  -0.704  -0.042  0.00  0.00    -0.003 C 
BRANCH  20  21
ATOM     21  C   UNL     1       2.356   0.054  -0.023  0.00  0.00    +0.095 A 
ATOM     22  N   UNL     1       1.184  -0.632  -0.017  0.00  0.00    -0.197 NA
ATOM     23  C   UNL     1      -0.000   0.006   0.001  0.00  0.00    +0.282 A 
ATOM     24  O   UNL     1      -1.043  -0.625   0.005  0.00  0.00    -0.265 OA
ATOM     25  C   UNL     1      -0.017   1.437   0.013  0.00  0.00    +0.080 A 
ATOM     26  C   UNL     1      -1.157   2.346   0.027  0.00  0.00    +0.010 A 
ATOM     27  C   UNL     1      -0.924   3.683   0.042  0.00  0.00    +0.057 A 
ATOM     28  S   UNL     1       0.855   3.792   0.025  0.00  0.00    -0.078 S 
ATOM     29  C   UNL     1       1.242   2.060   0.006  0.00  0.00    +0.092 A 
ATOM     30  N   UNL     1       2.373   1.360  -0.011  0.00  0.00    -0.339 N 
ATOM     31  H   UNL     1       3.333   1.897  -0.016  0.00  0.00    +0.167 HD
BRANCH  26  32
ATOM     32  C   UNL     1      -2.539   1.823   0.030  0.00  0.00    +0.021 A 
ATOM     33  C   UNL     1      -3.583   2.145   0.857  0.00  0.00    +0.016 A 
ATOM     34  C   UNL     1      -4.797   1.520   0.664  0.00  0.00    +0.008 A 
ATOM     35  C   UNL     1      -4.918   0.602  -0.327  0.00  0.00    +0.046 A 
ATOM     36  S   UNL     1      -3.281   0.599  -1.038  0.00  0.00    -0.097 S 
ENDBRANCH  26  32
ENDBRANCH  20  21
ENDBRANCH   7  20
TORSDOF 9
