REMARK  Name = ZINC17244532
REMARK  7 active torsions:
REMARK  status: ('A' for Active; 'I' for Inactive)
REMARK    1  A    between atoms: C_1  and  C_2
REMARK    2  A    between atoms: C_5  and  C_34
REMARK    3  A    between atoms: N_8  and  S_10
REMARK    4  A    between atoms: S_10  and  C_13
REMARK    5  A    between atoms: C_16  and  C_19
REMARK    6  A    between atoms: N_21  and  C_22
REMARK    7  A    between atoms: C_30  and  C_31
REMARK                            x       y       z     vdW  Elec       q    Type
REMARK                         _______ _______ _______ _____ _____    ______ ____
ROOT
ATOM      1  C   UNL     1      -2.630   4.532   7.468  0.00  0.00    +0.248 C 
ATOM      2  O   UNL     1      -3.655   5.122   7.187  0.00  0.00    -0.270 OA
ATOM      3  N   UNL     1      -2.002   4.790   8.633  0.00  0.00    -0.278 N 
ATOM      4  H   UNL     1      -1.125   4.196   8.929  0.00  0.00    +0.155 HD
ENDROOT
BRANCH   3   5
ATOM      5  C   UNL     1      -2.462   5.808   9.459  0.00  0.00    +0.092 A 
ATOM      6  C   UNL     1      -3.857   6.212   9.672  0.00  0.00    +0.042 A 
ATOM      7  C   UNL     1      -5.083   5.766   9.177  0.00  0.00    +0.013 A 
ATOM      8  C   UNL     1      -6.239   6.371   9.584  0.00  0.00    +0.001 A 
ATOM      9  C   UNL     1      -6.200   7.424  10.488  0.00  0.00    +0.004 A 
ATOM     10  C   UNL     1      -5.000   7.878  10.989  0.00  0.00    +0.047 A 
ATOM     11  C   UNL     1      -3.811   7.277  10.588  0.00  0.00    +0.138 A 
ATOM     12  O   UNL     1      -2.518   7.499  10.899  0.00  0.00    -0.448 OA
ATOM     13  C   UNL     1      -1.708   6.636  10.245  0.00  0.00    +0.211 A 
BRANCH  13  14
ATOM     14  C   UNL     1      -0.252   6.596  10.358  0.00  0.00    +0.279 C 
ATOM     15  O   UNL     1       0.395   5.852   9.643  0.00  0.00    -0.267 OA
ATOM     16  N   UNL     1       0.377   7.382  11.255  0.00  0.00    -0.323 N 
ATOM     17  H   UNL     1       1.473   7.352  11.340  0.00  0.00    +0.145 HD
ATOM     18  H   UNL     1      -0.207   8.054  11.902  0.00  0.00    +0.145 HD
ENDBRANCH  13  14
ENDBRANCH   3   5
BRANCH   1  22
ATOM     19  C   UNL     1      -1.028   1.657   4.784  0.00  0.00    +0.106 A 
ATOM     20  C   UNL     1      -0.383   1.916   5.981  0.00  0.00    +0.029 A 
ATOM     21  C   UNL     1      -0.895   2.853   6.854  0.00  0.00    +0.015 A 
ATOM     22  C   UNL     1      -2.072   3.532   6.534  0.00  0.00    +0.037 A 
ATOM     23  C   UNL     1      -2.720   3.262   5.327  0.00  0.00    +0.015 A 
ATOM     24  C   UNL     1      -2.194   2.327   4.460  0.00  0.00    +0.029 A 
BRANCH  19  25
ATOM     25  S   UNL     1      -0.363   0.464   3.671  0.00  0.00    +0.061 S 
ATOM     26  O   UNL     1      -1.446   0.006   2.873  0.00  0.00    -0.153 OA
ATOM     27  O   UNL     1       0.436  -0.417   4.449  0.00  0.00    -0.153 OA
BRANCH  25  33
ATOM     28  C   UNL     1       4.413   1.161   2.102  0.00  0.00    +0.009 C 
ATOM     29  C   UNL     1       2.933   0.892   1.823  0.00  0.00    +0.002 C 
ATOM     30  C   UNL     1       2.515   1.612   0.539  0.00  0.00    +0.009 C 
ATOM     31  C   UNL     1       1.043   1.317   0.242  0.00  0.00    +0.002 C 
ATOM     32  C   UNL     1       0.179   1.841   1.393  0.00  0.00    +0.112 C 
ATOM     33  N   UNL     1       0.668   1.265   2.653  0.00  0.00    -0.176 NA
ATOM     34  C   UNL     1       2.090   1.412   2.992  0.00  0.00    +0.112 C 
ATOM     35  C   UNL     1       0.636   2.009  -1.060  0.00  0.00    +0.009 C 
ENDBRANCH  25  33
ENDBRANCH  19  25
ENDBRANCH   1  22
TORSDOF 5
