REMARK  Name = ZINC38728567
REMARK  14 active torsions:
REMARK  status: ('A' for Active; 'I' for Inactive)
REMARK    1  A    between atoms: C_1  and  C_2
REMARK    2  A    between atoms: C_2  and  C_3
REMARK    3  A    between atoms: N_16  and  C_29
REMARK    4  A    between atoms: C_17  and  C_19
REMARK    5  A    between atoms: C_23  and  O_25
REMARK    6  A    between atoms: O_25  and  C_26
REMARK    7  A    between atoms: C_26  and  C_27
REMARK    8  A    between atoms: C_26  and  C_28
REMARK    9  A    between atoms: C_29  and  C_30
REMARK   10  A    between atoms: C_30  and  N_31
REMARK   11  A    between atoms: N_31  and  C_32
REMARK   12  A    between atoms: N_31  and  C_34
REMARK   13  A    between atoms: C_32  and  C_33
REMARK   14  A    between atoms: C_34  and  C_35
REMARK                            x       y       z     vdW  Elec       q    Type
REMARK                         _______ _______ _______ _____ _____    ______ ____
ROOT
ATOM      1  C   UNL     1      -0.338  -2.798  -5.315  0.00  0.00    -0.047 A 
ATOM      2  C   UNL     1      -0.469  -2.801  -3.934  0.00  0.00    +0.007 A 
ATOM      3  C   UNL     1      -1.663  -3.141  -3.339  0.00  0.00    +0.047 A 
ATOM      4  C   UNL     1      -2.762  -3.487  -4.125  0.00  0.00    +0.139 A 
ATOM      5  C   UNL     1      -2.620  -3.474  -5.522  0.00  0.00    +0.065 A 
ATOM      6  C   UNL     1      -1.403  -3.127  -6.108  0.00  0.00    +0.019 A 
ATOM      7  C   UNL     1      -3.788  -3.826  -6.368  0.00  0.00    +0.199 A 
ATOM      8  O   UNL     1      -3.712  -4.004  -7.571  0.00  0.00    -0.287 OA
ATOM      9  C   UNL     1      -5.043  -3.939  -5.617  0.00  0.00    +0.072 A 
ATOM     10  C   UNL     1      -5.050  -3.929  -4.252  0.00  0.00    +0.199 A 
ATOM     11  O   UNL     1      -3.923  -3.825  -3.520  0.00  0.00    -0.450 OA
ATOM     12  C   UNL     1      -6.446  -4.049  -3.796  0.00  0.00    +0.283 C 
ATOM     13  O   UNL     1      -6.799  -4.067  -2.633  0.00  0.00    -0.267 OA
ATOM     14  N   UNL     1      -7.274  -4.135  -4.856  0.00  0.00    -0.285 N 
ATOM     15  C   UNL     1      -6.457  -4.075  -6.079  0.00  0.00    +0.145 C 
ENDROOT
BRANCH  15  16
ATOM     16  C   UNL     1      -6.624  -5.342  -6.879  0.00  0.00    -0.019 A 
ATOM     17  C   UNL     1      -6.740  -6.558  -6.230  0.00  0.00    +0.006 A 
ATOM     18  C   UNL     1      -6.893  -7.721  -6.961  0.00  0.00    +0.004 A 
ATOM     19  C   UNL     1      -6.929  -7.672  -8.341  0.00  0.00    +0.045 A 
ATOM     20  C   UNL     1      -6.813  -6.454  -8.994  0.00  0.00    +0.121 A 
ATOM     21  C   UNL     1      -6.665  -5.286  -8.258  0.00  0.00    +0.051 A 
BRANCH  20  22
ATOM     22  O   UNL     1      -6.848  -6.402 -10.351  0.00  0.00    -0.489 OA
BRANCH  22  23
ATOM     23  C   UNL     1      -7.130  -7.623 -11.039  0.00  0.00    +0.167 C 
ATOM     24  C   UNL     1      -7.780  -7.310 -12.388  0.00  0.00    +0.051 C 
ATOM     25  C   UNL     1      -5.827  -8.392 -11.268  0.00  0.00    +0.051 C 
ENDBRANCH  22  23
ENDBRANCH  20  22
ENDBRANCH  15  16
BRANCH   1  27
ATOM     26  C   UNL     1       1.021  -0.916  -6.186  0.00  0.00    +0.009 C 
ATOM     27  C   UNL     1       0.980  -2.426  -5.944  0.00  0.00    +0.032 C 
ENDBRANCH   1  27
BRANCH  14  28
ATOM     28  C   UNL     1      -8.733  -4.267  -4.801  0.00  0.00    +0.090 C 
BRANCH  28  29
ATOM     29  C   UNL     1      -9.370  -2.876  -4.798  0.00  0.00    -0.060 C 
BRANCH  29  30
ATOM     30  N   UNL     1     -10.831  -3.007  -4.877  0.00  0.00    +0.380 N 
ATOM     31  H   UNL     1     -11.075  -3.594  -5.660  0.00  0.00    -0.082 HD
BRANCH  30  32
ATOM     32  C   UNL     1     -11.336  -3.610  -3.636  0.00  0.00    -0.082 C 
ATOM     33  C   UNL     1     -12.840  -3.861  -3.767  0.00  0.00    -0.017 C 
ENDBRANCH  30  32
BRANCH  30  34
ATOM     34  C   UNL     1     -11.433  -1.678  -5.055  0.00  0.00    -0.082 C 
ATOM     35  C   UNL     1     -11.028  -1.114  -6.418  0.00  0.00    -0.017 C 
ENDBRANCH  30  34
ENDBRANCH  29  30
ENDBRANCH  28  29
ENDBRANCH  14  28
TORSDOF 9
