REMARK  Name = ZINC12541285
REMARK  8 active torsions:
REMARK  status: ('A' for Active; 'I' for Inactive)
REMARK    1  A    between atoms: C_1  and  S_2
REMARK    2  A    between atoms: S_2  and  C_3
REMARK    3  A    between atoms: C_3  and  C_4
REMARK    4  A    between atoms: C_4  and  C_5
REMARK    5  A    between atoms: C_5  and  C_7
REMARK    6  A    between atoms: C_5  and  N_17
REMARK    7  A    between atoms: C_18  and  C_20
REMARK    8  A    between atoms: C_20  and  N_21
REMARK                            x       y       z     vdW  Elec       q    Type
REMARK                         _______ _______ _______ _____ _____    ______ ____
ROOT
ATOM      1  N   UNL     1       1.624   3.311   0.004  0.00  0.00    -0.304 N 
ATOM      2  C   UNL     1       1.396   1.982  -0.001  0.00  0.00    +0.232 C 
ATOM      3  O   UNL     1       2.328   1.207  -0.014  0.00  0.00    -0.274 OA
ATOM      4  H   UNL     1       0.879   3.931   0.015  0.00  0.00    +0.149 HD
ENDROOT
BRANCH   1   5
ATOM      5  C   UNL     1       2.999   3.818  -0.006  0.00  0.00    +0.140 C 
BRANCH   5   6
ATOM      6  C   UNL     1       3.019   5.203  -0.599  0.00  0.00    +0.129 A 
ATOM      7  N   UNL     1       3.639   5.545  -1.761  0.00  0.00    -0.340 N 
ATOM      8  H   UNL     1       4.155   4.932  -2.360  0.00  0.00    +0.167 HD
ATOM      9  C   UNL     1       3.425   6.894  -1.959  0.00  0.00    +0.066 A 
ATOM     10  C   UNL     1       3.799   7.797  -2.945  0.00  0.00    +0.028 A 
ATOM     11  C   UNL     1       3.416   9.118  -2.841  0.00  0.00    +0.002 A 
ATOM     12  C   UNL     1       2.663   9.549  -1.759  0.00  0.00    +0.002 A 
ATOM     13  C   UNL     1       2.286   8.674  -0.779  0.00  0.00    +0.030 A 
ATOM     14  C   UNL     1       2.662   7.331  -0.863  0.00  0.00    +0.089 A 
ATOM     15  N   UNL     1       2.449   6.248  -0.072  0.00  0.00    -0.231 NA
ENDBRANCH   5   6
BRANCH   5  16
ATOM     16  C   UNL     1       3.534   3.869   1.426  0.00  0.00    +0.041 C 
BRANCH  16  17
ATOM     17  C   UNL     1       3.631   2.448   1.985  0.00  0.00    +0.071 C 
BRANCH  17  19
ATOM     18  C   UNL     1       4.321   0.768   4.194  0.00  0.00    +0.084 C 
ATOM     19  S   UNL     1       4.266   2.508   3.683  0.00  0.00    -0.164 S 
ENDBRANCH  17  19
ENDBRANCH  16  17
ENDBRANCH   5  16
ENDBRANCH   1   5
BRANCH   2  20
ATOM     20  C   UNL     1      -0.018   1.461   0.010  0.00  0.00    +0.213 C 
BRANCH  20  21
ATOM     21  N   UNL     1       0.002  -0.004   0.002  0.00  0.00    -0.215 N 
ATOM     22  C   UNL     1       0.023  -0.769   1.115  0.00  0.00    +0.247 C 
ATOM     23  O   UNL     1       0.029  -0.392   2.267  0.00  0.00    -0.273 OA
ATOM     24  C   UNL     1       0.037  -2.192   0.618  0.00  0.00    +0.113 C 
ATOM     25  C   UNL     1      -1.188  -2.965   1.123  0.00  0.00    +0.035 C 
ATOM     26  C   UNL     1      -0.655  -4.403   1.357  0.00  0.00    +0.003 C 
ATOM     27  C   UNL     1       0.773  -4.156   1.906  0.00  0.00    +0.003 C 
ATOM     28  C   UNL     1       1.283  -2.938   1.104  0.00  0.00    +0.035 C 
ATOM     29  N   UNL     1       0.022  -2.072  -0.841  0.00  0.00    -0.285 N 
ATOM     30  C   UNL     1      -0.004  -0.751  -1.110  0.00  0.00    +0.310 C 
ATOM     31  O   UNL     1      -0.027  -0.290  -2.234  0.00  0.00    -0.252 OA
ATOM     32  H   UNL     1       0.026  -2.797  -1.485  0.00  0.00    +0.151 HD
ENDBRANCH  20  21
ENDBRANCH   2  20
TORSDOF 7
