REMARK  Name = ZINC05343701
REMARK  7 active torsions:
REMARK  status: ('A' for Active; 'I' for Inactive)
REMARK    1  A    between atoms: C_4  and  O_29
REMARK    2  A    between atoms: C_5  and  C_7
REMARK    3  A    between atoms: N_15  and  C_25
REMARK    4  A    between atoms: C_16  and  C_18
REMARK    5  A    between atoms: C_25  and  C_26
REMARK    6  A    between atoms: C_26  and  C_27
REMARK    7  A    between atoms: C_27  and  O_28
REMARK                            x       y       z     vdW  Elec       q    Type
REMARK                         _______ _______ _______ _____ _____    ______ ____
ROOT
ATOM      1  C   UNL     1       1.286  -2.273   0.045  0.00  0.00    +0.102 A 
ATOM      2  C   UNL     1       0.142  -3.075   0.108  0.00  0.00    +0.035 A 
ATOM      3  C   UNL     1       0.592  -4.380   0.046  0.00  0.00    +0.126 A 
ATOM      4  N   UNL     1       1.953  -4.308  -0.050  0.00  0.00    -0.272 N 
ATOM      5  H   UNL     1       2.549  -5.071  -0.110  0.00  0.00    +0.189 HD
ATOM      6  N   UNL     1       2.327  -3.078  -0.053  0.00  0.00    -0.173 NA
ATOM      7  C   UNL     1      -0.567  -5.277   0.107  0.00  0.00    +0.265 C 
ATOM      8  O   UNL     1      -0.507  -6.492   0.075  0.00  0.00    -0.268 OA
ATOM      9  N   UNL     1      -1.705  -4.566   0.205  0.00  0.00    -0.285 N 
ATOM     10  C   UNL     1      -1.357  -3.139   0.213  0.00  0.00    +0.141 C 
ENDROOT
BRANCH  10  11
ATOM     11  C   UNL     1      -1.815  -2.502   1.500  0.00  0.00    -0.021 A 
ATOM     12  C   UNL     1      -1.565  -3.127   2.708  0.00  0.00    +0.006 A 
ATOM     13  C   UNL     1      -1.984  -2.543   3.888  0.00  0.00    +0.002 A 
ATOM     14  C   UNL     1      -2.654  -1.334   3.862  0.00  0.00    +0.020 A 
ATOM     15  C   UNL     1      -2.905  -0.709   2.654  0.00  0.00    +0.041 A 
ATOM     16  C   UNL     1      -2.479  -1.291   1.473  0.00  0.00    +0.025 A 
ATOM     17 CL   UNL     1      -3.746   0.809   2.620  0.00  0.00    -0.084 Cl
ENDBRANCH  10  11
BRANCH   1  22
ATOM     18  C   UNL     1       0.484   1.327  -0.683  0.00  0.00    +0.001 A 
ATOM     19  C   UNL     1       1.390   1.981   0.134  0.00  0.00    +0.004 A 
ATOM     20  C   UNL     1       2.264   1.258   0.923  0.00  0.00    +0.046 A 
ATOM     21  C   UNL     1       2.237  -0.127   0.901  0.00  0.00    +0.126 A 
ATOM     22  C   UNL     1       1.323  -0.790   0.077  0.00  0.00    +0.044 A 
ATOM     23  C   UNL     1       0.446  -0.052  -0.715  0.00  0.00    +0.014 A 
BRANCH  21  24
ATOM     24  O   UNL     1       3.096  -0.839   1.676  0.00  0.00    -0.506 OA
ATOM     25  H   UNL     1       2.753  -1.044   2.557  0.00  0.00    +0.292 HD
ENDBRANCH  21  24
ENDBRANCH   1  22
BRANCH   9  26
ATOM     26  C   UNL     1      -3.058  -5.121   0.289  0.00  0.00    +0.111 C 
BRANCH  26  27
ATOM     27  C   UNL     1      -3.427  -5.346   1.757  0.00  0.00    +0.047 C 
BRANCH  27  28
ATOM     28  C   UNL     1      -4.840  -5.925   1.844  0.00  0.00    +0.157 C 
BRANCH  28  29
ATOM     29  O   UNL     1      -5.185  -6.136   3.215  0.00  0.00    -0.395 OA
ATOM     30  H   UNL     1      -6.070  -6.502   3.346  0.00  0.00    +0.209 HD
ENDBRANCH  28  29
ENDBRANCH  27  28
ENDBRANCH  26  27
ENDBRANCH   9  26
TORSDOF 7
