REMARK  Name = ZINC40761123
REMARK  3 active torsions:
REMARK  status: ('A' for Active; 'I' for Inactive)
REMARK    1  A    between atoms: C_12  and  N_29
REMARK    2  A    between atoms: C_13  and  O_17
REMARK    3  A    between atoms: O_17  and  C_18
REMARK                            x       y       z     vdW  Elec       q    Type
REMARK                         _______ _______ _______ _____ _____    ______ ____
ROOT
ATOM      1  C   UNL     1       0.035   1.380   0.554  0.00  0.00    +0.002 A 
ATOM      2  C   UNL     1       1.213   2.111   0.620  0.00  0.00    +0.001 A 
ATOM      3  C   UNL     1       2.425   1.447   0.574  0.00  0.00    +0.017 A 
ATOM      4  C   UNL     1       2.445   0.079   0.465  0.00  0.00    +0.041 A 
ATOM      5  C   UNL     1       1.266  -0.698   0.396  0.00  0.00    +0.080 A 
ATOM      6  C   UNL     1       0.045   0.014   0.445  0.00  0.00    +0.029 A 
ATOM      7  N   UNL     1       1.450  -2.032   0.289  0.00  0.00    -0.225 NA
ATOM      8  C   UNL     1       2.644  -2.579   0.252  0.00  0.00    +0.165 A 
ATOM      9  S   UNL     1       3.719  -1.156   0.373  0.00  0.00    -0.052 S 
ATOM     10  N   UNL     1       2.983  -3.914   0.148  0.00  0.00    -0.277 N 
ATOM     11  C   UNL     1       4.322  -4.293   0.125  0.00  0.00    +0.152 A 
ATOM     12  C   UNL     1       4.676  -5.639   0.014  0.00  0.00    +0.128 A 
ATOM     13  C   UNL     1       6.032  -5.964  -0.005  0.00  0.00    +0.246 A 
ATOM     14  N   UNL     1       6.930  -4.987   0.083  0.00  0.00    -0.199 NA
ATOM     15  C   UNL     1       6.554  -3.728   0.187  0.00  0.00    +0.227 A 
ATOM     16  N   UNL     1       5.284  -3.378   0.203  0.00  0.00    -0.218 NA
ATOM     17  H   UNL     1       2.287  -4.588   0.090  0.00  0.00    +0.156 HD
ENDROOT
BRANCH  12  18
ATOM     18  N   UNL     1       3.695  -6.638  -0.076  0.00  0.00    -0.351 N 
ATOM     19  H   UNL     1       2.756  -6.398  -0.061  0.00  0.00    +0.143 HD
ATOM     20  H   UNL     1       3.957  -7.569  -0.153  0.00  0.00    +0.143 HD
ENDBRANCH  12  18
BRANCH  13  21
ATOM     21  O   UNL     1       6.430  -7.256  -0.111  0.00  0.00    -0.434 OA
BRANCH  21  22
ATOM     22  C   UNL     1       7.760  -7.507  -0.230  0.00  0.00    +0.156 A 
ATOM     23  C   UNL     1       8.328  -7.655  -1.474  0.00  0.00    +0.049 A 
ATOM     24  C   UNL     1       9.689  -7.912  -1.612  0.00  0.00    +0.019 A 
ATOM     25  C   UNL     1      10.495  -8.025  -0.518  0.00  0.00    +0.027 A 
ATOM     26  C   UNL     1       9.951  -7.880   0.769  0.00  0.00    +0.018 A 
ATOM     27  C   UNL     1       8.568  -7.612   0.921  0.00  0.00    +0.114 A 
ATOM     28  N   UNL     1       8.049  -7.468   2.143  0.00  0.00    -0.251 NA
ATOM     29  C   UNL     1       8.795  -7.565   3.217  0.00  0.00    +0.111 A 
ATOM     30  C   UNL     1      10.162  -7.820   3.138  0.00  0.00    +0.020 A 
ATOM     31  C   UNL     1      10.755  -7.991   1.919  0.00  0.00    +0.013 A 
ATOM     32 BR   UNL     1      12.340  -8.377  -0.733  0.00  0.00    -0.050 Br
ENDBRANCH  21  22
ENDBRANCH  13  21
TORSDOF 3
