REMARK  Name = ZINC41098710
REMARK  9 active torsions:
REMARK  status: ('A' for Active; 'I' for Inactive)
REMARK    1  A    between atoms: C_1  and  C_2
REMARK    2  A    between atoms: C_2  and  C_4
REMARK    3  A    between atoms: C_2  and  N_11
REMARK    4  A    between atoms: C_12  and  C_14
REMARK    5  A    between atoms: C_14  and  C_16
REMARK    6  A    between atoms: C_14  and  S_17
REMARK    7  A    between atoms: S_17  and  C_18
REMARK    8  A    between atoms: C_21  and  C_24
REMARK    9  A    between atoms: N_22  and  N_23
REMARK                            x       y       z     vdW  Elec       q    Type
REMARK                         _______ _______ _______ _____ _____    ______ ____
ROOT
ATOM      1  C   UNL     1      -3.465  -1.164  -1.134  0.00  0.00    +0.137 C 
ATOM      2  C   UNL     1      -3.445  -2.690  -1.017  0.00  0.00    +0.029 C 
ENDROOT
BRANCH   1   4
ATOM      3  N   UNL     1      -1.372  -0.511   0.012  0.00  0.00    -0.308 N 
ATOM      4  C   UNL     1      -2.051  -0.643  -1.145  0.00  0.00    +0.227 C 
ATOM      5  O   UNL     1      -1.524  -0.341  -2.194  0.00  0.00    -0.275 OA
ATOM      6  H   UNL     1      -1.794  -0.752   0.852  0.00  0.00    +0.149 HD
BRANCH   3   8
ATOM      7  C   UNL     1      -0.019   1.526   0.010  0.00  0.00    +0.033 C 
ATOM      8  C   UNL     1       0.002  -0.004   0.002  0.00  0.00    +0.100 C 
BRANCH   8   9
ATOM      9  C   UNL     1       0.731  -0.503   1.223  0.00  0.00    -0.027 A 
ATOM     10  C   UNL     1       0.080  -0.558   2.441  0.00  0.00    +0.008 A 
ATOM     11  C   UNL     1       0.748  -1.016   3.562  0.00  0.00    +0.038 A 
ATOM     12  C   UNL     1       2.068  -1.420   3.463  0.00  0.00    +0.123 A 
ATOM     13  C   UNL     1       2.719  -1.365   2.242  0.00  0.00    +0.038 A 
ATOM     14  C   UNL     1       2.048  -0.911   1.122  0.00  0.00    +0.008 A 
ATOM     15  F   UNL     1       2.722  -1.868   4.558  0.00  0.00    -0.205 F 
ENDBRANCH   8   9
ENDBRANCH   3   8
ENDBRANCH   1   4
BRANCH   1  16
ATOM     16  S   UNL     1      -4.297  -0.687  -2.674  0.00  0.00    -0.072 S 
BRANCH  16  17
ATOM     17  C   UNL     1      -5.957  -1.232  -2.447  0.00  0.00    +0.209 A 
ATOM     18  N   UNL     1      -6.443  -1.836  -1.388  0.00  0.00    -0.121 NA
ATOM     19  N   UNL     1      -7.690  -2.091  -1.564  0.00  0.00    -0.132 NA
ATOM     20  C   UNL     1      -8.072  -1.669  -2.736  0.00  0.00    +0.154 A 
ATOM     21  N   UNL     1      -6.983  -1.101  -3.338  0.00  0.00    -0.228 N 
BRANCH  20  22
ATOM     22  C   UNL     1      -9.458  -1.779  -3.317  0.00  0.00    +0.059 C 
ATOM     23  C   UNL     1     -10.449  -1.038  -2.418  0.00  0.00    +0.011 C 
ATOM     24  C   UNL     1     -11.856  -1.150  -3.008  0.00  0.00    +0.001 C 
ATOM     25  C   UNL     1     -12.255  -2.624  -3.099  0.00  0.00    +0.000 C 
ATOM     26  C   UNL     1     -11.264  -3.366  -3.998  0.00  0.00    +0.001 C 
ATOM     27  C   UNL     1      -9.857  -3.254  -3.408  0.00  0.00    +0.011 C 
ENDBRANCH  20  22
BRANCH  21  28
ATOM     28  N   UNL     1      -6.932  -0.526  -4.576  0.00  0.00    -0.295 N 
ATOM     29  H   UNL     1      -6.697  -1.207  -5.282  0.00  0.00    +0.163 HD
ATOM     30  H   UNL     1      -7.801  -0.063  -4.796  0.00  0.00    +0.163 HD
ENDBRANCH  21  28
ENDBRANCH  16  17
ENDBRANCH   1  16
TORSDOF 7
