REMARK  Name = ZINC39671425
REMARK  4 active torsions:
REMARK  status: ('A' for Active; 'I' for Inactive)
REMARK    1  A    between atoms: C_6  and  C_11
REMARK    2  A    between atoms: C_11  and  N_12
REMARK    3  A    between atoms: C_13  and  C_15
REMARK    4  A    between atoms: C_26  and  C_28
REMARK                            x       y       z     vdW  Elec       q    Type
REMARK                         _______ _______ _______ _____ _____    ______ ____
ROOT
ATOM      1  C   UNL     1      -8.277   0.079   3.802  0.00  0.00    +0.100 C 
ATOM      2  C   UNL     1      -7.732   1.417   4.352  0.00  0.00    +0.121 C 
ATOM      3  N   UNL     1      -8.877   2.353   4.259  0.00  0.00    -0.296 N 
ATOM      4  C   UNL     1     -10.053   1.538   4.647  0.00  0.00    +0.115 C 
ATOM      5  C   UNL     1      -9.800   0.161   4.001  0.00  0.00    -0.004 C 
ATOM      6  C   UNL     1     -10.272  -0.953   4.930  0.00  0.00    -0.010 C 
ATOM      7  C   UNL     1     -11.796  -0.887   5.066  0.00  0.00    -0.082 C 
ATOM      8  N   UNL     1     -12.414  -1.031   3.742  0.00  0.00    +0.379 N 
ATOM      9  C   UNL     1     -12.028   0.095   2.884  0.00  0.00    -0.082 C 
ATOM     10  C   UNL     1     -10.514   0.071   2.656  0.00  0.00    -0.010 C 
ATOM     11  C   UNL     1      -8.854   3.653   3.903  0.00  0.00    +0.247 C 
ATOM     12  O   UNL     1      -7.826   4.152   3.489  0.00  0.00    -0.270 OA
ATOM     13  H   UNL     1     -12.105  -1.895   3.321  0.00  0.00    -0.086 HD
ATOM     14  H   UNL     1     -13.418  -1.048   3.841  0.00  0.00    -0.086 HD
ENDROOT
BRANCH  11  15
ATOM     15  C   UNL     1     -10.080   4.472   4.017  0.00  0.00    +0.042 A 
ATOM     16  C   UNL     1     -11.113   4.073   4.866  0.00  0.00    +0.051 A 
ATOM     17  C   UNL     1     -12.256   4.843   4.968  0.00  0.00    +0.127 A 
ATOM     18  C   UNL     1     -12.378   6.008   4.229  0.00  0.00    +0.076 A 
ATOM     19  C   UNL     1     -11.356   6.409   3.385  0.00  0.00    +0.127 A 
ATOM     20  C   UNL     1     -10.206   5.650   3.279  0.00  0.00    +0.051 A 
ATOM     21  F   UNL     1     -11.481   7.547   2.667  0.00  0.00    -0.205 F 
ATOM     22  F   UNL     1     -13.257   4.457   5.789  0.00  0.00    -0.205 F 
ENDBRANCH  11  15
BRANCH   1  24
ATOM     23  N   UNL     1      -7.883  -1.283   1.775  0.00  0.00    -0.309 N 
ATOM     24  C   UNL     1      -7.946  -0.060   2.339  0.00  0.00    +0.219 C 
ATOM     25  O   UNL     1      -7.735   0.928   1.668  0.00  0.00    -0.275 OA
ATOM     26  H   UNL     1      -8.052  -2.074   2.312  0.00  0.00    +0.149 HD
BRANCH  23  27
ATOM     27  C   UNL     1      -7.561  -1.419   0.353  0.00  0.00    +0.157 C 
BRANCH  27  33
ATOM     28  C   UNL     1      -6.973  -7.304  -1.082  0.00  0.00    +0.001 A 
ATOM     29  C   UNL     1      -8.346  -7.217  -1.269  0.00  0.00    +0.002 A 
ATOM     30  C   UNL     1      -9.009  -6.027  -1.061  0.00  0.00    +0.026 A 
ATOM     31  C   UNL     1      -8.299  -4.900  -0.661  0.00  0.00    +0.047 A 
ATOM     32  N   UNL     1      -8.660  -3.602  -0.380  0.00  0.00    -0.357 N 
ATOM     33  C   UNL     1      -7.555  -2.878  -0.024  0.00  0.00    +0.034 A 
ATOM     34  H   UNL     1      -9.564  -3.252  -0.428  0.00  0.00    +0.166 HD
ATOM     35  C   UNL     1      -6.465  -3.660  -0.060  0.00  0.00    +0.032 A 
ATOM     36  C   UNL     1      -6.908  -4.994  -0.473  0.00  0.00    -0.000 A 
ATOM     37  C   UNL     1      -6.256  -6.210  -0.684  0.00  0.00    +0.010 A 
ENDBRANCH  27  33
ENDBRANCH  23  27
ENDBRANCH   1  24
TORSDOF 4
