REMARK  Name = ZINC24204169
REMARK  3 active torsions:
REMARK  status: ('A' for Active; 'I' for Inactive)
REMARK    1  A    between atoms: C_11  and  C_25
REMARK    2  A    between atoms: C_15  and  C_17
REMARK    3  A    between atoms: C_28  and  O_31
REMARK                            x       y       z     vdW  Elec       q    Type
REMARK                         _______ _______ _______ _____ _____    ______ ____
ROOT
ATOM      1  C   UNL     1      -4.438   1.379   4.156  0.00  0.00    +0.001 A 
ATOM      2  C   UNL     1      -5.606   1.037   3.494  0.00  0.00    +0.002 A 
ATOM      3  C   UNL     1      -5.639   0.792   2.133  0.00  0.00    +0.026 A 
ATOM      4  C   UNL     1      -4.434   0.904   1.442  0.00  0.00    +0.047 A 
ATOM      5  C   UNL     1      -3.240   1.254   2.124  0.00  0.00    +0.004 A 
ATOM      6  C   UNL     1      -3.237   1.497   3.501  0.00  0.00    +0.010 A 
ATOM      7  C   UNL     1      -2.201   1.277   1.119  0.00  0.00    -0.009 A 
ATOM      8  C   UNL     1      -2.779   0.960  -0.061  0.00  0.00    +0.043 A 
ATOM      9  N   UNL     1      -4.116   0.735   0.124  0.00  0.00    -0.356 N 
ATOM     10  H   UNL     1      -4.897   0.458  -0.599  0.00  0.00    +0.166 HD
ATOM     11  C   UNL     1      -2.011   0.882  -1.359  0.00  0.00    +0.131 C 
ATOM     12  N   UNL     1      -0.724   1.573  -1.182  0.00  0.00    -0.304 NA
ATOM     13  C   UNL     1      -0.013   1.086   0.008  0.00  0.00    +0.094 C 
ATOM     14  C   UNL     1      -0.732   1.581   1.271  0.00  0.00    +0.067 C 
ATOM     15  H   UNL     1      -0.089   1.398  -2.064  0.00  0.00    +0.123 HD
ENDROOT
BRANCH  14  16
ATOM     16  C   UNL     1      -0.185   0.868   2.481  0.00  0.00    -0.020 A 
ATOM     17  C   UNL     1      -0.274  -0.509   2.569  0.00  0.00    +0.007 A 
ATOM     18  C   UNL     1       0.228  -1.164   3.678  0.00  0.00    +0.020 A 
ATOM     19  C   UNL     1       0.818  -0.442   4.701  0.00  0.00    +0.042 A 
ATOM     20  C   UNL     1       0.906   0.935   4.612  0.00  0.00    +0.040 A 
ATOM     21  C   UNL     1       0.409   1.590   3.499  0.00  0.00    +0.046 A 
ATOM     22 CL   UNL     1       0.526   3.318   3.385  0.00  0.00    -0.083 Cl
ATOM     23 CL   UNL     1       1.446  -1.265   6.094  0.00  0.00    -0.083 Cl
ENDBRANCH  14  16
BRANCH  11  24
ATOM     24  C   UNL     1      -2.797   1.549  -2.459  0.00  0.00    -0.024 A 
ATOM     25  C   UNL     1      -2.804   2.928  -2.564  0.00  0.00    +0.009 A 
ATOM     26  C   UNL     1      -3.518   3.541  -3.574  0.00  0.00    +0.046 A 
ATOM     27  C   UNL     1      -4.240   2.773  -4.477  0.00  0.00    +0.117 A 
ATOM     28  C   UNL     1      -4.236   1.391  -4.366  0.00  0.00    +0.046 A 
ATOM     29  C   UNL     1      -3.515   0.781  -3.357  0.00  0.00    +0.009 A 
BRANCH  27  30
ATOM     30  O   UNL     1      -4.949   3.375  -5.467  0.00  0.00    -0.507 OA
ATOM     31  H   UNL     1      -5.521   2.765  -6.183  0.00  0.00    +0.292 HD
ENDBRANCH  27  30
ENDBRANCH  11  24
TORSDOF 3
