REMARK  Name = ZINC40361767
REMARK  7 active torsions:
REMARK  status: ('A' for Active; 'I' for Inactive)
REMARK    1  A    between atoms: C_1  and  C_2
REMARK    2  A    between atoms: C_2  and  C_3
REMARK    3  A    between atoms: C_3  and  C_4
REMARK    4  A    between atoms: C_4  and  N_5
REMARK    5  A    between atoms: N_8  and  C_9
REMARK    6  A    between atoms: C_9  and  C_16
REMARK    7  A    between atoms: C_16  and  N_18
REMARK                            x       y       z     vdW  Elec       q    Type
REMARK                         _______ _______ _______ _____ _____    ______ ____
ROOT
ATOM      1  C   UNL     1      -4.620  -5.789   0.072  0.00  0.00    +0.080 C 
ATOM      2  C   UNL     1      -4.111  -6.503   1.342  0.00  0.00    +0.032 C 
ATOM      3  C   UNL     1      -4.250  -5.561   2.507  0.00  0.00    +0.002 C 
ATOM      4  C   UNL     1      -5.573  -5.761   3.272  0.00  0.00    +0.000 C 
ATOM      5  C   UNL     1      -6.776  -5.981   2.336  0.00  0.00    +0.000 C 
ATOM      6  C   UNL     1      -6.751  -5.066   1.141  0.00  0.00    +0.002 C 
ATOM      7  C   UNL     1      -6.072  -5.806  -0.029  0.00  0.00    +0.032 C 
ENDROOT
BRANCH   1  11
ATOM      8  N   UNL     1      -4.191  -2.250  -0.820  0.00  0.00    -0.299 N 
ATOM      9  C   UNL     1      -4.522  -3.554  -0.893  0.00  0.00    +0.300 C 
ATOM     10  O   UNL     1      -5.147  -3.970  -1.850  0.00  0.00    -0.253 OA
ATOM     11  N   UNL     1      -4.162  -4.398   0.094  0.00  0.00    -0.288 N 
ATOM     12  H   UNL     1      -3.693  -1.918  -0.057  0.00  0.00    +0.150 HD
ATOM     13  H   UNL     1      -3.600  -4.083   0.820  0.00  0.00    +0.151 HD
BRANCH   8  14
ATOM     14  C   UNL     1      -4.582  -1.333  -1.893  0.00  0.00    +0.106 C 
BRANCH  14  15
ATOM     15  C   UNL     1      -4.086   0.077  -1.567  0.00  0.00    +0.018 C 
BRANCH  15  17
ATOM     16  C   UNL     1      -3.999   2.444  -2.361  0.00  0.00    +0.004 C 
ATOM     17  C   UNL     1      -4.495   1.034  -2.688  0.00  0.00    -0.002 C 
ENDBRANCH  15  17
ENDBRANCH  14  15
ENDBRANCH   8  14
ENDBRANCH   1  11
BRANCH   1  18
ATOM     18  C   UNL     1      -4.038  -6.475  -1.137  0.00  0.00    +0.070 C 
ATOM     19  S   UNL     1      -5.000  -7.224  -2.172  0.00  0.00    -0.038 S 
BRANCH  18  20
ATOM     20  N   UNL     1      -2.707  -6.457  -1.346  0.00  0.00    -0.354 N 
ATOM     21  H   UNL     1      -2.130  -5.942  -0.760  0.00  0.00    +0.143 HD
ATOM     22  H   UNL     1      -2.325  -6.958  -2.084  0.00  0.00    +0.143 HD
ENDBRANCH  18  20
ENDBRANCH   1  18
TORSDOF 6
