REMARK  Name = ZINC02924969
REMARK  4 active torsions:
REMARK  status: ('A' for Active; 'I' for Inactive)
REMARK    1  A    between atoms: C_3  and  C_6
REMARK    2  A    between atoms: C_12  and  N_22
REMARK    3  A    between atoms: C_13  and  C_15
REMARK    4  A    between atoms: C_15  and  C_17
REMARK                            x       y       z     vdW  Elec       q    Type
REMARK                         _______ _______ _______ _____ _____    ______ ____
ROOT
ATOM      1  C   UNL     1      -1.310  -0.712  -0.079  0.00  0.00    +0.034 A 
ATOM      2  C   UNL     1      -2.167  -0.742   1.021  0.00  0.00    -0.015 A 
ATOM      3  C   UNL     1      -3.260  -1.588   1.024  0.00  0.00    +0.046 A 
ATOM      4  N   UNL     1      -3.500  -2.374  -0.014  0.00  0.00    -0.244 NA
ATOM      5  C   UNL     1      -2.726  -2.387  -1.076  0.00  0.00    +0.112 A 
ATOM      6  C   UNL     1      -1.586  -1.562  -1.194  0.00  0.00    +0.040 A 
ATOM      7  C   UNL     1      -0.848  -1.699  -2.436  0.00  0.00    +0.053 A 
ATOM      8  C   UNL     1      -1.312  -2.596  -3.378  0.00  0.00    +0.083 A 
ATOM      9  S   UNL     1      -2.757  -3.294  -2.603  0.00  0.00    -0.064 S 
ATOM     10  C   UNL     1      -4.024  -1.431   2.323  0.00  0.00    +0.056 C 
ATOM     11  C   UNL     1      -3.044  -0.728   3.286  0.00  0.00    +0.011 C 
ATOM     12  C   UNL     1      -2.122   0.042   2.316  0.00  0.00    +0.038 C 
ENDROOT
BRANCH   1  15
ATOM     13  C   UNL     1       1.933   0.980  -0.068  0.00  0.00    +0.042 A 
ATOM     14  C   UNL     1       1.163  -0.197  -0.018  0.00  0.00    +0.050 A 
ATOM     15  C   UNL     1      -0.143   0.186  -0.094  0.00  0.00    +0.136 A 
ATOM     16  O   UNL     1      -0.180   1.531  -0.184  0.00  0.00    -0.463 OA
ATOM     17  C   UNL     1       1.073   2.013  -0.169  0.00  0.00    +0.196 A 
ENDBRANCH   1  15
BRANCH   7  18
ATOM     18  N   UNL     1       0.296  -0.948  -2.670  0.00  0.00    -0.356 N 
ATOM     19  H   UNL     1       0.934  -1.232  -3.343  0.00  0.00    +0.142 HD
ATOM     20  H   UNL     1       0.457  -0.138  -2.161  0.00  0.00    +0.142 HD
ENDBRANCH   7  18
BRANCH   8  21
ATOM     21  C   UNL     1      -0.764  -2.897  -4.650  0.00  0.00    +0.208 C 
ATOM     22  O   UNL     1       0.247  -2.329  -5.028  0.00  0.00    -0.285 OA
BRANCH  21  23
ATOM     23  C   UNL     1      -1.414  -3.891  -5.512  0.00  0.00    +0.060 A 
ATOM     24  C   UNL     1      -1.049  -4.322  -6.778  0.00  0.00    +0.019 A 
ATOM     25  C   UNL     1      -1.840  -5.279  -7.365  0.00  0.00    +0.008 A 
ATOM     26  C   UNL     1      -2.929  -5.740  -6.697  0.00  0.00    +0.046 A 
ATOM     27  S   UNL     1      -2.884  -4.855  -5.207  0.00  0.00    -0.093 S 
ENDBRANCH  21  23
ENDBRANCH   8  21
TORSDOF 4
