REMARK  Name = ZINC16810172
REMARK  7 active torsions:
REMARK  status: ('A' for Active; 'I' for Inactive)
REMARK    1  A    between atoms: C_1  and  C_2
REMARK    2  A    between atoms: C_2  and  C_4
REMARK    3  A    between atoms: C_2  and  S_18
REMARK    4  A    between atoms: C_4  and  C_6
REMARK    5  A    between atoms: C_15  and  C_17
REMARK    6  A    between atoms: S_18  and  C_19
REMARK    7  A    between atoms: C_23  and  N_25
REMARK                            x       y       z     vdW  Elec       q    Type
REMARK                         _______ _______ _______ _____ _____    ______ ____
ROOT
ATOM      1  C   UNL     1      -0.021   1.519   0.007  0.00  0.00    +0.028 C 
ATOM      2  C   UNL     1       0.001  -0.010   0.000  0.00  0.00    +0.122 C 
ENDROOT
BRANCH   2   3
ATOM      3  C   UNL     1       0.730  -0.508   1.222  0.00  0.00    +0.176 C 
ATOM      4  O   UNL     1       1.910  -0.780   1.154  0.00  0.00    -0.291 OA
BRANCH   3   5
ATOM      5  C   UNL     1       0.011  -0.664   2.493  0.00  0.00    +0.019 A 
ATOM      6  C   UNL     1      -1.353  -0.357   2.575  0.00  0.00    +0.013 A 
ATOM      7  C   UNL     1      -2.017  -0.502   3.756  0.00  0.00    +0.024 A 
ATOM      8  C   UNL     1      -1.350  -0.957   4.900  0.00  0.00    +0.040 A 
ATOM      9  C   UNL     1       0.003  -1.263   4.820  0.00  0.00    -0.024 A 
ATOM     10  C   UNL     1       0.683  -1.126   3.631  0.00  0.00    +0.017 A 
ATOM     11  C   UNL     1       0.471  -1.727   6.181  0.00  0.00    +0.056 C 
ATOM     12  C   UNL     1      -0.784  -1.653   7.066  0.00  0.00    +0.118 C 
ATOM     13  N   UNL     1      -1.848  -1.169   6.183  0.00  0.00    -0.271 N 
ATOM     14  C   UNL     1      -3.125  -0.957   6.559  0.00  0.00    +0.217 C 
ATOM     15  O   UNL     1      -3.914  -0.467   5.779  0.00  0.00    -0.276 OA
ATOM     16  C   UNL     1      -3.573  -1.330   7.948  0.00  0.00    +0.109 C 
ENDBRANCH   3   5
ENDBRANCH   2   3
BRANCH   2  17
ATOM     17  S   UNL     1       0.849  -0.597  -1.492  0.00  0.00    -0.075 S 
BRANCH  17  18
ATOM     18  C   UNL     1      -0.192  -0.066  -2.811  0.00  0.00    +0.192 A 
ATOM     19  N   UNL     1      -1.298   0.606  -2.529  0.00  0.00    -0.207 NA
ATOM     20  C   UNL     1      -2.108   1.022  -3.499  0.00  0.00    +0.122 A 
ATOM     21  C   UNL     1      -1.779   0.744  -4.823  0.00  0.00    +0.086 A 
ATOM     22  C   UNL     1      -0.608   0.037  -5.080  0.00  0.00    +0.122 A 
ATOM     23  N   UNL     1       0.156  -0.344  -4.059  0.00  0.00    -0.207 NA
ATOM     24  N   UNL     1      -3.265   1.724  -3.196  0.00  0.00    -0.343 N 
ATOM     25  H   UNL     1      -3.488   1.914  -2.272  0.00  0.00    +0.144 HD
ATOM     26  H   UNL     1      -3.850   2.025  -3.909  0.00  0.00    +0.144 HD
BRANCH  22  27
ATOM     27  N   UNL     1      -0.240  -0.263  -6.382  0.00  0.00    -0.343 N 
ATOM     28  H   UNL     1      -0.800   0.020  -7.122  0.00  0.00    +0.144 HD
ATOM     29  H   UNL     1       0.577  -0.757  -6.554  0.00  0.00    +0.144 HD
ENDBRANCH  22  27
ENDBRANCH  17  18
ENDBRANCH   2  17
TORSDOF 5
