REMARK  Name = ZINC39455135
REMARK  9 active torsions:
REMARK  status: ('A' for Active; 'I' for Inactive)
REMARK    1  A    between atoms: C_1  and  C_2
REMARK    2  A    between atoms: C_2  and  C_3
REMARK    3  A    between atoms: C_2  and  C_4
REMARK    4  A    between atoms: C_4  and  C_5
REMARK    5  A    between atoms: C_5  and  N_6
REMARK    6  A    between atoms: C_19  and  N_23
REMARK    7  A    between atoms: N_23  and  C_24
REMARK    8  A    between atoms: C_24  and  C_25
REMARK    9  A    between atoms: C_25  and  C_26
REMARK                            x       y       z     vdW  Elec       q    Type
REMARK                         _______ _______ _______ _____ _____    ______ ____
ROOT
ATOM      1  N   UNL     1       2.873  -0.545  -2.413  0.00  0.00    -0.262 N 
ATOM      2  C   UNL     1       3.470  -1.791  -2.431  0.00  0.00    +0.186 C 
ATOM      3  N   UNL     1       4.533  -2.044  -3.148  0.00  0.00    -0.261 NA
ATOM      4  C   UNL     1       5.034  -0.932  -3.938  0.00  0.00    +0.184 C 
ATOM      5  C   UNL     1       3.762  -0.330  -4.617  0.00  0.00    +0.137 C 
ATOM      6  C   UNL     1       2.923   0.244  -3.535  0.00  0.00    +0.230 C 
ATOM      7  O   UNL     1       2.343   1.305  -3.630  0.00  0.00    -0.274 OA
ATOM      8  C   UNL     1       4.133   0.443  -5.824  0.00  0.00    -0.046 C 
ATOM      9  C   UNL     1       5.225  -0.006  -6.469  0.00  0.00    -0.014 C 
ATOM     10  S   UNL     1       5.874  -1.407  -5.498  0.00  0.00    -0.102 S 
ATOM     11  C   UNL     1       5.806   0.534  -7.738  0.00  0.00    +0.026 C 
ATOM     12  C   UNL     1       4.785   1.476  -8.390  0.00  0.00    -0.067 C 
ATOM     13  C   UNL     1       4.252   2.430  -7.317  0.00  0.00    -0.011 C 
ATOM     14  C   UNL     1       3.369   1.656  -6.338  0.00  0.00    +0.031 C 
ENDROOT
BRANCH  12  15
ATOM     15  N   UNL     1       5.435   2.243  -9.461  0.00  0.00    +0.381 N 
ATOM     16  H   UNL     1       4.785   2.919  -9.832  0.00  0.00    -0.086 HD
ATOM     17  H   UNL     1       6.242   2.722  -9.089  0.00  0.00    -0.086 HD
BRANCH  15  18
ATOM     18  C   UNL     1       5.857   1.330 -10.531  0.00  0.00    -0.075 C 
BRANCH  18  19
ATOM     19  C   UNL     1       6.534   2.130 -11.646  0.00  0.00    +0.055 C 
BRANCH  19  20
ATOM     20  C   UNL     1       6.968   1.193 -12.744  0.00  0.00    +0.106 A 
ATOM     21  N   UNL     1       7.729   0.151 -12.578  0.00  0.00    -0.233 NA
ATOM     22  C   UNL     1       7.922  -0.469 -13.771  0.00  0.00    +0.089 A 
ATOM     23  C   UNL     1       8.635  -1.604 -14.162  0.00  0.00    +0.030 A 
ATOM     24  C   UNL     1       8.638  -1.988 -15.474  0.00  0.00    +0.002 A 
ATOM     25  C   UNL     1       7.938  -1.260 -16.425  0.00  0.00    +0.002 A 
ATOM     26  C   UNL     1       7.227  -0.136 -16.062  0.00  0.00    +0.028 A 
ATOM     27  C   UNL     1       7.212   0.268 -14.734  0.00  0.00    +0.066 A 
ATOM     28  N   UNL     1       6.614   1.310 -14.053  0.00  0.00    -0.342 N 
ATOM     29  H   UNL     1       6.050   1.999 -14.436  0.00  0.00    +0.167 HD
ENDBRANCH  19  20
ENDBRANCH  18  19
ENDBRANCH  15  18
ENDBRANCH  12  15
BRANCH   1  30
ATOM     30  C   UNL     1       2.187  -0.073  -1.207  0.00  0.00    +0.115 C 
BRANCH  30  31
ATOM     31  C   UNL     1       0.718  -0.497  -1.257  0.00  0.00    +0.022 C 
BRANCH  31  33
ATOM     32  C   UNL     1      -0.019   1.526   0.010  0.00  0.00    +0.007 C 
ATOM     33  C   UNL     1       0.002  -0.004   0.002  0.00  0.00    -0.016 C 
ATOM     34  C   UNL     1      -1.433  -0.534   0.013  0.00  0.00    +0.007 C 
ENDBRANCH  31  33
ENDBRANCH  30  31
ENDBRANCH   1  30
TORSDOF 7
