REMARK  Name = ZINC42806940
REMARK  6 active torsions:
REMARK  status: ('A' for Active; 'I' for Inactive)
REMARK    1  A    between atoms: C_1  and  C_2
REMARK    2  A    between atoms: C_2  and  C_4
REMARK    3  A    between atoms: C_2  and  N_12
REMARK    4  A    between atoms: N_15  and  N_16
REMARK    5  A    between atoms: C_17  and  C_19
REMARK    6  A    between atoms: C_19  and  C_20
REMARK                            x       y       z     vdW  Elec       q    Type
REMARK                         _______ _______ _______ _____ _____    ______ ____
ROOT
ATOM      1  N   UNL     1      -1.372  -0.511   0.012  0.00  0.00    -0.292 N 
ATOM      2  C   UNL     1      -2.029  -0.655   1.181  0.00  0.00    +0.316 C 
ATOM      3  O   UNL     1      -1.480  -0.364   2.226  0.00  0.00    -0.251 OA
ATOM      4  N   UNL     1      -3.293  -1.122   1.190  0.00  0.00    -0.218 N 
ATOM      5  H   UNL     1      -1.810  -0.743  -0.822  0.00  0.00    +0.151 HD
ATOM      6  H   UNL     1      -3.765  -1.225   2.031  0.00  0.00    +0.174 HD
ENDROOT
BRANCH   4   7
ATOM      7  N   UNL     1      -3.925  -1.457  -0.014  0.00  0.00    -0.233 N 
ATOM      8  C   UNL     1      -5.190  -1.923  -0.005  0.00  0.00    +0.234 C 
ATOM      9  O   UNL     1      -5.780  -2.053   1.047  0.00  0.00    -0.274 OA
ATOM     10  H   UNL     1      -3.453  -1.353  -0.855  0.00  0.00    +0.173 HD
BRANCH   8  11
ATOM     11  C   UNL     1      -5.870  -2.284  -1.300  0.00  0.00    +0.134 C 
BRANCH  11  12
ATOM     12  C   UNL     1      -7.265  -2.776  -1.015  0.00  0.00    -0.014 A 
ATOM     13  C   UNL     1      -7.646  -4.054  -0.866  0.00  0.00    +0.087 A 
ATOM     14  N   UNL     1      -8.991  -4.114  -0.617  0.00  0.00    -0.360 N 
ATOM     15  H   UNL     1      -9.495  -4.930  -0.474  0.00  0.00    +0.165 HD
ATOM     16  C   UNL     1      -9.521  -2.844  -0.600  0.00  0.00    +0.047 A 
ATOM     17  C   UNL     1      -8.462  -1.949  -0.843  0.00  0.00    +0.003 A 
ATOM     18  C   UNL     1      -8.706  -0.575  -0.877  0.00  0.00    +0.010 A 
ATOM     19  C   UNL     1      -9.972  -0.105  -0.671  0.00  0.00    +0.001 A 
ATOM     20  C   UNL     1     -11.019  -0.983  -0.428  0.00  0.00    +0.002 A 
ATOM     21  C   UNL     1     -10.803  -2.344  -0.399  0.00  0.00    +0.026 A 
ENDBRANCH  11  12
ENDBRANCH   8  11
ENDBRANCH   4   7
BRANCH   1  23
ATOM     22  C   UNL     1      -0.019   1.526   0.010  0.00  0.00    +0.033 C 
ATOM     23  C   UNL     1       0.002  -0.004   0.002  0.00  0.00    +0.104 C 
BRANCH  23  24
ATOM     24  C   UNL     1       0.707  -0.490  -1.238  0.00  0.00    +0.008 A 
ATOM     25  C   UNL     1      -0.023  -0.817  -2.365  0.00  0.00    +0.011 A 
ATOM     26  C   UNL     1       0.623  -1.262  -3.503  0.00  0.00    +0.039 A 
ATOM     27  C   UNL     1       2.002  -1.382  -3.515  0.00  0.00    +0.126 A 
ATOM     28  C   UNL     1       2.735  -1.055  -2.387  0.00  0.00    +0.077 A 
ATOM     29  C   UNL     1       2.087  -0.603  -1.250  0.00  0.00    +0.131 A 
ATOM     30  F   UNL     1       2.801  -0.278  -0.150  0.00  0.00    -0.205 F 
ATOM     31  F   UNL     1       2.633  -1.818  -4.627  0.00  0.00    -0.205 F 
ENDBRANCH  23  24
ENDBRANCH   1  23
TORSDOF 5
