REMARK  Name = ZINC37951973
REMARK  8 active torsions:
REMARK  status: ('A' for Active; 'I' for Inactive)
REMARK    1  A    between atoms: C_1  and  C_2
REMARK    2  A    between atoms: C_2  and  C_3
REMARK    3  A    between atoms: C_3  and  C_4
REMARK    4  A    between atoms: C_3  and  C_11
REMARK    5  A    between atoms: C_3  and  N_14
REMARK    6  A    between atoms: C_7  and  O_10
REMARK    7  A    between atoms: N_14  and  C_15
REMARK    8  A    between atoms: C_15  and  C_16
REMARK                            x       y       z     vdW  Elec       q    Type
REMARK                         _______ _______ _______ _____ _____    ______ ____
ROOT
ATOM      1  C   UNL     1       0.742  -0.511   1.242  0.00  0.00    +0.036 C 
ENDROOT
BRANCH   1   2
ATOM      2  C   UNL     1      -0.030  -0.130   2.478  0.00  0.00    -0.049 A 
ATOM      3  C   UNL     1       0.555   0.679   3.435  0.00  0.00    +0.006 A 
ATOM      4  C   UNL     1      -0.150   1.030   4.570  0.00  0.00    +0.045 A 
ATOM      5  C   UNL     1      -1.447   0.570   4.749  0.00  0.00    +0.117 A 
ATOM      6  C   UNL     1      -2.032  -0.241   3.788  0.00  0.00    +0.045 A 
ATOM      7  C   UNL     1      -1.324  -0.584   2.652  0.00  0.00    +0.006 A 
BRANCH   5   8
ATOM      8  O   UNL     1      -2.142   0.914   5.865  0.00  0.00    -0.507 OA
ATOM      9  H   UNL     1      -2.655   1.729   5.774  0.00  0.00    +0.292 HD
ENDBRANCH   5   8
ENDBRANCH   1   2
BRANCH   1  10
ATOM     10  C   UNL     1       0.870  -2.011   1.172  0.00  0.00    +0.204 C 
ATOM     11  O   UNL     1       0.075  -2.658   0.524  0.00  0.00    -0.277 OA
ATOM     12  N   UNL     1       1.868  -2.633   1.830  0.00  0.00    -0.330 N 
ATOM     13  H   UNL     1       2.504  -2.116   2.348  0.00  0.00    +0.145 HD
ATOM     14  H   UNL     1       1.950  -3.599   1.785  0.00  0.00    +0.145 HD
ENDBRANCH   1  10
BRANCH   1  15
ATOM     15  N   UNL     1       2.080   0.093   1.294  0.00  0.00    +0.394 N 
ATOM     16  H   UNL     1       1.995   1.097   1.341  0.00  0.00    -0.083 HD
ATOM     17  H   UNL     1       2.568  -0.241   2.111  0.00  0.00    -0.083 HD
BRANCH  15  18
ATOM     18  C   UNL     1       2.833  -0.279   0.088  0.00  0.00    -0.037 C 
BRANCH  18  19
ATOM     19  C   UNL     1       4.205   0.340   0.142  0.00  0.00    -0.027 A 
ATOM     20  C   UNL     1       5.351  -0.167   0.660  0.00  0.00    +0.009 A 
ATOM     21  C   UNL     1       6.507   0.588   0.596  0.00  0.00    +0.008 A 
ATOM     22  C   UNL     1       6.461   1.813   0.018  0.00  0.00    +0.045 A 
ATOM     23  S   UNL     1       4.747   1.929  -0.467  0.00  0.00    -0.104 S 
ENDBRANCH  18  19
ENDBRANCH  15  18
ENDBRANCH   1  15
BRANCH   1  25
ATOM     24  C   UNL     1      -0.019   1.526   0.010  0.00  0.00    +0.003 C 
ATOM     25  C   UNL     1       0.002  -0.004   0.002  0.00  0.00    -0.002 C 
ENDBRANCH   1  25
TORSDOF 7
