REMARK  Name = ZINC09926515
REMARK  7 active torsions:
REMARK  status: ('A' for Active; 'I' for Inactive)
REMARK    1  A    between atoms: C_4  and  C_7
REMARK    2  A    between atoms: C_7  and  N_55
REMARK    3  A    between atoms: C_13  and  C_15
REMARK    4  A    between atoms: C_15  and  C_16
REMARK    5  A    between atoms: N_18  and  C_19
REMARK    6  A    between atoms: C_24  and  S_25
REMARK    7  A    between atoms: S_25  and  C_26
REMARK                            x       y       z     vdW  Elec       q    Type
REMARK                         _______ _______ _______ _____ _____    ______ ____
ROOT
ATOM      1  C   UNL     1       2.363   3.222   0.703  0.00  0.00    +0.216 C 
ATOM      2  O   UNL     1       3.186   2.491   1.212  0.00  0.00    -0.276 OA
ATOM      3  N   UNL     1       2.669   4.511   0.454  0.00  0.00    -0.285 N 
ATOM      4  H   UNL     1       1.987   5.117   0.125  0.00  0.00    +0.155 HD
ENDROOT
BRANCH   3   5
ATOM      5  C   UNL     1       3.973   4.976   0.670  0.00  0.00    +0.047 A 
ATOM      6  C   UNL     1       5.016   4.075   0.822  0.00  0.00    +0.024 A 
ATOM      7  C   UNL     1       6.303   4.537   1.030  0.00  0.00    +0.002 A 
ATOM      8  C   UNL     1       6.553   5.895   1.099  0.00  0.00    +0.001 A 
ATOM      9  C   UNL     1       5.519   6.800   0.954  0.00  0.00    +0.017 A 
ATOM     10  C   UNL     1       4.225   6.347   0.739  0.00  0.00    +0.034 A 
BRANCH  10  11
ATOM     11  S   UNL     1       2.904   7.498   0.555  0.00  0.00    -0.088 S 
BRANCH  11  12
ATOM     12  C   UNL     1       3.703   9.068   0.561  0.00  0.00    +0.013 A 
ATOM     13  C   UNL     1       3.965   9.713   1.764  0.00  0.00    +0.015 A 
ATOM     14  C   UNL     1       4.596  10.941   1.765  0.00  0.00    +0.001 A 
ATOM     15  C   UNL     1       4.958  11.535   0.570  0.00  0.00    +0.000 A 
ATOM     16  C   UNL     1       4.695  10.899  -0.630  0.00  0.00    +0.001 A 
ATOM     17  C   UNL     1       4.069   9.668  -0.638  0.00  0.00    +0.015 A 
ENDBRANCH  11  12
ENDBRANCH  10  11
ENDBRANCH   3   5
BRANCH   1  18
ATOM     18  C   UNL     1       0.999   2.690   0.348  0.00  0.00    +0.092 C 
BRANCH  18  24
ATOM     19  C   UNL     1      -0.564  -0.706   0.814  0.00  0.00    -0.036 C 
ATOM     20  C   UNL     1      -0.628  -0.662   2.344  0.00  0.00    +0.213 C 
ATOM     21  O   UNL     1       0.593  -0.050   2.851  0.00  0.00    -0.468 OA
ATOM     22  C   UNL     1       0.918   1.133   2.286  0.00  0.00    +0.294 C 
ATOM     23  O   UNL     1       1.213   2.089   2.965  0.00  0.00    -0.253 OA
ATOM     24  C   UNL     1       0.896   1.224   0.776  0.00  0.00    +0.052 C 
ATOM     25  N   UNL     1      -0.392   0.670   0.304  0.00  0.00    +0.394 N 
ATOM     26  H   UNL     1      -1.157   1.256   0.659  0.00  0.00    -0.080 HD
BRANCH  25  27
ATOM     27  C   UNL     1      -0.431   0.670  -1.175  0.00  0.00    -0.042 C 
BRANCH  27  31
ATOM     28  C   UNL     1       2.792  -1.647  -2.753  0.00  0.00    +0.000 A 
ATOM     29  C   UNL     1       1.590  -2.256  -2.443  0.00  0.00    +0.000 A 
ATOM     30  C   UNL     1       0.547  -1.506  -1.933  0.00  0.00    +0.002 A 
ATOM     31  C   UNL     1       0.706  -0.147  -1.731  0.00  0.00    -0.064 A 
ATOM     32  C   UNL     1       1.907   0.462  -2.045  0.00  0.00    +0.002 A 
ATOM     33  C   UNL     1       2.951  -0.289  -2.552  0.00  0.00    +0.000 A 
ENDBRANCH  27  31
ENDBRANCH  25  27
ENDBRANCH  18  24
ENDBRANCH   1  18
TORSDOF 7
