REMARK  Name = ZINC31766460
REMARK  10 active torsions:
REMARK  status: ('A' for Active; 'I' for Inactive)
REMARK    1  A    between atoms: C_1  and  C_2
REMARK    2  A    between atoms: C_2  and  N_3
REMARK    3  A    between atoms: C_12  and  S_14
REMARK    4  A    between atoms: S_14  and  C_15
REMARK    5  A    between atoms: C_15  and  C_17
REMARK    6  A    between atoms: C_15  and  C_18
REMARK    7  A    between atoms: C_18  and  C_20
REMARK    8  A    between atoms: C_21  and  N_30
REMARK    9  A    between atoms: N_22  and  C_29
REMARK   10  A    between atoms: N_25  and  C_28
REMARK                            x       y       z     vdW  Elec       q    Type
REMARK                         _______ _______ _______ _____ _____    ______ ____
ROOT
ATOM      1  C   UNL     1       0.232  -6.766  -0.230  0.00  0.00    +0.122 C 
ATOM      2  C   UNL     1      -0.500  -6.961  -1.560  0.00  0.00    +0.028 C 
ENDROOT
BRANCH   1   3
ATOM      3  C   UNL     1      -0.201  -7.832   0.743  0.00  0.00    +0.185 C 
ATOM      4  O   UNL     1      -1.094  -7.605   1.534  0.00  0.00    -0.291 OA
BRANCH   3   5
ATOM      5  C   UNL     1       0.432  -9.093   0.736  0.00  0.00    +0.121 A 
ATOM      6  C   UNL     1       0.134 -10.060   1.712  0.00  0.00    +0.116 A 
ATOM      7  N   UNL     1       0.772 -11.266   1.663  0.00  0.00    -0.284 N 
ATOM      8  C   UNL     1       1.671 -11.542   0.706  0.00  0.00    +0.333 A 
ATOM      9  O   UNL     1       2.211 -12.630   0.705  0.00  0.00    -0.246 OA
ATOM     10  N   UNL     1       1.996 -10.658  -0.253  0.00  0.00    -0.263 N 
ATOM     11  C   UNL     1       1.418  -9.440  -0.296  0.00  0.00    +0.269 A 
ATOM     12  O   UNL     1       1.711  -8.644  -1.168  0.00  0.00    -0.267 OA
ATOM     13  C   UNL     1       2.987 -11.025  -1.268  0.00  0.00    +0.157 C 
ATOM     14  C   UNL     1       0.468 -12.280   2.675  0.00  0.00    +0.155 C 
BRANCH   6  15
ATOM     15  N   UNL     1      -0.775  -9.797   2.690  0.00  0.00    -0.344 N 
ATOM     16  H   UNL     1      -1.278  -8.969   2.674  0.00  0.00    +0.144 HD
ATOM     17  H   UNL     1      -0.919 -10.439   3.403  0.00  0.00    +0.144 HD
ENDBRANCH   6  15
ENDBRANCH   3   5
ENDBRANCH   1   3
BRANCH   1  18
ATOM     18  S   UNL     1      -0.168  -5.131   0.446  0.00  0.00    -0.075 S 
BRANCH  18  28
ATOM     19  N   UNL     1       0.750  -0.455  -1.104  0.00  0.00    -0.329 N 
ATOM     20  C   UNL     1       0.892  -1.806  -1.343  0.00  0.00    +0.131 A 
ATOM     21  C   UNL     1       1.574  -2.272  -2.494  0.00  0.00    +0.040 A 
ATOM     22  C   UNL     1       2.131  -1.397  -3.432  0.00  0.00    +0.013 A 
ATOM     23  C   UNL     1       2.777  -1.901  -4.523  0.00  0.00    +0.001 A 
ATOM     24  C   UNL     1       2.891  -3.275  -4.714  0.00  0.00    +0.002 A 
ATOM     25  C   UNL     1       2.359  -4.155  -3.818  0.00  0.00    +0.028 A 
ATOM     26  C   UNL     1       1.688  -3.671  -2.687  0.00  0.00    +0.077 A 
ATOM     27  N   UNL     1       1.149  -4.494  -1.776  0.00  0.00    -0.222 NA
ATOM     28  C   UNL     1       0.523  -4.006  -0.721  0.00  0.00    +0.191 A 
ATOM     29  N   UNL     1       0.398  -2.700  -0.499  0.00  0.00    -0.206 NA
ATOM     30  H   UNL     1       1.117   0.189  -1.730  0.00  0.00    +0.147 HD
BRANCH  19  32
ATOM     31  C   UNL     1       0.031   1.536   0.120  0.00  0.00    +0.024 C 
ATOM     32  C   UNL     1       0.047   0.006   0.095  0.00  0.00    +0.099 C 
ENDBRANCH  19  32
ENDBRANCH  18  28
ENDBRANCH   1  18
TORSDOF 6
