REMARK  Name = ZINC22534994
REMARK  14 active torsions:
REMARK  status: ('A' for Active; 'I' for Inactive)
REMARK    1  A    between atoms: C_1  and  C_2
REMARK    2  A    between atoms: C_2  and  C_4
REMARK    3  A    between atoms: C_2  and  S_14
REMARK    4  A    between atoms: N_6  and  C_7
REMARK    5  A    between atoms: N_6  and  C_8
REMARK    6  A    between atoms: S_14  and  C_15
REMARK    7  A    between atoms: C_18  and  C_21
REMARK    8  A    between atoms: N_19  and  N_20
REMARK    9  A    between atoms: C_21  and  O_22
REMARK   10  A    between atoms: O_22  and  C_23
REMARK   11  A    between atoms: C_26  and  C_29
REMARK   12  A    between atoms: C_29  and  C_30
REMARK   13  A    between atoms: C_29  and  C_31
REMARK   14  A    between atoms: C_29  and  C_32
REMARK                            x       y       z     vdW  Elec       q    Type
REMARK                         _______ _______ _______ _____ _____    ______ ____
ROOT
ATOM      1  C   UNL     1      -2.066   1.756  -2.935  0.00  0.00    +0.209 A 
ATOM      2  N   UNL     1      -1.291   2.814  -2.866  0.00  0.00    -0.121 NA
ATOM      3  N   UNL     1      -0.485   2.700  -1.871  0.00  0.00    -0.128 NA
ATOM      4  C   UNL     1      -0.696   1.574  -1.251  0.00  0.00    +0.189 A 
ATOM      5  N   UNL     1      -1.706   0.929  -1.909  0.00  0.00    -0.225 N 
ENDROOT
BRANCH   5   6
ATOM      6  N   UNL     1      -2.246  -0.288  -1.603  0.00  0.00    -0.295 N 
ATOM      7  H   UNL     1      -1.863  -0.858  -0.744  0.00  0.00    +0.163 HD
ATOM      8  H   UNL     1      -3.063  -0.697  -2.215  0.00  0.00    +0.163 HD
ENDBRANCH   5   6
BRANCH   1   9
ATOM      9  S   UNL     1      -3.327   1.456  -4.128  0.00  0.00    -0.072 S 
BRANCH   9  11
ATOM     10  C   UNL     1      -1.824   2.997  -5.811  0.00  0.00    +0.029 C 
ATOM     11  C   UNL     1      -3.188   2.966  -5.118  0.00  0.00    +0.137 C 
BRANCH  11  12
ATOM     12  C   UNL     1      -4.279   2.988  -6.156  0.00  0.00    +0.233 C 
ATOM     13  O   UNL     1      -4.836   1.958  -6.473  0.00  0.00    -0.274 OA
ATOM     14  N   UNL     1      -4.637   4.153  -6.733  0.00  0.00    -0.274 N 
ATOM     15  C   UNL     1      -4.048   5.411  -6.269  0.00  0.00    +0.138 C 
BRANCH  14  16
ATOM     16  C   UNL     1      -5.570   4.159  -7.776  0.00  0.00    +0.036 A 
ATOM     17  C   UNL     1      -5.185   4.548  -9.052  0.00  0.00    +0.023 A 
ATOM     18  C   UNL     1      -6.107   4.549 -10.080  0.00  0.00    +0.002 A 
ATOM     19  C   UNL     1      -7.416   4.173  -9.837  0.00  0.00    +0.000 A 
ATOM     20  C   UNL     1      -7.804   3.791  -8.566  0.00  0.00    +0.002 A 
ATOM     21  C   UNL     1      -6.885   3.783  -7.535  0.00  0.00    +0.023 A 
ENDBRANCH  14  16
ENDBRANCH  11  12
ENDBRANCH   9  11
ENDBRANCH   1   9
BRANCH   4  22
ATOM     22  C   UNL     1       0.043   1.071  -0.037  0.00  0.00    +0.306 C 
BRANCH  22  23
ATOM     23  O   UNL     1      -0.623   1.519   1.145  0.00  0.00    -0.484 OA
BRANCH  23  24
ATOM     24  C   UNL     1      -0.082   1.150   2.336  0.00  0.00    +0.121 A 
ATOM     25  C   UNL     1       1.064   0.368   2.365  0.00  0.00    +0.046 A 
ATOM     26  C   UNL     1       1.616  -0.001   3.577  0.00  0.00    +0.008 A 
ATOM     27  C   UNL     1       1.021   0.398   4.759  0.00  0.00    -0.042 A 
ATOM     28  C   UNL     1      -0.124   1.173   4.732  0.00  0.00    +0.008 A 
ATOM     29  C   UNL     1      -0.677   1.550   3.523  0.00  0.00    +0.046 A 
BRANCH  27  30
ATOM     30  C   UNL     1       1.621  -0.011   6.079  0.00  0.00    -0.013 C 
ATOM     31  C   UNL     1       0.601  -0.831   6.871  0.00  0.00    +0.015 C 
ATOM     32  C   UNL     1       2.872  -0.857   5.830  0.00  0.00    +0.015 C 
ATOM     33  C   UNL     1       2.001   1.238   6.876  0.00  0.00    +0.015 C 
ENDBRANCH  27  30
ENDBRANCH  23  24
ENDBRANCH  22  23
ENDBRANCH   4  22
TORSDOF 9
