REMARK  Name = ZINC49978177
REMARK  8 active torsions:
REMARK  status: ('A' for Active; 'I' for Inactive)
REMARK    1  A    between atoms: C_1  and  C_2
REMARK    2  A    between atoms: C_5  and  N_9
REMARK    3  A    between atoms: C_6  and  C_8
REMARK    4  A    between atoms: N_9  and  C_10
REMARK    5  A    between atoms: N_9  and  C_11
REMARK    6  A    between atoms: C_11  and  C_12
REMARK    7  A    between atoms: C_15  and  C_19
REMARK    8  A    between atoms: C_17  and  N_18
REMARK                            x       y       z     vdW  Elec       q    Type
REMARK                         _______ _______ _______ _____ _____    ______ ____
ROOT
ATOM      1  C   UNL     1      -1.543  -5.265  -1.445  0.00  0.00    -0.010 A 
ATOM      2  C   UNL     1      -1.478  -6.581  -1.865  0.00  0.00    +0.008 A 
ATOM      3  C   UNL     1      -1.855  -6.919  -3.149  0.00  0.00    +0.013 A 
ATOM      4  C   UNL     1      -2.302  -5.932  -4.029  0.00  0.00    +0.038 A 
ATOM      5  C   UNL     1      -2.367  -4.605  -3.605  0.00  0.00    +0.036 A 
ATOM      6  C   UNL     1      -1.992  -4.276  -2.311  0.00  0.00    +0.030 A 
ENDROOT
BRANCH   4   7
ATOM      7  C   UNL     1      -2.705  -6.292  -5.405  0.00  0.00    +0.242 C 
ATOM      8  O   UNL     1      -3.094  -5.430  -6.169  0.00  0.00    -0.270 OA
ATOM      9  N   UNL     1      -2.641  -7.575  -5.812  0.00  0.00    -0.325 N 
ATOM     10  H   UNL     1      -2.331  -8.262  -5.202  0.00  0.00    +0.145 HD
ATOM     11  H   UNL     1      -2.905  -7.811  -6.715  0.00  0.00    +0.145 HD
ENDBRANCH   4   7
BRANCH   6  12
ATOM     12  N   UNL     1      -2.061  -2.948  -1.880  0.00  0.00    -0.358 N 
ATOM     13  H   UNL     1      -1.889  -2.731  -0.950  0.00  0.00    +0.142 HD
ATOM     14  H   UNL     1      -2.280  -2.244  -2.510  0.00  0.00    +0.142 HD
ENDBRANCH   6  12
BRANCH   1  15
ATOM     15  C   UNL     1      -1.130  -4.904  -0.041  0.00  0.00    +0.141 C 
BRANCH  15  16
ATOM     16  N   UNL     1       0.250  -4.414  -0.049  0.00  0.00    -0.328 N 
ATOM     17  C   UNL     1       1.365  -5.363   0.009  0.00  0.00    +0.129 C 
BRANCH  16  22
ATOM     18  C   UNL     1       1.278   1.157  -0.302  0.00  0.00    +0.044 C 
ATOM     19  C   UNL     1       1.005  -0.323  -0.234  0.00  0.00    -0.050 A 
ATOM     20  C   UNL     1       0.894  -1.058  -1.401  0.00  0.00    +0.005 A 
ATOM     21  C   UNL     1       0.644  -2.415  -1.343  0.00  0.00    +0.023 A 
ATOM     22  C   UNL     1       0.504  -3.042  -0.111  0.00  0.00    +0.033 A 
ATOM     23  C   UNL     1       0.616  -2.301   1.058  0.00  0.00    -0.029 A 
ATOM     24  C   UNL     1       0.872  -0.945   0.993  0.00  0.00    +0.008 A 
ATOM     25  C   UNL     1       0.464  -2.977   2.397  0.00  0.00    +0.045 C 
ENDBRANCH  16  22
ENDBRANCH  15  16
ENDBRANCH   1  15
TORSDOF 5
