REMARK  Name = ZINC13065430
REMARK  12 active torsions:
REMARK  status: ('A' for Active; 'I' for Inactive)
REMARK    1  A    between atoms: C_1  and  C_2
REMARK    2  A    between atoms: C_2  and  C_3
REMARK    3  A    between atoms: C_3  and  C_4
REMARK    4  A    between atoms: C_3  and  C_5
REMARK    5  A    between atoms: C_3  and  N_6
REMARK    6  A    between atoms: C_7  and  C_11
REMARK    7  A    between atoms: C_11  and  N_65
REMARK    8  A    between atoms: C_12  and  C_13
REMARK    9  A    between atoms: C_12  and  N_65
REMARK   10  A    between atoms: C_16  and  C_19
REMARK   11  A    between atoms: C_20  and  C_21
REMARK   12  A    between atoms: C_20  and  N_65
REMARK                            x       y       z     vdW  Elec       q    Type
REMARK                         _______ _______ _______ _____ _____    ______ ____
ROOT
ATOM      1  N   UNL     1      -0.310   0.952   1.309  0.00  0.00    +0.390 N 
ATOM      2  H   UNL     1      -0.740   1.813   0.950  0.00  0.00    -0.080 HD
ENDROOT
BRANCH   1   3
ATOM      3  C   UNL     1       0.404   0.276   0.206  0.00  0.00    +0.001 C 
BRANCH   3   5
ATOM      4  N   UNL     1       1.632  -1.942  -0.075  0.00  0.00    -0.226 N 
ATOM      5  C   UNL     1       0.994  -1.028   0.679  0.00  0.00    +0.136 A 
ATOM      6  N   UNL     1       0.980  -1.494   1.904  0.00  0.00    -0.115 NA
ATOM      7  N   UNL     1       1.583  -2.633   1.903  0.00  0.00    -0.023 NA
ATOM      8  N   UNL     1       1.980  -2.905   0.709  0.00  0.00    -0.043 NA
BRANCH   4   9
ATOM      9  C   UNL     1       1.885  -1.858  -1.516  0.00  0.00    +0.061 C 
ATOM     10  C   UNL     1       0.555  -1.734  -2.261  0.00  0.00    +0.036 C 
ATOM     11  C   UNL     1       2.751  -0.631  -1.810  0.00  0.00    +0.036 C 
BRANCH   9  13
ATOM     12  C   UNL     1       2.800  -3.073  -3.498  0.00  0.00    +0.006 C 
ATOM     13  C   UNL     1       2.614  -3.120  -1.980  0.00  0.00    +0.026 C 
ENDBRANCH   9  13
ENDBRANCH   4   9
ENDBRANCH   3   5
ENDBRANCH   1   3
BRANCH   1  14
ATOM     14  C   UNL     1      -1.373   0.071   1.837  0.00  0.00    -0.042 C 
BRANCH  14  15
ATOM     15  C   UNL     1      -2.514   0.044   0.853  0.00  0.00    -0.064 A 
ATOM     16  C   UNL     1      -3.472   1.039   0.879  0.00  0.00    +0.002 A 
ATOM     17  C   UNL     1      -4.516   1.017  -0.026  0.00  0.00    +0.003 A 
ATOM     18  C   UNL     1      -4.607  -0.006  -0.952  0.00  0.00    -0.050 A 
ATOM     19  C   UNL     1      -3.651  -1.004  -0.974  0.00  0.00    +0.003 A 
ATOM     20  C   UNL     1      -2.604  -0.980  -0.071  0.00  0.00    +0.002 A 
ATOM     21  C   UNL     1      -5.748  -0.034  -1.936  0.00  0.00    +0.044 C 
ENDBRANCH  14  15
ENDBRANCH   1  14
BRANCH   1  22
ATOM     22  C   UNL     1       0.639   1.302   2.386  0.00  0.00    -0.036 C 
BRANCH  22  23
ATOM     23  C   UNL     1       1.576   2.368   1.881  0.00  0.00    +0.001 A 
ATOM     24  C   UNL     1       1.298   3.677   2.109  0.00  0.00    +0.017 A 
ATOM     25  C   UNL     1       2.228   4.688   1.607  0.00  0.00    +0.002 A 
ATOM     26  C   UNL     1       1.993   6.053   1.815  0.00  0.00    +0.059 A 
ATOM     27  C   UNL     1       2.888   6.981   1.330  0.00  0.00    +0.167 A 
ATOM     28  C   UNL     1       4.028   6.565   0.632  0.00  0.00    +0.168 A 
ATOM     29  C   UNL     1       4.268   5.219   0.422  0.00  0.00    +0.075 A 
ATOM     30  C   UNL     1       3.376   4.271   0.905  0.00  0.00    +0.053 A 
ATOM     31  N   UNL     1       3.600   2.923   0.706  0.00  0.00    -0.322 N 
ATOM     32  H   UNL     1       4.390   2.636   0.222  0.00  0.00    +0.169 HD
ATOM     33  C   UNL     1       2.742   2.002   1.177  0.00  0.00    +0.251 A 
ATOM     34  O   UNL     1       2.974   0.821   0.988  0.00  0.00    -0.268 OA
ATOM     35  O   UNL     1       4.739   7.671   0.266  0.00  0.00    -0.453 OA
ATOM     36  C   UNL     1       4.246   8.739   1.096  0.00  0.00    +0.466 C 
ATOM     37  O   UNL     1       2.894   8.346   1.396  0.00  0.00    -0.453 OA
ENDBRANCH  22  23
ENDBRANCH   1  22
TORSDOF 8
