REMARK  Name = ZINC16884128
REMARK  4 active torsions:
REMARK  status: ('A' for Active; 'I' for Inactive)
REMARK    1  A    between atoms: C_4  and  C_7
REMARK    2  A    between atoms: C_9  and  C_17
REMARK    3  A    between atoms: C_14  and  O_15
REMARK    4  A    between atoms: C_22  and  O_23
REMARK                            x       y       z     vdW  Elec       q    Type
REMARK                         _______ _______ _______ _____ _____    ______ ____
ROOT
ATOM      1  C   UNL     1      -2.514   0.980   0.019  0.00  0.00    +0.133 C 
ATOM      2  C   UNL     1      -3.331   1.348  -1.222  0.00  0.00    +0.158 C 
ATOM      3  N   UNL     1      -3.891   2.692  -1.048  0.00  0.00    -0.243 NA
ATOM      4  C   UNL     1      -4.245   3.123   0.129  0.00  0.00    +0.211 C 
ATOM      5  N   UNL     1      -4.110   2.355   1.239  0.00  0.00    -0.183 NA
ATOM      6  C   UNL     1      -3.307   1.329   1.253  0.00  0.00    +0.200 C 
ATOM      7  N   UNL     1      -4.769   4.393   0.250  0.00  0.00    -0.328 N 
ATOM      8  H   UNL     1      -5.036   4.726   1.121  0.00  0.00    +0.145 HD
ATOM      9  H   UNL     1      -4.871   4.952  -0.535  0.00  0.00    +0.145 HD
ENDROOT
BRANCH   1  13
ATOM     10  C   UNL     1       1.156   3.165   0.008  0.00  0.00    +0.000 A 
ATOM     11  C   UNL     1       1.175   1.783   0.000  0.00  0.00    +0.000 A 
ATOM     12  C   UNL     1      -0.013   1.076   0.008  0.00  0.00    +0.004 A 
ATOM     13  C   UNL     1      -1.219   1.751   0.017  0.00  0.00    -0.033 A 
ATOM     14  C   UNL     1      -1.238   3.133   0.030  0.00  0.00    +0.004 A 
ATOM     15  C   UNL     1      -0.050   3.840   0.022  0.00  0.00    +0.000 A 
ENDBRANCH   1  13
BRANCH   2  16
ATOM     16  C   UNL     1      -4.451   0.355  -1.399  0.00  0.00    +0.019 A 
ATOM     17  C   UNL     1      -5.731   0.675  -0.987  0.00  0.00    +0.009 A 
ATOM     18  C   UNL     1      -6.759  -0.235  -1.151  0.00  0.00    +0.001 A 
ATOM     19  C   UNL     1      -6.509  -1.467  -1.726  0.00  0.00    +0.004 A 
ATOM     20  C   UNL     1      -5.232  -1.793  -2.138  0.00  0.00    +0.046 A 
ATOM     21  C   UNL     1      -4.200  -0.879  -1.981  0.00  0.00    +0.122 A 
BRANCH  21  22
ATOM     22  O   UNL     1      -2.943  -1.194  -2.392  0.00  0.00    -0.506 OA
ATOM     23  H   UNL     1      -2.404  -1.625  -1.714  0.00  0.00    +0.292 HD
ENDBRANCH  21  22
ENDBRANCH   2  16
BRANCH   6  24
ATOM     24  O   UNL     1      -3.187   0.582   2.365  0.00  0.00    -0.495 OA
ATOM     25  H   UNL     1      -3.716   0.846   3.131  0.00  0.00    +0.293 HD
ENDBRANCH   6  24
TORSDOF 4
