REMARK  Name = ZINC16819649
REMARK  8 active torsions:
REMARK  status: ('A' for Active; 'I' for Inactive)
REMARK    1  A    between atoms: C_1  and  C_2
REMARK    2  A    between atoms: C_2  and  N_3
REMARK    3  A    between atoms: C_12  and  S_13
REMARK    4  A    between atoms: S_13  and  C_14
REMARK    5  A    between atoms: C_14  and  C_16
REMARK    6  A    between atoms: C_14  and  C_17
REMARK    7  A    between atoms: C_29  and  C_30
REMARK    8  A    between atoms: C_29  and  C_31
REMARK                            x       y       z     vdW  Elec       q    Type
REMARK                         _______ _______ _______ _____ _____    ______ ____
ROOT
ATOM      1  C   UNL     1       1.397  -0.357   4.515  0.00  0.00    +0.137 C 
ATOM      2  C   UNL     1       2.484   0.582   5.040  0.00  0.00    +0.029 C 
ENDROOT
BRANCH   1   3
ATOM      3  C   UNL     1       1.048   0.019   3.098  0.00  0.00    +0.234 C 
ATOM      4  O   UNL     1       1.308  -0.740   2.188  0.00  0.00    -0.274 OA
ATOM      5  N   UNL     1       0.448   1.198   2.842  0.00  0.00    -0.255 N 
ATOM      6  C   UNL     1       0.303   1.666   1.527  0.00  0.00    +0.059 A 
ATOM      7  C   UNL     1       1.216   1.330   0.544  0.00  0.00    +0.025 A 
ATOM      8  C   UNL     1       1.049   1.811  -0.742  0.00  0.00    +0.002 A 
ATOM      9  C   UNL     1      -0.027   2.625  -1.045  0.00  0.00    +0.002 A 
ATOM     10  C   UNL     1      -0.945   2.964  -0.068  0.00  0.00    +0.025 A 
ATOM     11  C   UNL     1      -0.786   2.485   1.223  0.00  0.00    +0.055 A 
ATOM     12  N   UNL     1      -1.705   2.811   2.226  0.00  0.00    -0.282 N 
ATOM     13  C   UNL     1      -1.418   2.589   3.522  0.00  0.00    +0.241 C 
ATOM     14  O   UNL     1      -2.247   2.839   4.371  0.00  0.00    -0.273 OA
ATOM     15  C   UNL     1      -0.078   2.034   3.932  0.00  0.00    +0.113 C 
ATOM     16  C   UNL     1      -0.239   1.187   5.195  0.00  0.00    +0.042 C 
ATOM     17  C   UNL     1       0.893   3.185   4.207  0.00  0.00    +0.042 C 
ATOM     18  H   UNL     1      -2.560   3.202   1.984  0.00  0.00    +0.155 HD
ENDBRANCH   1   3
BRANCH   1  19
ATOM     19  S   UNL     1       2.001  -2.063   4.556  0.00  0.00    -0.075 S 
BRANCH  19  29
ATOM     20  N   UNL     1       2.632  -3.476   6.779  0.00  0.00    -0.288 N 
ATOM     21  C   UNL     1       2.782  -3.681   8.101  0.00  0.00    +0.263 A 
ATOM     22  O   UNL     1       3.186  -4.753   8.518  0.00  0.00    -0.267 OA
ATOM     23  C   UNL     1       2.463  -2.623   9.010  0.00  0.00    +0.076 A 
ATOM     24  C   UNL     1       2.550  -2.626  10.471  0.00  0.00    -0.023 A 
ATOM     25  C   UNL     1       2.188  -1.493  11.108  0.00  0.00    -0.004 A 
ATOM     26  S   UNL     1       1.716  -0.371   9.819  0.00  0.00    -0.073 S 
ATOM     27  C   UNL     1       2.007  -1.430   8.424  0.00  0.00    +0.117 A 
ATOM     28  N   UNL     1       1.885  -1.290   7.109  0.00  0.00    -0.216 NA
ATOM     29  C   UNL     1       2.182  -2.282   6.295  0.00  0.00    +0.173 A 
ATOM     30  C   UNL     1       2.187  -1.243  12.585  0.00  0.00    +0.043 C 
ATOM     31  C   UNL     1       2.308  -2.593  13.305  0.00  0.00    +0.005 C 
ATOM     32  C   UNL     1       3.442  -3.395  12.659  0.00  0.00    +0.005 C 
ATOM     33  C   UNL     1       3.027  -3.844  11.257  0.00  0.00    +0.037 C 
BRANCH  20  35
ATOM     34  C   UNL     1       4.429  -4.451   5.437  0.00  0.00    +0.027 C 
ATOM     35  C   UNL     1       2.958  -4.555   5.843  0.00  0.00    +0.124 C 
ENDBRANCH  20  35
ENDBRANCH  19  29
ENDBRANCH   1  19
TORSDOF 4
