REMARK  Name = ZINC05106034
REMARK  3 active torsions:
REMARK  status: ('A' for Active; 'I' for Inactive)
REMARK    1  A    between atoms: C_1  and  C_2
REMARK    2  A    between atoms: C_2  and  C_21
REMARK    3  A    between atoms: C_3  and  C_14
REMARK                            x       y       z     vdW  Elec       q    Type
REMARK                         _______ _______ _______ _____ _____    ______ ____
ROOT
ATOM      1  C   UNL     1       2.564   2.072   2.299  0.00  0.00    +0.056 C 
ATOM      2  C   UNL     1       3.400   1.513   1.146  0.00  0.00    +0.118 C 
ATOM      3  C   UNL     1       2.490   1.047  -0.016  0.00  0.00    +0.101 C 
ATOM      4  C   UNL     1       3.311   1.433  -1.228  0.00  0.00    +0.065 A 
ATOM      5  C   UNL     1       3.247   1.085  -2.568  0.00  0.00    +0.129 A 
ATOM      6  N   UNL     1       4.143   1.602  -3.409  0.00  0.00    -0.200 NA
ATOM      7  C   UNL     1       5.075   2.432  -2.966  0.00  0.00    +0.217 A 
ATOM      8  N   UNL     1       5.158   2.785  -1.694  0.00  0.00    -0.179 NA
ATOM      9  C   UNL     1       4.295   2.312  -0.793  0.00  0.00    +0.225 A 
ATOM     10  O   UNL     1       4.187   2.552   0.537  0.00  0.00    -0.469 OA
ATOM     11  N   UNL     1       5.993   2.948  -3.865  0.00  0.00    -0.327 N 
ATOM     12  N   UNL     1       2.269   0.216  -3.025  0.00  0.00    -0.343 N 
ATOM     13  C   UNL     1       4.293   0.368   1.627  0.00  0.00    +0.056 C 
ATOM     14  H   UNL     1       5.946   2.700  -4.802  0.00  0.00    +0.145 HD
ATOM     15  H   UNL     1       6.682   3.557  -3.558  0.00  0.00    +0.145 HD
ATOM     16  H   UNL     1       1.621  -0.155  -2.405  0.00  0.00    +0.144 HD
ATOM     17  H   UNL     1       2.232  -0.021  -3.965  0.00  0.00    +0.144 HD
ENDROOT
BRANCH   3  18
ATOM     18  C   UNL     1       1.175   1.783   0.000  0.00  0.00    -0.036 A 
ATOM     19  C   UNL     1      -0.013   1.076   0.008  0.00  0.00    +0.006 A 
ATOM     20  C   UNL     1      -1.219   1.750   0.017  0.00  0.00    +0.020 A 
ATOM     21  C   UNL     1      -1.237   3.134   0.030  0.00  0.00    +0.041 A 
ATOM     22  C   UNL     1      -0.048   3.841   0.023  0.00  0.00    +0.020 A 
ATOM     23  C   UNL     1       1.157   3.165   0.009  0.00  0.00    +0.006 A 
ATOM     24 CL   UNL     1      -2.752   3.982   0.048  0.00  0.00    -0.084 Cl
ENDBRANCH   3  18
TORSDOF 1
