REMARK  Name = ZINC06793332
REMARK  5 active torsions:
REMARK  status: ('A' for Active; 'I' for Inactive)
REMARK    1  A    between atoms: C_1  and  O_2
REMARK    2  A    between atoms: O_2  and  C_3
REMARK    3  A    between atoms: C_5  and  C_10
REMARK    4  A    between atoms: C_8  and  O_9
REMARK    5  A    between atoms: N_16  and  C_19
REMARK                            x       y       z     vdW  Elec       q    Type
REMARK                         _______ _______ _______ _____ _____    ______ ____
ROOT
ATOM      1  C   UNL     1       2.403   0.379  -4.230  0.00  0.00    +0.093 C 
ATOM      2  C   UNL     1       3.871   0.074  -4.327  0.00  0.00    +0.070 A 
ATOM      3  C   UNL     1       4.404  -0.663  -5.355  0.00  0.00    +0.125 A 
ATOM      4  N   UNL     1       5.745  -0.765  -5.154  0.00  0.00    -0.277 N 
ATOM      5  H   UNL     1       6.374  -1.234  -5.725  0.00  0.00    +0.189 HD
ATOM      6  N   UNL     1       6.058  -0.072  -3.973  0.00  0.00    -0.218 N 
ATOM      7  C   UNL     1       4.912   0.439  -3.472  0.00  0.00    +0.278 A 
ATOM      8  O   UNL     1       4.806   1.101  -2.454  0.00  0.00    -0.265 OA
ATOM      9  N   UNL     1       3.615  -1.160  -6.364  0.00  0.00    -0.303 N 
ATOM     10  C   UNL     1       2.337  -0.670  -6.507  0.00  0.00    +0.017 C 
ATOM     11  C   UNL     1       1.732   0.059  -5.548  0.00  0.00    +0.024 C 
ATOM     12  C   UNL     1       0.430   0.562  -5.736  0.00  0.00    +0.162 C 
ATOM     13  O   UNL     1      -0.092   1.205  -4.847  0.00  0.00    -0.292 OA
ATOM     14  C   UNL     1      -0.329   0.323  -7.011  0.00  0.00    +0.080 C 
ATOM     15  C   UNL     1       0.671   0.151  -8.160  0.00  0.00    +0.014 C 
ATOM     16  C   UNL     1       1.623  -0.991  -7.801  0.00  0.00    +0.051 C 
ATOM     17  H   UNL     1       3.952  -1.843  -6.965  0.00  0.00    +0.153 HD
ENDROOT
BRANCH   1  20
ATOM     18  C   UNL     1       0.606  -0.608  -1.056  0.00  0.00    +0.162 A 
ATOM     19  C   UNL     1       1.173   0.159  -2.062  0.00  0.00    +0.054 A 
ATOM     20  C   UNL     1       1.787  -0.456  -3.137  0.00  0.00    -0.032 A 
ATOM     21  C   UNL     1       1.837  -1.836  -3.212  0.00  0.00    +0.008 A 
ATOM     22  C   UNL     1       1.273  -2.606  -2.212  0.00  0.00    +0.049 A 
ATOM     23  C   UNL     1       0.662  -1.996  -1.129  0.00  0.00    +0.158 A 
BRANCH  18  25
ATOM     24  C   UNL     1      -0.017   1.425   0.010  0.00  0.00    +0.277 C 
ATOM     25  O   UNL     1       0.002  -0.004   0.002  0.00  0.00    -0.491 OA
ENDBRANCH  18  25
BRANCH  23  26
ATOM     26  O   UNL     1       0.112  -2.753  -0.142  0.00  0.00    -0.503 OA
ATOM     27  H   UNL     1      -0.816  -2.979  -0.291  0.00  0.00    +0.292 HD
ENDBRANCH  23  26
ENDBRANCH   1  20
BRANCH   6  28
ATOM     28  C   UNL     1       7.332   0.065  -3.414  0.00  0.00    +0.067 A 
ATOM     29  C   UNL     1       7.501   0.776  -2.232  0.00  0.00    +0.028 A 
ATOM     30  C   UNL     1       8.761   0.909  -1.683  0.00  0.00    +0.002 A 
ATOM     31  C   UNL     1       9.854   0.337  -2.307  0.00  0.00    +0.000 A 
ATOM     32  C   UNL     1       9.689  -0.371  -3.483  0.00  0.00    +0.002 A 
ATOM     33  C   UNL     1       8.431  -0.514  -4.035  0.00  0.00    +0.028 A 
ENDBRANCH   6  28
TORSDOF 4
