REMARK  Name = ZINC16025223
REMARK  8 active torsions:
REMARK  status: ('A' for Active; 'I' for Inactive)
REMARK    1  A    between atoms: C_1  and  C_2
REMARK    2  A    between atoms: C_2  and  C_3
REMARK    3  A    between atoms: C_2  and  C_4
REMARK    4  A    between atoms: C_4  and  C_5
REMARK    5  A    between atoms: N_13  and  C_16
REMARK    6  A    between atoms: C_16  and  C_17
REMARK    7  A    between atoms: C_16  and  C_18
REMARK    8  A    between atoms: C_16  and  C_19
REMARK                            x       y       z     vdW  Elec       q    Type
REMARK                         _______ _______ _______ _____ _____    ______ ____
ROOT
ATOM      1  C   UNL     1      -1.416  -2.058  -0.121  0.00  0.00    -0.057 C 
ATOM      2  C   UNL     1      -2.849  -2.622  -0.025  0.00  0.00    +0.073 C 
ATOM      3  C   UNL     1      -2.882  -3.799  -1.040  0.00  0.00    +0.088 C 
ATOM      4  C   UNL     1      -3.059  -5.014  -0.158  0.00  0.00    +0.225 C 
ATOM      5  O   UNL     1      -3.128  -6.159  -0.549  0.00  0.00    -0.275 OA
ATOM      6  N   UNL     1      -3.128  -4.629   1.122  0.00  0.00    -0.236 N 
ATOM      7  C   UNL     1      -3.029  -3.294   1.317  0.00  0.00    +0.224 C 
ATOM      8  O   UNL     1      -3.072  -2.723   2.386  0.00  0.00    -0.275 OA
ATOM      9  C   UNL     1      -1.487  -3.801  -1.677  0.00  0.00    +0.050 C 
ATOM     10  N   UNL     1      -0.938  -2.453  -1.473  0.00  0.00    +0.394 N 
ATOM     11  C   UNL     1      -1.546  -4.172  -3.132  0.00  0.00    -0.026 A 
ATOM     12  C   UNL     1      -2.189  -3.629  -4.223  0.00  0.00    +0.004 A 
ATOM     13  C   UNL     1      -2.047  -4.210  -5.470  0.00  0.00    +0.002 A 
ATOM     14  C   UNL     1      -1.258  -5.337  -5.619  0.00  0.00    +0.022 A 
ATOM     15  C   UNL     1      -0.613  -5.885  -4.528  0.00  0.00    +0.062 A 
ATOM     16  C   UNL     1      -0.751  -5.305  -3.268  0.00  0.00    +0.054 A 
ATOM     17  N   UNL     1      -0.210  -5.667  -2.032  0.00  0.00    -0.285 N 
ATOM     18  C   UNL     1      -0.595  -4.834  -1.046  0.00  0.00    +0.211 C 
ATOM     19  O   UNL     1      -0.281  -4.903   0.124  0.00  0.00    -0.277 OA
ATOM     20 CL   UNL     1       0.374  -7.299  -4.727  0.00  0.00    -0.082 Cl
ATOM     21  H   UNL     1      -1.302  -1.824  -2.173  0.00  0.00    -0.083 HD
ATOM     22  H   UNL     1       0.375  -6.429  -1.900  0.00  0.00    +0.155 HD
ATOM     23  H   UNL     1       0.071  -2.468  -1.500  0.00  0.00    -0.083 HD
ENDROOT
BRANCH   6  24
ATOM     24  C   UNL     1      -3.303  -5.576   2.226  0.00  0.00    +0.036 C 
ATOM     25  C   UNL     1      -2.136  -6.565   2.240  0.00  0.00    +0.031 C 
ATOM     26  C   UNL     1      -3.341  -4.812   3.551  0.00  0.00    +0.031 C 
ATOM     27  C   UNL     1      -4.616  -6.339   2.039  0.00  0.00    +0.031 C 
ENDBRANCH   6  24
BRANCH   1  28
ATOM     28  C   UNL     1      -1.433  -0.534   0.013  0.00  0.00    -0.012 C 
BRANCH  28  30
ATOM     29  C   UNL     1      -0.019   1.526   0.010  0.00  0.00    +0.007 C 
ATOM     30  C   UNL     1       0.002  -0.004   0.002  0.00  0.00    -0.019 C 
ATOM     31  C   UNL     1       0.742  -0.511   1.242  0.00  0.00    +0.007 C 
ENDBRANCH  28  30
ENDBRANCH   1  28
TORSDOF 3
