REMARK  Name = ZINC36813029
REMARK  6 active torsions:
REMARK  status: ('A' for Active; 'I' for Inactive)
REMARK    1  A    between atoms: C_1  and  C_2
REMARK    2  A    between atoms: C_2  and  C_3
REMARK    3  A    between atoms: C_2  and  C_4
REMARK    4  A    between atoms: C_2  and  N_5
REMARK    5  A    between atoms: N_5  and  C_6
REMARK    6  A    between atoms: C_15  and  N_16
REMARK                            x       y       z     vdW  Elec       q    Type
REMARK                         _______ _______ _______ _____ _____    ______ ____
ROOT
ATOM      1  C   UNL     1      -2.279  -0.236  -2.669  0.00  0.00    +0.059 A 
ATOM      2  C   UNL     1      -2.904   0.716  -3.504  0.00  0.00    +0.022 A 
ATOM      3  C   UNL     1      -2.212   1.844  -3.969  0.00  0.00    +0.027 A 
ATOM      4  C   UNL     1      -2.848   2.741  -4.774  0.00  0.00    +0.019 A 
ATOM      5  C   UNL     1      -4.179   2.551  -5.141  0.00  0.00    +0.017 A 
ATOM      6  C   UNL     1      -4.879   1.467  -4.708  0.00  0.00    +0.027 A 
ATOM      7  C   UNL     1      -4.256   0.520  -3.877  0.00  0.00    +0.048 A 
ATOM      8  N   UNL     1      -4.923  -0.554  -3.439  0.00  0.00    -0.359 N 
ATOM      9  C   UNL     1      -4.357  -1.448  -2.662  0.00  0.00    +0.107 A 
ATOM     10  C   UNL     1      -3.029  -1.331  -2.255  0.00  0.00    +0.063 A 
ATOM     11 BR   UNL     1      -1.915   4.262  -5.399  0.00  0.00    -0.050 Br
ATOM     12  H   UNL     1      -5.848  -0.675  -3.702  0.00  0.00    +0.165 HD
ENDROOT
BRANCH  10  13
ATOM     13  N   UNL     1      -2.455  -2.309  -1.430  0.00  0.00    -0.355 N 
ATOM     14  H   UNL     1      -1.663  -2.102  -0.910  0.00  0.00    +0.142 HD
ATOM     15  H   UNL     1      -2.850  -3.194  -1.379  0.00  0.00    +0.142 HD
ENDBRANCH  10  13
BRANCH   1  16
ATOM     16  N   UNL     1      -0.952  -0.086  -2.277  0.00  0.00    -0.337 N 
ATOM     17  H   UNL     1      -0.733   0.455  -1.502  0.00  0.00    +0.147 HD
BRANCH  16  19
ATOM     18  C   UNL     1       1.472  -0.210  -2.575  0.00  0.00    +0.031 C 
ATOM     19  C   UNL     1       0.115  -0.747  -3.033  0.00  0.00    +0.024 C 
ATOM     20  C   UNL     1      -0.068  -0.463  -4.526  0.00  0.00    +0.031 C 
ATOM     21  C   UNL     1       0.054  -2.256  -2.789  0.00  0.00    +0.031 C 
ENDBRANCH  16  19
ENDBRANCH   1  16
TORSDOF 3
