REMARK  Name = ZINC16683385
REMARK  7 active torsions:
REMARK  status: ('A' for Active; 'I' for Inactive)
REMARK    1  A    between atoms: C_1  and  O_2
REMARK    2  A    between atoms: O_2  and  C_3
REMARK    3  A    between atoms: C_8  and  N_9
REMARK    4  A    between atoms: C_12  and  C_17
REMARK    5  A    between atoms: C_17  and  S_18
REMARK    6  A    between atoms: S_18  and  C_19
REMARK    7  A    between atoms: C_23  and  C_25
REMARK                            x       y       z     vdW  Elec       q    Type
REMARK                         _______ _______ _______ _____ _____    ______ ____
ROOT
ATOM      1  N   UNL     1       0.096  -2.777  -0.112  0.00  0.00    -0.281 N 
ATOM      2  C   UNL     1       0.060  -4.152  -0.235  0.00  0.00    +0.224 A 
ATOM      3  N   UNL     1      -0.569  -4.887   0.679  0.00  0.00    -0.198 NA
ATOM      4  C   UNL     1      -0.604  -6.203   0.562  0.00  0.00    +0.146 A 
ATOM      5  N   UNL     1      -0.014  -6.795  -0.462  0.00  0.00    -0.199 NA
ATOM      6  C   UNL     1       0.617  -6.067  -1.380  0.00  0.00    +0.217 A 
ATOM      7  N   UNL     1       0.650  -4.743  -1.269  0.00  0.00    -0.181 NA
ATOM      8  N   UNL     1       1.233  -6.686  -2.449  0.00  0.00    -0.327 N 
ATOM      9  H   UNL     1      -0.259  -2.352   0.684  0.00  0.00    +0.155 HD
ATOM     10  H   UNL     1       1.206  -7.652  -2.532  0.00  0.00    +0.145 HD
ATOM     11  H   UNL     1       1.693  -6.154  -3.118  0.00  0.00    +0.145 HD
ENDROOT
BRANCH   1  17
ATOM     12  C   UNL     1       1.153  -0.730  -0.855  0.00  0.00    +0.141 A 
ATOM     13  C   UNL     1       1.700   0.035  -1.872  0.00  0.00    +0.047 A 
ATOM     14  C   UNL     1       1.736  -0.455  -3.164  0.00  0.00    +0.004 A 
ATOM     15  C   UNL     1       1.227  -1.710  -3.446  0.00  0.00    +0.002 A 
ATOM     16  C   UNL     1       0.679  -2.479  -2.438  0.00  0.00    +0.027 A 
ATOM     17  C   UNL     1       0.645  -1.996  -1.137  0.00  0.00    +0.076 A 
BRANCH  12  19
ATOM     18  C   UNL     1       1.656   1.057   0.631  0.00  0.00    +0.277 C 
ATOM     19  O   UNL     1       1.117  -0.249   0.416  0.00  0.00    -0.493 OA
ENDBRANCH  12  19
ENDBRANCH   1  17
BRANCH   4  20
ATOM     20  C   UNL     1      -1.317  -7.031   1.599  0.00  0.00    +0.153 C 
BRANCH  20  21
ATOM     21  S   UNL     1      -3.052  -7.245   1.114  0.00  0.00    -0.079 S 
BRANCH  21  22
ATOM     22  C   UNL     1      -3.740  -8.220   2.410  0.00  0.00    +0.185 A 
ATOM     23  N   UNL     1      -5.021  -8.646   2.489  0.00  0.00    -0.253 N 
ATOM     24  H   UNL     1      -5.729  -8.476   1.850  0.00  0.00    +0.191 HD
ATOM     25  N   UNL     1      -5.122  -9.385   3.679  0.00  0.00    -0.151 NA
ATOM     26  C   UNL     1      -3.935  -9.369   4.242  0.00  0.00    +0.185 A 
ATOM     27  N   UNL     1      -3.096  -8.666   3.467  0.00  0.00    -0.201 NA
BRANCH  26  28
ATOM     28  C   UNL     1      -3.579 -10.026   5.524  0.00  0.00    +0.056 A 
ATOM     29  C   UNL     1      -2.281  -9.931   6.022  0.00  0.00    +0.014 A 
ATOM     30  C   UNL     1      -1.955 -10.543   7.215  0.00  0.00    +0.001 A 
ATOM     31  C   UNL     1      -2.914 -11.252   7.917  0.00  0.00    +0.003 A 
ATOM     32  C   UNL     1      -4.204 -11.351   7.429  0.00  0.00    +0.039 A 
ATOM     33  C   UNL     1      -4.544 -10.737   6.238  0.00  0.00    +0.134 A 
ATOM     34  F   UNL     1      -5.806 -10.829   5.765  0.00  0.00    -0.205 F 
ENDBRANCH  26  28
ENDBRANCH  21  22
ENDBRANCH  20  21
ENDBRANCH   4  20
TORSDOF 6
