REMARK  Name = ZINC40361005
REMARK  12 active torsions:
REMARK  status: ('A' for Active; 'I' for Inactive)
REMARK    1  A    between atoms: C_1  and  C_2
REMARK    2  A    between atoms: N_5  and  C_19
REMARK    3  A    between atoms: C_9  and  C_11
REMARK    4  A    between atoms: C_12  and  C_13
REMARK    5  A    between atoms: C_19  and  C_21
REMARK    6  A    between atoms: C_19  and  C_22
REMARK    7  A    between atoms: N_32  and  C_33
REMARK    8  A    between atoms: C_33  and  C_34
REMARK    9  A    between atoms: C_34  and  C_35
REMARK   10  A    between atoms: C_35  and  C_36
REMARK   11  A    between atoms: C_36  and  O_38
REMARK   12  A    between atoms: O_38  and  C_39
REMARK                            x       y       z     vdW  Elec       q    Type
REMARK                         _______ _______ _______ _____ _____    ______ ____
ROOT
ATOM      1  C   UNL     1      -3.499  -2.750   0.294  0.00  0.00    -0.004 C 
ATOM      2  C   UNL     1      -4.283  -2.574  -1.008  0.00  0.00    -0.005 C 
ENDROOT
BRANCH   1   3
ATOM      3  C   UNL     1      -3.438  -4.213   0.650  0.00  0.00    +0.099 A 
ATOM      4  N   UNL     1      -2.963  -5.042  -0.231  0.00  0.00    -0.235 NA
ATOM      5  C   UNL     1      -2.878  -6.372   0.018  0.00  0.00    +0.078 A 
ATOM      6  C   UNL     1      -2.367  -7.264  -0.928  0.00  0.00    +0.028 A 
ATOM      7  C   UNL     1      -2.298  -8.606  -0.632  0.00  0.00    +0.002 A 
ATOM      8  C   UNL     1      -2.730  -9.087   0.597  0.00  0.00    +0.001 A 
ATOM      9  C   UNL     1      -3.237  -8.228   1.547  0.00  0.00    +0.015 A 
ATOM     10  C   UNL     1      -3.316  -6.865   1.268  0.00  0.00    +0.065 A 
ATOM     11  C   UNL     1      -3.847  -5.901   2.242  0.00  0.00    +0.262 A 
ATOM     12  O   UNL     1      -4.241  -6.259   3.337  0.00  0.00    -0.267 OA
ATOM     13  N   UNL     1      -3.876  -4.598   1.877  0.00  0.00    -0.297 N 
BRANCH  13  14
ATOM     14  C   UNL     1      -4.390  -3.593   2.811  0.00  0.00    +0.127 C 
BRANCH  14  15
ATOM     15  C   UNL     1      -5.864  -3.320   2.507  0.00  0.00    +0.033 C 
BRANCH  15  16
ATOM     16  C   UNL     1      -6.369  -2.186   3.401  0.00  0.00    +0.122 C 
BRANCH  16  17
ATOM     17  C   UNL     1      -7.821  -1.917   3.101  0.00  0.00    +0.307 C 
ATOM     18  O   UNL     1      -8.394  -2.567   2.259  0.00  0.00    -0.251 OA
BRANCH  17  19
ATOM     19  O   UNL     1      -8.478  -0.957   3.770  0.00  0.00    -0.468 OA
ATOM     20  C   UNL     1      -9.852  -0.757   3.435  0.00  0.00    +0.280 C 
ENDBRANCH  17  19
ENDBRANCH  16  17
ENDBRANCH  15  16
ENDBRANCH  14  15
ENDBRANCH  13  14
ENDBRANCH   1   3
BRANCH   1  24
ATOM     21  C   UNL     1      -0.808   1.276  -0.454  0.00  0.00    +0.026 C 
ATOM     22  C   UNL     1      -0.781  -0.252  -0.381  0.00  0.00    +0.057 C 
ATOM     23  C   UNL     1      -2.190  -0.778  -0.085  0.00  0.00    -0.055 C 
ATOM     24  N   UNL     1      -2.136  -2.231   0.120  0.00  0.00    +0.388 N 
ATOM     25  C   UNL     1      -1.340  -2.539   1.315  0.00  0.00    -0.059 C 
ATOM     26  C   UNL     1       0.111  -2.100   1.088  0.00  0.00    +0.090 C 
ATOM     27  N   UNL     1       0.118  -0.680   0.702  0.00  0.00    -0.299 N 
ATOM     28  C   UNL     1       0.921   0.205   1.325  0.00  0.00    +0.240 C 
ATOM     29  O   UNL     1       0.845   1.389   1.058  0.00  0.00    -0.271 OA
ATOM     30  H   UNL     1      -1.713  -2.667  -0.686  0.00  0.00    -0.081 HD
BRANCH  28  31
ATOM     31  C   UNL     1       1.886  -0.260   2.324  0.00  0.00    +0.068 C 
ATOM     32  C   UNL     1       2.732   0.616   2.902  0.00  0.00    +0.013 C 
BRANCH  32  33
ATOM     33  C   UNL     1       3.702   0.148   3.906  0.00  0.00    -0.025 A 
ATOM     34  C   UNL     1       3.752  -1.204   4.259  0.00  0.00    +0.008 A 
ATOM     35  C   UNL     1       4.663  -1.633   5.201  0.00  0.00    +0.001 A 
ATOM     36  C   UNL     1       5.527  -0.731   5.796  0.00  0.00    +0.000 A 
ATOM     37  C   UNL     1       5.483   0.609   5.452  0.00  0.00    +0.001 A 
ATOM     38  C   UNL     1       4.582   1.054   4.508  0.00  0.00    +0.008 A 
ENDBRANCH  32  33
ENDBRANCH  28  31
ENDBRANCH   1  24
TORSDOF 9
