REMARK  Name = ZINC09572424
REMARK  9 active torsions:
REMARK  status: ('A' for Active; 'I' for Inactive)
REMARK    1  A    between atoms: C_1  and  C_2
REMARK    2  A    between atoms: C_2  and  N_3
REMARK    3  A    between atoms: C_6  and  C_29
REMARK    4  A    between atoms: N_10  and  C_11
REMARK    5  A    between atoms: C_14  and  N_17
REMARK    6  A    between atoms: N_17  and  S_18
REMARK    7  A    between atoms: S_18  and  C_21
REMARK    8  A    between atoms: C_24  and  C_28
REMARK    9  A    between atoms: C_25  and  C_27
REMARK                            x       y       z     vdW  Elec       q    Type
REMARK                         _______ _______ _______ _____ _____    ______ ____
ROOT
ATOM      1  C   UNL     1       1.878  -1.565   3.421  0.00  0.00    +0.034 A 
ATOM      2  C   UNL     1       0.678  -2.002   2.876  0.00  0.00    +0.025 A 
ATOM      3  C   UNL     1       0.043  -1.247   1.909  0.00  0.00    +0.026 A 
ATOM      4  C   UNL     1       0.606  -0.052   1.481  0.00  0.00    +0.048 A 
ATOM      5  C   UNL     1       1.809   0.382   2.022  0.00  0.00    +0.026 A 
ATOM      6  C   UNL     1       2.440  -0.369   2.993  0.00  0.00    +0.025 A 
ENDROOT
BRANCH   1  14
ATOM      7  N   UNL     1       6.437  -3.717   6.584  0.00  0.00    -0.329 N 
ATOM      8  C   UNL     1       5.822  -3.051   5.538  0.00  0.00    +0.124 A 
ATOM      9  C   UNL     1       6.585  -2.422   4.551  0.00  0.00    +0.066 A 
ATOM     10  C   UNL     1       5.929  -1.769   3.526  0.00  0.00    +0.045 A 
ATOM     11  N   UNL     1       4.604  -1.763   3.505  0.00  0.00    -0.219 NA
ATOM     12  C   UNL     1       3.905  -2.364   4.457  0.00  0.00    +0.221 A 
ATOM     13  N   UNL     1       4.496  -3.000   5.457  0.00  0.00    -0.199 NA
ATOM     14  N   UNL     1       2.522  -2.330   4.402  0.00  0.00    -0.284 N 
ATOM     15  C   UNL     1       6.711  -1.077   2.440  0.00  0.00    +0.066 C 
ATOM     16  H   UNL     1       5.900  -4.152   7.265  0.00  0.00    +0.147 HD
ATOM     17  H   UNL     1       1.998  -2.837   5.042  0.00  0.00    +0.155 HD
BRANCH   7  19
ATOM     18  C   UNL     1       8.317  -4.557   7.904  0.00  0.00    +0.024 C 
ATOM     19  C   UNL     1       7.899  -3.766   6.663  0.00  0.00    +0.099 C 
ENDBRANCH   7  19
ENDBRANCH   1  14
BRANCH   4  20
ATOM     20  N   UNL     1      -0.037   0.713   0.501  0.00  0.00    -0.216 N 
ATOM     21  H   UNL     1       0.308   0.729  -0.406  0.00  0.00    +0.174 HD
BRANCH  20  22
ATOM     22  S   UNL     1      -1.388   1.590   0.888  0.00  0.00    +0.072 S 
ATOM     23  O   UNL     1      -1.803   2.244  -0.303  0.00  0.00    -0.150 OA
ATOM     24  O   UNL     1      -2.242   0.719   1.617  0.00  0.00    -0.150 OA
BRANCH  22  25
ATOM     25  C   UNL     1      -0.884   2.854   2.008  0.00  0.00    +0.109 A 
ATOM     26  C   UNL     1      -0.828   2.594   3.364  0.00  0.00    +0.029 A 
ATOM     27  C   UNL     1      -0.428   3.584   4.242  0.00  0.00    +0.005 A 
ATOM     28  C   UNL     1      -0.095   4.838   3.764  0.00  0.00    -0.047 A 
ATOM     29  C   UNL     1      -0.158   5.100   2.408  0.00  0.00    -0.046 A 
ATOM     30  C   UNL     1      -0.552   4.108   1.530  0.00  0.00    +0.032 A 
ATOM     31  C   UNL     1       0.205   6.467   1.888  0.00  0.00    +0.044 C 
ATOM     32  C   UNL     1       0.335   5.919   4.721  0.00  0.00    +0.044 C 
ENDBRANCH  22  25
ENDBRANCH  20  22
ENDBRANCH   4  20
TORSDOF 5
