REMARK  Name = ZINC04765524
REMARK  12 active torsions:
REMARK  status: ('A' for Active; 'I' for Inactive)
REMARK    1  A    between atoms: C_1  and  C_2
REMARK    2  A    between atoms: C_7  and  C_19
REMARK    3  A    between atoms: C_9  and  C_13
REMARK    4  A    between atoms: C_10  and  C_12
REMARK    5  A    between atoms: C_13  and  O_15
REMARK    6  A    between atoms: O_15  and  C_16
REMARK    7  A    between atoms: C_16  and  C_17
REMARK    8  A    between atoms: C_16  and  C_18
REMARK    9  A    between atoms: C_22  and  O_25
REMARK   10  A    between atoms: C_28  and  C_30
REMARK   11  A    between atoms: C_30  and  O_32
REMARK   12  A    between atoms: O_32  and  C_33
REMARK                            x       y       z     vdW  Elec       q    Type
REMARK                         _______ _______ _______ _____ _____    ______ ____
ROOT
ATOM      1  C   UNL     1       0.686   1.691  -0.429  0.00  0.00    +0.009 C 
ATOM      2  C   UNL     1       0.453   0.181  -0.335  0.00  0.00    +0.013 C 
ATOM      3  C   UNL     1       1.212  -0.527  -1.459  0.00  0.00    +0.055 C 
ATOM      4  C   UNL     1       1.024  -2.019  -1.335  0.00  0.00    +0.016 C 
ATOM      5  C   UNL     1       0.851  -2.600  -0.129  0.00  0.00    +0.025 C 
ATOM      6  C   UNL     1       0.676  -4.093  -0.011  0.00  0.00    +0.092 C 
ATOM      7  C   UNL     1       0.297  -4.697  -1.332  0.00  0.00    +0.065 C 
ATOM      8  C   UNL     1       0.489  -4.030  -2.483  0.00  0.00    +0.016 C 
ATOM      9  N   UNL     1       1.030  -2.775  -2.476  0.00  0.00    -0.321 N 
ATOM     10  C   UNL     1       0.103  -4.671  -3.792  0.00  0.00    +0.061 C 
ATOM     11  C   UNL     1       0.825  -1.833   1.049  0.00  0.00    +0.176 C 
ATOM     12  O   UNL     1       0.678  -2.388   2.120  0.00  0.00    -0.291 OA
ATOM     13  C   UNL     1       0.973  -0.336   1.010  0.00  0.00    +0.171 C 
ATOM     14  H   UNL     1       1.423  -2.417  -3.287  0.00  0.00    +0.152 HD
ENDROOT
BRANCH   6  15
ATOM     15  C   UNL     1       1.970  -4.707   0.460  0.00  0.00    -0.035 A 
ATOM     16  C   UNL     1       3.120  -4.554  -0.292  0.00  0.00    +0.008 A 
ATOM     17  C   UNL     1       4.307  -5.116   0.137  0.00  0.00    +0.046 A 
ATOM     18  C   UNL     1       4.344  -5.835   1.323  0.00  0.00    +0.117 A 
ATOM     19  C   UNL     1       3.188  -5.987   2.075  0.00  0.00    +0.046 A 
ATOM     20  C   UNL     1       2.005  -5.418   1.645  0.00  0.00    +0.008 A 
BRANCH  18  21
ATOM     21  O   UNL     1       5.510  -6.389   1.747  0.00  0.00    -0.507 OA
ATOM     22  H   UNL     1       6.038  -5.809   2.312  0.00  0.00    +0.292 HD
ENDBRANCH  18  21
ENDBRANCH   6  15
BRANCH   7  23
ATOM     23  C   UNL     1      -0.271  -5.991  -1.365  0.00  0.00    +0.338 C 
ATOM     24  O   UNL     1      -0.694  -6.443  -2.413  0.00  0.00    -0.245 OA
BRANCH  23  25
ATOM     25  O   UNL     1      -0.344  -6.726  -0.236  0.00  0.00    -0.459 OA
BRANCH  25  26
ATOM     26  C   UNL     1      -0.931  -8.024  -0.343  0.00  0.00    +0.171 C 
ATOM     27  C   UNL     1       0.158  -9.051  -0.663  0.00  0.00    +0.052 C 
ATOM     28  C   UNL     1      -1.604  -8.391   0.981  0.00  0.00    +0.052 C 
ENDBRANCH  25  26
ENDBRANCH  23  25
ENDBRANCH   7  23
BRANCH  13  29
ATOM     29  C   UNL     1       0.177   0.283   2.131  0.00  0.00    +0.318 C 
ATOM     30  O   UNL     1      -0.715   1.058   1.881  0.00  0.00    -0.250 OA
BRANCH  29  31
ATOM     31  O   UNL     1       0.459  -0.028   3.406  0.00  0.00    -0.467 OA
ATOM     32  C   UNL     1      -0.336   0.596   4.416  0.00  0.00    +0.280 C 
ENDBRANCH  29  31
ENDBRANCH  13  29
TORSDOF 7
