REMARK  Name = ZINC49937845
REMARK  5 active torsions:
REMARK  status: ('A' for Active; 'I' for Inactive)
REMARK    1  A    between atoms: N_9  and  C_10
REMARK    2  A    between atoms: C_10  and  C_12
REMARK    3  A    between atoms: C_12  and  C_13
REMARK    4  A    between atoms: C_13  and  N_14
REMARK    5  A    between atoms: C_15  and  C_17
REMARK                            x       y       z     vdW  Elec       q    Type
REMARK                         _______ _______ _______ _____ _____    ______ ____
ROOT
ATOM      1  C   UNL     1       1.451  -7.137   0.264  0.00  0.00    +0.113 C 
ENDROOT
BRANCH   1   2
ATOM      2  N   UNL     1       1.894  -8.530   0.362  0.00  0.00    -0.312 N 
ATOM      3  C   UNL     1       0.986  -9.520   0.467  0.00  0.00    +0.257 C 
ATOM      4  O   UNL     1      -0.198  -9.258   0.479  0.00  0.00    -0.272 OA
ATOM      5  H   UNL     1       2.841  -8.739   0.352  0.00  0.00    +0.149 HD
BRANCH   3   6
ATOM      6  C   UNL     1       1.442 -10.953   0.568  0.00  0.00    +0.296 C 
ATOM      7  C   UNL     1       2.131 -11.370  -0.739  0.00  0.00    +0.283 C 
ATOM      8  O   UNL     1       2.538 -12.737  -0.614  0.00  0.00    -0.484 OA
ATOM      9  C   UNL     1       1.619 -13.605  -0.108  0.00  0.00    +0.162 A 
ATOM     10  C   UNL     1       1.798 -14.968  -0.291  0.00  0.00    +0.049 A 
ATOM     11  C   UNL     1       0.876 -15.862   0.220  0.00  0.00    +0.004 A 
ATOM     12  C   UNL     1      -0.227 -15.400   0.915  0.00  0.00    +0.004 A 
ATOM     13  C   UNL     1      -0.411 -14.043   1.100  0.00  0.00    +0.049 A 
ATOM     14  C   UNL     1       0.510 -13.140   0.589  0.00  0.00    +0.163 A 
ATOM     15  O   UNL     1       0.311 -11.806   0.772  0.00  0.00    -0.473 OA
ENDBRANCH   3   6
ENDBRANCH   1   2
BRANCH   1  16
ATOM     16  C   UNL     1       2.671  -6.220   0.156  0.00  0.00    +0.116 C 
BRANCH  16  17
ATOM     17  C   UNL     1       2.215  -4.787   0.055  0.00  0.00    +0.240 C 
ATOM     18  O   UNL     1       1.028  -4.524   0.068  0.00  0.00    -0.274 OA
BRANCH  17  27
ATOM     19  C   UNL     1      -0.015   1.372   0.021  0.00  0.00    +0.002 A 
ATOM     20  C   UNL     1       1.161   2.105   0.025  0.00  0.00    +0.001 A 
ATOM     21  C   UNL     1       2.374   1.440   0.013  0.00  0.00    +0.017 A 
ATOM     22  C   UNL     1       2.394   0.066  -0.003  0.00  0.00    +0.039 A 
ATOM     23  C   UNL     1       1.219  -0.701  -0.006  0.00  0.00    +0.055 A 
ATOM     24  C   UNL     1       0.003  -0.003   0.006  0.00  0.00    +0.027 A 
ATOM     25  N   UNL     1       1.443  -2.064  -0.022  0.00  0.00    -0.335 N 
ATOM     26  C   UNL     1       2.714  -2.540  -0.032  0.00  0.00    +0.164 A 
ATOM     27  N   UNL     1       3.110  -3.811  -0.048  0.00  0.00    -0.157 NA
ATOM     28  S   UNL     1       3.675  -1.161  -0.021  0.00  0.00    -0.052 S 
ATOM     29  H   UNL     1       0.694  -2.680  -0.026  0.00  0.00    +0.168 HD
ENDBRANCH  17  27
ENDBRANCH  16  17
ENDBRANCH   1  16
TORSDOF 5
