REMARK  Name = ZINC35323720
REMARK  9 active torsions:
REMARK  status: ('A' for Active; 'I' for Inactive)
REMARK    1  A    between atoms: C_1  and  C_2
REMARK    2  A    between atoms: C_2  and  O_30
REMARK    3  A    between atoms: C_5  and  C_21
REMARK    4  A    between atoms: C_7  and  C_15
REMARK    5  A    between atoms: C_9  and  C_11
REMARK    6  A    between atoms: C_11  and  O_13
REMARK    7  A    between atoms: O_13  and  C_14
REMARK    8  A    between atoms: C_21  and  O_23
REMARK    9  A    between atoms: O_23  and  C_24
REMARK                            x       y       z     vdW  Elec       q    Type
REMARK                         _______ _______ _______ _____ _____    ______ ____
ROOT
ATOM      1  C   UNL     1      -0.174   1.144  -0.945  0.00  0.00    +0.042 C 
ATOM      2  C   UNL     1       0.135  -0.290  -0.512  0.00  0.00    +0.080 C 
ATOM      3  C   UNL     1       1.412  -0.769  -1.207  0.00  0.00    +0.079 C 
ATOM      4  C   UNL     1       2.578   0.129  -0.807  0.00  0.00    +0.116 C 
ATOM      5  C   UNL     1       2.775   0.110   0.706  0.00  0.00    +0.145 C 
ATOM      6  C   UNL     1       1.493   0.586   1.395  0.00  0.00    +0.053 C 
ATOM      7  C   UNL     1       0.335  -0.334   1.004  0.00  0.00    +0.137 C 
ATOM      8  N   UNL     1       2.351   1.501  -1.276  0.00  0.00    -0.306 N 
ATOM      9  C   UNL     1       3.356   1.791  -2.125  0.00  0.00    +0.146 C 
ATOM     10  S   UNL     1       3.528   3.289  -2.937  0.00  0.00    -0.018 S 
ATOM     11  N   UNL     1       4.204   0.762  -2.256  0.00  0.00    -0.260 N 
ATOM     12  N   UNL     1       3.812  -0.299  -1.489  0.00  0.00    -0.217 NA
ATOM     13  H   UNL     1       1.620   2.086  -1.023  0.00  0.00    +0.150 HD
ATOM     14  H   UNL     1       4.993   0.769  -2.822  0.00  0.00    +0.168 HD
ATOM     15  H   UNL     1       4.527  -0.546  -0.822  0.00  0.00    +0.147 HD
ENDROOT
BRANCH   6  16
ATOM     16  C   UNL     1       1.683   0.549   2.889  0.00  0.00    -0.042 A 
ATOM     17  C   UNL     1       2.930   0.791   3.434  0.00  0.00    +0.004 A 
ATOM     18  C   UNL     1       3.104   0.758   4.805  0.00  0.00    +0.000 A 
ATOM     19  C   UNL     1       2.030   0.483   5.631  0.00  0.00    +0.000 A 
ATOM     20  C   UNL     1       0.783   0.242   5.086  0.00  0.00    +0.000 A 
ATOM     21  C   UNL     1       0.608   0.280   3.716  0.00  0.00    +0.004 A 
ENDBRANCH   6  16
BRANCH   7  22
ATOM     22  C   UNL     1       0.648  -1.745   1.429  0.00  0.00    +0.313 C 
ATOM     23  O   UNL     1       1.113  -1.957   2.524  0.00  0.00    -0.250 OA
BRANCH  22  24
ATOM     24  O   UNL     1       0.412  -2.767   0.591  0.00  0.00    -0.468 OA
ATOM     25  C   UNL     1       0.680  -4.082   1.080  0.00  0.00    +0.280 C 
ENDBRANCH  22  24
ENDBRANCH   7  22
BRANCH   5  26
ATOM     26  C   UNL     1       3.094  -1.293   1.153  0.00  0.00    +0.314 C 
ATOM     27  O   UNL     1       2.998  -2.212   0.374  0.00  0.00    -0.250 OA
BRANCH  26  28
ATOM     28  O   UNL     1       3.484  -1.523   2.417  0.00  0.00    -0.468 OA
ATOM     29  C   UNL     1       3.874  -2.858   2.743  0.00  0.00    +0.280 C 
ENDBRANCH  26  28
ENDBRANCH   5  26
BRANCH   2  30
ATOM     30  O   UNL     1      -0.953  -1.143  -0.874  0.00  0.00    -0.388 OA
ATOM     31  H   UNL     1      -1.137  -1.164  -1.823  0.00  0.00    +0.210 HD
ENDBRANCH   2  30
TORSDOF 6
