REMARK  Name = ZINC16669674
REMARK  7 active torsions:
REMARK  status: ('A' for Active; 'I' for Inactive)
REMARK    1  A    between atoms: C_1  and  C_2
REMARK    2  A    between atoms: C_5  and  N_9
REMARK    3  A    between atoms: C_13  and  S_14
REMARK    4  A    between atoms: S_14  and  C_15
REMARK    5  A    between atoms: C_15  and  C_16
REMARK    6  A    between atoms: C_16  and  C_18
REMARK    7  A    between atoms: C_20  and  C_24
REMARK                            x       y       z     vdW  Elec       q    Type
REMARK                         _______ _______ _______ _____ _____    ______ ____
ROOT
ATOM      1  C   UNL     1      -5.319   3.456  -2.687  0.00  0.00    +0.157 C 
ENDROOT
BRANCH   1   2
ATOM      2  C   UNL     1      -5.641   2.541  -3.839  0.00  0.00    +0.175 C 
ATOM      3  O   UNL     1      -4.822   1.730  -4.218  0.00  0.00    -0.291 OA
BRANCH   2   4
ATOM      4  C   UNL     1      -6.946   2.629  -4.503  0.00  0.00    +0.036 A 
ATOM      5  C   UNL     1      -7.392   1.842  -5.592  0.00  0.00    +0.043 A 
ATOM      6  C   UNL     1      -8.656   2.255  -5.890  0.00  0.00    +0.103 A 
ATOM      7  N   UNL     1      -8.998   3.268  -5.021  0.00  0.00    -0.356 N 
ATOM      8  H   UNL     1      -9.846   3.740  -5.015  0.00  0.00    +0.165 HD
ATOM      9  C   UNL     1      -7.979   3.495  -4.180  0.00  0.00    +0.094 A 
BRANCH   6  10
ATOM     10  C   UNL     1      -9.508   1.713  -6.956  0.00  0.00    +0.263 C 
ATOM     11  O   UNL     1      -9.097   0.814  -7.665  0.00  0.00    -0.268 OA
ATOM     12  N   UNL     1     -10.745   2.211  -7.149  0.00  0.00    -0.296 N 
ATOM     13  C   UNL     1     -11.367   3.288  -6.365  0.00  0.00    +0.108 C 
ATOM     14  C   UNL     1     -12.787   3.503  -6.928  0.00  0.00    +0.020 C 
ATOM     15  C   UNL     1     -13.094   2.148  -7.619  0.00  0.00    +0.020 C 
ATOM     16  C   UNL     1     -11.701   1.762  -8.177  0.00  0.00    +0.108 C 
ENDBRANCH   6  10
ENDBRANCH   2   4
ENDBRANCH   1   2
BRANCH   1  17
ATOM     17  S   UNL     1      -3.648   3.105  -2.087  0.00  0.00    -0.078 S 
BRANCH  17  22
ATOM     18  N   UNL     1      -2.468   4.481   0.049  0.00  0.00    -0.277 N 
ATOM     19  C   UNL     1      -2.838   5.494   0.893  0.00  0.00    +0.230 A 
ATOM     20  N   UNL     1      -4.049   5.848   0.567  0.00  0.00    -0.137 NA
ATOM     21  N   UNL     1      -4.468   5.135  -0.417  0.00  0.00    -0.122 NA
ATOM     22  C   UNL     1      -3.538   4.283  -0.781  0.00  0.00    +0.196 A 
BRANCH  18  27
ATOM     23  C   UNL     1       2.482   1.702  -0.013  0.00  0.00    +0.045 C 
ATOM     24  C   UNL     1       1.168   2.439   0.004  0.00  0.00    -0.032 A 
ATOM     25  C   UNL     1       1.152   3.822   0.012  0.00  0.00    +0.007 A 
ATOM     26  C   UNL     1      -0.051   4.501   0.026  0.00  0.00    +0.026 A 
ATOM     27  C   UNL     1      -1.246   3.794   0.034  0.00  0.00    +0.051 A 
ATOM     28  C   UNL     1      -1.228   2.406   0.021  0.00  0.00    +0.046 A 
ATOM     29  C   UNL     1      -0.021   1.732   0.012  0.00  0.00    +0.046 A 
ATOM     30 CL   UNL     1       0.002  -0.004   0.002  0.00  0.00    -0.083 Cl
ENDBRANCH  18  27
ENDBRANCH  17  22
ENDBRANCH   1  17
TORSDOF 6
