REMARK  Name = ZINC20292412
REMARK  9 active torsions:
REMARK  status: ('A' for Active; 'I' for Inactive)
REMARK    1  A    between atoms: C_4  and  S_7
REMARK    2  A    between atoms: S_7  and  C_8
REMARK    3  A    between atoms: C_8  and  S_23
REMARK    4  A    between atoms: C_9  and  C_10
REMARK    5  A    between atoms: N_12  and  N_13
REMARK    6  A    between atoms: C_14  and  C_15
REMARK    7  A    between atoms: C_18  and  O_22
REMARK    8  A    between atoms: C_20  and  O_21
REMARK    9  A    between atoms: S_23  and  C_24
REMARK                            x       y       z     vdW  Elec       q    Type
REMARK                         _______ _______ _______ _____ _____    ______ ____
ROOT
ATOM      1  C   UNL     1       3.476  -2.274   0.116  0.00  0.00    +0.055 C 
ATOM      2  C   UNL     1       4.651  -2.972   0.280  0.00  0.00    +0.091 C 
ENDROOT
BRANCH   2   3
ATOM      3  C   UNL     1       4.635  -4.373   0.322  0.00  0.00    +0.258 C 
ATOM      4  O   UNL     1       3.579  -4.974   0.214  0.00  0.00    -0.269 OA
ATOM      5  N   UNL     1       5.785  -5.056   0.482  0.00  0.00    -0.203 N 
ATOM      6  H   UNL     1       6.625  -4.578   0.568  0.00  0.00    +0.178 HD
BRANCH   5   7
ATOM      7  N   UNL     1       5.769  -6.456   0.525  0.00  0.00    -0.187 NA
ATOM      8  C   UNL     1       6.877  -7.114   0.680  0.00  0.00    +0.142 C 
BRANCH   8   9
ATOM      9  C   UNL     1       6.859  -8.587   0.724  0.00  0.00    +0.036 A 
ATOM     10  C   UNL     1       8.050  -9.298   0.896  0.00  0.00    +0.016 A 
ATOM     11  C   UNL     1       8.029 -10.675   0.938  0.00  0.00    +0.046 A 
ATOM     12  C   UNL     1       6.827 -11.360   0.810  0.00  0.00    +0.120 A 
ATOM     13  C   UNL     1       5.640 -10.664   0.639  0.00  0.00    +0.091 A 
ATOM     14  C   UNL     1       5.647  -9.280   0.601  0.00  0.00    +0.129 A 
BRANCH  14  15
ATOM     15  O   UNL     1       4.485  -8.597   0.439  0.00  0.00    -0.506 OA
ATOM     16  H   UNL     1       4.254  -8.427  -0.484  0.00  0.00    +0.292 HD
ENDBRANCH  14  15
BRANCH  12  17
ATOM     17  O   UNL     1       6.815 -12.718   0.852  0.00  0.00    -0.507 OA
ATOM     18  H   UNL     1       6.702 -13.083   1.740  0.00  0.00    +0.292 HD
ENDBRANCH  12  17
ENDBRANCH   8   9
ENDBRANCH   5   7
ENDBRANCH   2   3
BRANCH   1  19
ATOM     19  S   UNL     1       3.497  -0.513   0.062  0.00  0.00    -0.082 S 
BRANCH  19  23
ATOM     20  C   UNL     1       1.269   0.724   3.807  0.00  0.00    +0.000 A 
ATOM     21  C   UNL     1       1.659   1.681   2.888  0.00  0.00    +0.001 A 
ATOM     22  C   UNL     1       2.339   1.308   1.745  0.00  0.00    +0.015 A 
ATOM     23  C   UNL     1       2.631  -0.032   1.519  0.00  0.00    +0.013 A 
ATOM     24  C   UNL     1       2.238  -0.991   2.444  0.00  0.00    +0.015 A 
ATOM     25  C   UNL     1       1.558  -0.610   3.585  0.00  0.00    +0.001 A 
ENDBRANCH  19  23
ENDBRANCH   1  19
BRANCH   1  26
ATOM     26  S   UNL     1       1.950  -3.142  -0.040  0.00  0.00    -0.082 S 
BRANCH  26  27
ATOM     27  C   UNL     1       1.431  -2.798  -1.688  0.00  0.00    +0.013 A 
ATOM     28  C   UNL     1       2.269  -2.105  -2.552  0.00  0.00    +0.015 A 
ATOM     29  C   UNL     1       1.859  -1.838  -3.844  0.00  0.00    +0.001 A 
ATOM     30  C   UNL     1       0.615  -2.259  -4.277  0.00  0.00    +0.000 A 
ATOM     31  C   UNL     1      -0.222  -2.949  -3.419  0.00  0.00    +0.001 A 
ATOM     32  C   UNL     1       0.184  -3.225  -2.128  0.00  0.00    +0.015 A 
ENDBRANCH  26  27
ENDBRANCH   1  26
TORSDOF 9
