REMARK  Name = ZINC20907131
REMARK  8 active torsions:
REMARK  status: ('A' for Active; 'I' for Inactive)
REMARK    1  A    between atoms: C_1  and  C_2
REMARK    2  A    between atoms: C_7  and  N_8
REMARK    3  A    between atoms: C_9  and  C_11
REMARK    4  A    between atoms: C_11  and  S_12
REMARK    5  A    between atoms: S_12  and  C_13
REMARK    6  A    between atoms: N_18  and  N_19
REMARK    7  A    between atoms: C_20  and  C_21
REMARK    8  A    between atoms: C_30  and  O_31
REMARK                            x       y       z     vdW  Elec       q    Type
REMARK                         _______ _______ _______ _____ _____    ______ ____
ROOT
ATOM      1  C   UNL     1      -3.233  11.553   0.063  0.00  0.00    +0.211 A 
ATOM      2  N   UNL     1      -3.663  10.257   0.054  0.00  0.00    -0.186 NA
ATOM      3  C   UNL     1      -2.562   9.446   0.029  0.00  0.00    +0.232 A 
ATOM      4  N   UNL     1      -1.497  10.210   0.028  0.00  0.00    -0.245 N 
ATOM      5  N   UNL     1      -1.921  11.545   0.045  0.00  0.00    -0.144 NA
ATOM      6  N   UNL     1      -2.571   8.059   0.014  0.00  0.00    -0.205 N 
ATOM      7  H   UNL     1      -3.527   7.515   0.021  0.00  0.00    +0.177 HD
ATOM      8  H   UNL     1      -0.495   9.756   0.015  0.00  0.00    +0.192 HD
ENDROOT
BRANCH   6   9
ATOM      9  N   UNL     1      -1.363   7.351  -0.012  0.00  0.00    -0.187 NA
ATOM     10  C   UNL     1      -1.371   6.051  -0.027  0.00  0.00    +0.142 C 
BRANCH  10  11
ATOM     11  C   UNL     1      -0.103   5.308  -0.054  0.00  0.00    +0.044 A 
ATOM     12  C   UNL     1      -0.094   3.846  -0.070  0.00  0.00    -0.006 A 
ATOM     13  C   UNL     1      -1.284   3.108  -0.061  0.00  0.00    +0.009 A 
ATOM     14  C   UNL     1      -1.232   1.746  -0.083  0.00  0.00    +0.001 A 
ATOM     15  C   UNL     1      -0.010   1.077  -0.103  0.00  0.00    +0.001 A 
ATOM     16  C   UNL     1       1.165   1.764  -0.113  0.00  0.00    +0.008 A 
ATOM     17  C   UNL     1       1.150   3.170  -0.097  0.00  0.00    -0.017 A 
ATOM     18  C   UNL     1       2.343   3.913  -0.106  0.00  0.00    +0.012 A 
ATOM     19  C   UNL     1       2.316   5.272  -0.090  0.00  0.00    +0.046 A 
ATOM     20  C   UNL     1       1.118   5.982  -0.064  0.00  0.00    +0.126 A 
BRANCH  20  21
ATOM     21  O   UNL     1       1.138   7.340  -0.049  0.00  0.00    -0.506 OA
ATOM     22  H   UNL     1       2.099   7.876  -0.057  0.00  0.00    +0.292 HD
ENDBRANCH  20  21
ENDBRANCH  10  11
ENDBRANCH   6   9
BRANCH   1  23
ATOM     23  S   UNL     1      -4.259  12.985   0.094  0.00  0.00    -0.075 S 
BRANCH  23  24
ATOM     24  C   UNL     1      -3.085  14.367   0.094  0.00  0.00    +0.173 C 
BRANCH  24  26
ATOM     25  N   UNL     1      -3.171  16.839   0.124  0.00  0.00    -0.285 N 
ATOM     26  C   UNL     1      -3.842  15.670   0.120  0.00  0.00    +0.227 C 
ATOM     27  O   UNL     1      -5.055  15.666   0.137  0.00  0.00    -0.275 OA
ATOM     28  H   UNL     1      -2.074  16.843   0.201  0.00  0.00    +0.155 HD
BRANCH  25  35
ATOM     29  C   UNL     1      -1.957  19.180   1.192  0.00  0.00    +0.046 C 
ATOM     30  C   UNL     1      -3.316  19.214   0.539  0.00  0.00    -0.028 A 
ATOM     31  C   UNL     1      -4.006  20.406   0.442  0.00  0.00    +0.020 A 
ATOM     32  C   UNL     1      -5.256  20.436  -0.151  0.00  0.00    +0.018 A 
ATOM     33  C   UNL     1      -5.814  19.274  -0.654  0.00  0.00    +0.017 A 
ATOM     34  C   UNL     1      -5.126  18.081  -0.564  0.00  0.00    +0.024 A 
ATOM     35  C   UNL     1      -3.872  18.047   0.031  0.00  0.00    +0.036 A 
ATOM     36 BR   UNL     1      -6.202  22.069  -0.276  0.00  0.00    -0.050 Br
ENDBRANCH  25  35
ENDBRANCH  24  26
ENDBRANCH  23  24
ENDBRANCH   1  23
TORSDOF 7
