REMARK  Name = ZINC64740137
REMARK  7 active torsions:
REMARK  status: ('A' for Active; 'I' for Inactive)
REMARK    1  A    between atoms: C_1  and  C_2
REMARK    2  A    between atoms: C_2  and  C_3
REMARK    3  A    between atoms: C_3  and  S_4
REMARK    4  A    between atoms: S_4  and  C_5
REMARK    5  A    between atoms: C_11  and  C_19
REMARK    6  A    between atoms: N_21  and  C_22
REMARK    7  A    between atoms: C_27  and  C_28
REMARK                            x       y       z     vdW  Elec       q    Type
REMARK                         _______ _______ _______ _____ _____    ______ ____
ROOT
ATOM      1  C   UNL     1      -3.132  -2.747  -0.043  0.00  0.00    +0.182 C 
ATOM      2  N   UNL     1      -4.034  -1.781  -0.032  0.00  0.00    -0.154 NA
ATOM      3  C   UNL     1      -5.344  -2.032  -0.067  0.00  0.00    +0.249 C 
ATOM      4  O   UNL     1      -6.166  -1.137  -0.029  0.00  0.00    -0.273 OA
ATOM      5  C   UNL     1      -5.756  -3.486  -0.157  0.00  0.00    +0.153 C 
ATOM      6  C   UNL     1      -6.707  -3.788   1.003  0.00  0.00    +0.103 C 
ATOM      7  C   UNL     1      -7.264  -5.203   0.824  0.00  0.00    +0.110 C 
ATOM      8  C   UNL     1      -6.161  -6.184   0.550  0.00  0.00    +0.219 C 
ATOM      9  O   UNL     1      -6.378  -7.363   0.729  0.00  0.00    -0.275 OA
ATOM     10  N   UNL     1      -4.945  -5.814   0.116  0.00  0.00    -0.273 N 
ATOM     11  C   UNL     1      -4.631  -4.500  -0.056  0.00  0.00    +0.117 C 
ATOM     12  N   UNL     1      -3.407  -4.057  -0.032  0.00  0.00    -0.212 NA
ATOM     13  H   UNL     1      -4.282  -6.491  -0.090  0.00  0.00    +0.156 HD
ENDROOT
BRANCH   6  14
ATOM     14  C   UNL     1      -7.838  -2.792   1.001  0.00  0.00    +0.222 C 
ATOM     15  O   UNL     1      -8.515  -2.645   0.005  0.00  0.00    -0.275 OA
ATOM     16  N   UNL     1      -8.098  -2.065   2.106  0.00  0.00    -0.285 N 
ATOM     17  H   UNL     1      -7.521  -2.140   2.882  0.00  0.00    +0.155 HD
BRANCH  16  18
ATOM     18  C   UNL     1      -9.199  -1.202   2.133  0.00  0.00    +0.036 A 
ATOM     19  C   UNL     1      -9.703  -0.679   0.949  0.00  0.00    +0.024 A 
ATOM     20  C   UNL     1     -10.790   0.172   0.978  0.00  0.00    +0.017 A 
ATOM     21  C   UNL     1     -11.377   0.504   2.186  0.00  0.00    +0.018 A 
ATOM     22  C   UNL     1     -10.878  -0.015   3.367  0.00  0.00    +0.020 A 
ATOM     23  C   UNL     1      -9.794  -0.871   3.343  0.00  0.00    -0.028 A 
ATOM     24  C   UNL     1      -9.254  -1.441   4.629  0.00  0.00    +0.046 C 
ATOM     25 BR   UNL     1     -12.865   1.671   2.223  0.00  0.00    -0.050 Br
ENDBRANCH  16  18
ENDBRANCH   6  14
BRANCH   1  26
ATOM     26  S   UNL     1      -1.435  -2.274  -0.084  0.00  0.00    -0.089 S 
BRANCH  26  27
ATOM     27  C   UNL     1      -1.486  -0.461  -0.090  0.00  0.00    +0.077 C 
BRANCH  27  29
ATOM     28  C   UNL     1      -0.100   1.618  -0.130  0.00  0.00    +0.004 C 
ATOM     29  C   UNL     1      -0.058   0.089  -0.125  0.00  0.00    +0.008 C 
ENDBRANCH  27  29
ENDBRANCH  26  27
ENDBRANCH   1  26
TORSDOF 5
