REMARK  Name = ZINC07737606
REMARK  7 active torsions:
REMARK  status: ('A' for Active; 'I' for Inactive)
REMARK    1  A    between atoms: C_1  and  C_2
REMARK    2  A    between atoms: C_9  and  N_14
REMARK    3  A    between atoms: C_10  and  C_11
REMARK    4  A    between atoms: C_15  and  C_17
REMARK    5  A    between atoms: C_17  and  C_19
REMARK    6  A    between atoms: C_17  and  N_20
REMARK    7  A    between atoms: C_21  and  C_23
REMARK                            x       y       z     vdW  Elec       q    Type
REMARK                         _______ _______ _______ _____ _____    ______ ____
ROOT
ATOM      1  C   UNL     1      -1.434   3.622   2.530  0.00  0.00    +0.008 C 
ATOM      2  C   UNL     1      -0.938   3.098   1.181  0.00  0.00    -0.009 C 
ATOM      3  C   UNL     1      -0.735   1.582   1.262  0.00  0.00    +0.008 C 
ATOM      4  C   UNL     1      -0.013   1.086   0.008  0.00  0.00    +0.037 C 
ATOM      5  C   UNL     1      -0.755   1.593  -1.222  0.00  0.00    -0.023 A 
ATOM      6  C   UNL     1      -1.621   2.627  -1.135  0.00  0.00    -0.004 A 
ATOM      7  S   UNL     1      -2.225   2.851  -2.784  0.00  0.00    -0.077 S 
ATOM      8  C   UNL     1      -1.341   1.591  -3.579  0.00  0.00    +0.084 A 
ATOM      9  C   UNL     1      -0.600   1.027  -2.551  0.00  0.00    +0.068 A 
ATOM     10  C   UNL     1      -1.980   3.403   0.095  0.00  0.00    +0.046 C 
ENDROOT
BRANCH   9  11
ATOM     11  C   UNL     1       0.306  -0.099  -2.796  0.00  0.00    +0.244 C 
ATOM     12  O   UNL     1      -0.103  -1.242  -2.702  0.00  0.00    -0.270 OA
ATOM     13  N   UNL     1       1.593   0.130  -3.125  0.00  0.00    -0.325 N 
ATOM     14  H   UNL     1       1.919   1.040  -3.200  0.00  0.00    +0.145 HD
ATOM     15  H   UNL     1       2.192  -0.615  -3.288  0.00  0.00    +0.145 HD
ENDBRANCH   9  11
BRANCH   8  16
ATOM     16  N   UNL     1      -1.367   1.234  -4.919  0.00  0.00    -0.278 N 
ATOM     17  C   UNL     1      -2.158   1.905  -5.780  0.00  0.00    +0.238 C 
ATOM     18  O   UNL     1      -2.847   2.821  -5.383  0.00  0.00    -0.273 OA
ATOM     19  H   UNL     1      -0.817   0.502  -5.236  0.00  0.00    +0.155 HD
BRANCH  17  20
ATOM     20  C   UNL     1      -2.187   1.517  -7.236  0.00  0.00    +0.156 C 
ATOM     21  C   UNL     1      -0.785   1.664  -7.830  0.00  0.00    +0.038 C 
BRANCH  20  22
ATOM     22  N   UNL     1      -3.117   2.390  -7.956  0.00  0.00    -0.298 N 
ATOM     23  C   UNL     1      -3.696   1.964  -9.096  0.00  0.00    +0.280 C 
ATOM     24  O   UNL     1      -3.446   0.854  -9.527  0.00  0.00    -0.267 OA
ATOM     25  H   UNL     1      -3.316   3.275  -7.612  0.00  0.00    +0.150 HD
BRANCH  23  26
ATOM     26  C   UNL     1      -4.627   2.838  -9.816  0.00  0.00    +0.189 A 
ATOM     27  C   UNL     1      -5.280   2.533 -10.976  0.00  0.00    +0.054 A 
ATOM     28  C   UNL     1      -6.061   3.651 -11.306  0.00  0.00    +0.042 A 
ATOM     29  C   UNL     1      -5.854   4.579 -10.345  0.00  0.00    +0.196 A 
ATOM     30  O   UNL     1      -4.993   4.083  -9.447  0.00  0.00    -0.458 OA
ENDBRANCH  23  26
ENDBRANCH  20  22
ENDBRANCH  17  20
ENDBRANCH   8  16
TORSDOF 5
