REMARK  Name = ZINC64402184
REMARK  4 active torsions:
REMARK  status: ('A' for Active; 'I' for Inactive)
REMARK    1  A    between atoms: C_6  and  C_11
REMARK    2  A    between atoms: N_13  and  C_14
REMARK    3  A    between atoms: C_20  and  C_22
REMARK    4  A    between atoms: N_24  and  C_27
REMARK                            x       y       z     vdW  Elec       q    Type
REMARK                         _______ _______ _______ _____ _____    ______ ____
ROOT
ATOM      1  C   UNL     1       4.004  -4.549   2.974  0.00  0.00    +0.076 C 
ATOM      2  C   UNL     1       5.419  -5.062   2.696  0.00  0.00    +0.041 C 
ATOM      3  C   UNL     1       5.889  -5.917   3.877  0.00  0.00    +0.110 C 
ATOM      4  N   UNL     1       4.899  -6.976   4.117  0.00  0.00    -0.296 N 
ATOM      5  C   UNL     1       3.492  -6.599   4.307  0.00  0.00    +0.110 C 
ATOM      6  C   UNL     1       3.049  -5.736   3.121  0.00  0.00    +0.041 C 
ATOM      7  C   UNL     1       5.275  -8.270   4.162  0.00  0.00    +0.263 C 
ATOM      8  O   UNL     1       4.463  -9.130   4.452  0.00  0.00    -0.269 OA
ENDROOT
BRANCH   7   9
ATOM      9  C   UNL     1       6.657  -8.640   3.863  0.00  0.00    +0.121 C 
ATOM     10  C   UNL     1       7.679  -8.686   4.744  0.00  0.00    +0.124 C 
ATOM     11  N   UNL     1       8.813  -9.078   4.074  0.00  0.00    -0.225 N 
ATOM     12  N   UNL     1       8.498  -9.279   2.761  0.00  0.00    -0.156 NA
ATOM     13  N   UNL     1       7.165  -9.021   2.602  0.00  0.00    -0.259 N 
ATOM     14  H   UNL     1       8.716 -10.222   2.477  0.00  0.00    +0.168 HD
ATOM     15  H   UNL     1       6.662  -9.084   1.775  0.00  0.00    +0.168 HD
BRANCH  11  16
ATOM     16  C   UNL     1      10.079  -9.242   4.642  0.00  0.00    +0.051 A 
ATOM     17  C   UNL     1      10.269  -9.010   5.999  0.00  0.00    +0.026 A 
ATOM     18  C   UNL     1      11.521  -9.174   6.558  0.00  0.00    +0.022 A 
ATOM     19  C   UNL     1      12.586  -9.570   5.768  0.00  0.00    +0.041 A 
ATOM     20  C   UNL     1      12.400  -9.802   4.416  0.00  0.00    +0.022 A 
ATOM     21  C   UNL     1      11.149  -9.645   3.853  0.00  0.00    +0.026 A 
ATOM     22 CL   UNL     1      14.159  -9.774   6.473  0.00  0.00    -0.084 Cl
ENDBRANCH  11  16
ENDBRANCH   7   9
BRANCH   1  25
ATOM     23  C   UNL     1       3.895  -2.397   1.836  0.00  0.00    +0.240 C 
ATOM     24  O   UNL     1       4.557  -1.922   2.734  0.00  0.00    -0.273 OA
ATOM     25  N   UNL     1       3.564  -3.704   1.861  0.00  0.00    -0.310 N 
ATOM     26  H   UNL     1       3.035  -4.084   1.143  0.00  0.00    +0.149 HD
BRANCH  23  32
ATOM     27  C   UNL     1       0.367   1.931   1.061  0.00  0.00    +0.001 A 
ATOM     28  C   UNL     1       1.567   2.645   1.184  0.00  0.00    +0.002 A 
ATOM     29  C   UNL     1       2.778   2.050   1.138  0.00  0.00    +0.026 A 
ATOM     30  C   UNL     1       2.881   0.643   0.959  0.00  0.00    +0.043 A 
ATOM     31  N   UNL     1       3.920  -0.153   0.881  0.00  0.00    -0.370 N 
ATOM     32  C   UNL     1       3.442  -1.528   0.692  0.00  0.00    +0.190 C 
ATOM     33  C   UNL     1       1.933  -1.442   0.665  0.00  0.00    +0.016 C 
ATOM     34  C   UNL     1       1.628  -0.134   0.827  0.00  0.00    -0.004 A 
ATOM     35  C   UNL     1       0.353   0.589   0.888  0.00  0.00    +0.010 A 
ATOM     36  H   UNL     1       4.848   0.120   0.940  0.00  0.00    +0.161 HD
ENDBRANCH  23  32
ENDBRANCH   1  25
TORSDOF 4
