REMARK  Name = ZINC41069982
REMARK  7 active torsions:
REMARK  status: ('A' for Active; 'I' for Inactive)
REMARK    1  A    between atoms: C_1  and  C_2
REMARK    2  A    between atoms: C_2  and  C_3
REMARK    3  A    between atoms: C_8  and  N_9
REMARK    4  A    between atoms: N_9  and  S_10
REMARK    5  A    between atoms: S_10  and  C_13
REMARK    6  A    between atoms: C_18  and  N_19
REMARK    7  A    between atoms: N_19  and  N_20
REMARK                            x       y       z     vdW  Elec       q    Type
REMARK                         _______ _______ _______ _____ _____    ______ ____
ROOT
ATOM      1  S   UNL     1       4.732   0.411  -0.088  0.00  0.00    +0.076 S 
ATOM      2  O   UNL     1       4.822   1.588  -0.881  0.00  0.00    -0.150 OA
ATOM      3  O   UNL     1       5.338   0.307   1.192  0.00  0.00    -0.150 OA
ENDROOT
BRANCH   1   4
ATOM      4  C   UNL     1       5.385  -0.903  -1.063  0.00  0.00    +0.150 A 
ATOM      5  C   UNL     1       5.909  -0.652  -2.319  0.00  0.00    +0.049 A 
ATOM      6  C   UNL     1       6.413  -1.718  -3.052  0.00  0.00    +0.038 A 
ATOM      7  C   UNL     1       6.377  -2.989  -2.511  0.00  0.00    +0.128 A 
ATOM      8  N   UNL     1       5.870  -3.198  -1.310  0.00  0.00    -0.236 NA
ATOM      9  C   UNL     1       5.386  -2.207  -0.578  0.00  0.00    +0.159 A 
ATOM     10 BR   UNL     1       7.140  -1.434  -4.774  0.00  0.00    -0.049 Br
BRANCH   9  11
ATOM     11  N   UNL     1       4.869  -2.472   0.685  0.00  0.00    -0.266 N 
ATOM     12  H   UNL     1       4.467  -1.758   1.204  0.00  0.00    +0.167 HD
BRANCH  11  13
ATOM     13  N   UNL     1       4.925  -3.739   1.194  0.00  0.00    -0.255 NA
ATOM     14  H   UNL     1       5.881  -4.022   1.352  0.00  0.00    +0.140 HD
ATOM     15  H   UNL     1       4.381  -3.813   2.040  0.00  0.00    +0.140 HD
ENDBRANCH  11  13
ENDBRANCH   9  11
ENDBRANCH   1   4
BRANCH   1  16
ATOM     16  N   UNL     1       3.118   0.107   0.126  0.00  0.00    -0.216 N 
ATOM     17  H   UNL     1       2.780  -0.117   1.007  0.00  0.00    +0.174 HD
BRANCH  16  23
ATOM     18  C   UNL     1       0.949   0.642  -0.787  0.00  0.00    -0.025 A 
ATOM     19  C   UNL     1       0.089   0.712  -1.866  0.00  0.00    +0.005 A 
ATOM     20  C   UNL     1       0.516   0.310  -3.118  0.00  0.00    +0.000 A 
ATOM     21  C   UNL     1       1.804  -0.162  -3.295  0.00  0.00    +0.002 A 
ATOM     22  C   UNL     1       2.668  -0.234  -2.221  0.00  0.00    +0.025 A 
ATOM     23  C   UNL     1       2.245   0.174  -0.962  0.00  0.00    +0.051 A 
BRANCH  18  25
ATOM     24  C   UNL     1       0.885   2.538   0.811  0.00  0.00    +0.009 C 
ATOM     25  C   UNL     1       0.483   1.080   0.578  0.00  0.00    +0.033 C 
ENDBRANCH  18  25
ENDBRANCH  16  23
ENDBRANCH   1  16
TORSDOF 6
