REMARK  Name = ZINC12731010
REMARK  15 active torsions:
REMARK  status: ('A' for Active; 'I' for Inactive)
REMARK    1  A    between atoms: C_1  and  C_2
REMARK    2  A    between atoms: C_2  and  C_3
REMARK    3  A    between atoms: C_2  and  C_4
REMARK    4  A    between atoms: C_4  and  C_6
REMARK    5  A    between atoms: C_4  and  N_21
REMARK    6  A    between atoms: N_8  and  C_9
REMARK    7  A    between atoms: C_9  and  C_10
REMARK    8  A    between atoms: C_10  and  C_11
REMARK    9  A    between atoms: C_14  and  S_17
REMARK   10  A    between atoms: S_17  and  N_20
REMARK   11  A    between atoms: C_22  and  C_24
REMARK   12  A    between atoms: C_27  and  C_30
REMARK   13  A    between atoms: C_30  and  C_31
REMARK   14  A    between atoms: C_30  and  C_32
REMARK   15  A    between atoms: C_30  and  C_33
REMARK                            x       y       z     vdW  Elec       q    Type
REMARK                         _______ _______ _______ _____ _____    ______ ____
ROOT
ATOM      1  C   UNL     1       0.718  -0.497  -1.257  0.00  0.00    +0.161 C 
ENDROOT
BRANCH   1   2
ATOM      2  C   UNL     1       0.739  -2.004  -1.265  0.00  0.00    +0.234 C 
ATOM      3  O   UNL     1       0.213  -2.613  -2.173  0.00  0.00    -0.274 OA
ATOM      4  N   UNL     1       1.341  -2.676  -0.264  0.00  0.00    -0.313 N 
ATOM      5  H   UNL     1       1.761  -2.189   0.463  0.00  0.00    +0.149 HD
BRANCH   4   6
ATOM      6  C   UNL     1       1.361  -4.141  -0.272  0.00  0.00    +0.109 C 
BRANCH   6   7
ATOM      7  C   UNL     1       2.101  -4.647   0.968  0.00  0.00    +0.054 C 
BRANCH   7   8
ATOM      8  C   UNL     1       2.121  -6.154   0.960  0.00  0.00    -0.046 A 
ATOM      9  C   UNL     1       1.097  -6.863   1.559  0.00  0.00    +0.005 A 
ATOM     10  C   UNL     1       1.116  -8.245   1.552  0.00  0.00    +0.029 A 
ATOM     11  C   UNL     1       2.159  -8.918   0.944  0.00  0.00    +0.105 A 
ATOM     12  C   UNL     1       3.183  -8.210   0.344  0.00  0.00    +0.029 A 
ATOM     13  C   UNL     1       3.162  -6.828   0.347  0.00  0.00    +0.005 A 
BRANCH  11  14
ATOM     14  S   UNL     1       2.183 -10.680   0.935  0.00  0.00    +0.056 S 
ATOM     15  O   UNL     1       3.542 -11.067   0.780  0.00  0.00    -0.153 OA
ATOM     16  O   UNL     1       1.392 -11.103   2.037  0.00  0.00    -0.153 OA
BRANCH  14  17
ATOM     17  N   UNL     1       1.391 -11.174  -0.433  0.00  0.00    -0.204 NA
ATOM     18  H   UNL     1       1.640 -12.007  -0.863  0.00  0.00    +0.144 HD
ATOM     19  H   UNL     1       0.679 -10.631  -0.804  0.00  0.00    +0.144 HD
ENDBRANCH  14  17
ENDBRANCH  11  14
ENDBRANCH   7   8
ENDBRANCH   6   7
ENDBRANCH   4   6
ENDBRANCH   1   2
BRANCH   1  20
ATOM     20  N   UNL     1       0.010  -0.012  -2.444  0.00  0.00    -0.304 N 
ATOM     21  C   UNL     1       0.274   1.216  -2.931  0.00  0.00    +0.217 C 
ATOM     22  O   UNL     1       1.099   1.920  -2.387  0.00  0.00    -0.275 OA
ATOM     23  H   UNL     1      -0.650  -0.575  -2.879  0.00  0.00    +0.149 HD
BRANCH  21  24
ATOM     24  C   UNL     1      -0.455   1.715  -4.152  0.00  0.00    +0.075 C 
ATOM     25  C   UNL     1      -0.174   0.781  -5.331  0.00  0.00    +0.013 C 
ATOM     26  C   UNL     1      -0.914   1.288  -6.571  0.00  0.00    +0.005 C 
ATOM     27  C   UNL     1      -0.431   2.700  -6.911  0.00  0.00    -0.006 C 
ATOM     28  C   UNL     1      -0.712   3.633  -5.732  0.00  0.00    +0.005 C 
ATOM     29  C   UNL     1       0.028   3.127  -4.493  0.00  0.00    +0.013 C 
BRANCH  27  30
ATOM     30  C   UNL     1      -1.171   3.206  -8.151  0.00  0.00    -0.035 C 
ATOM     31  C   UNL     1      -2.675   3.236  -7.871  0.00  0.00    +0.011 C 
ATOM     32  C   UNL     1      -0.688   4.617  -8.492  0.00  0.00    +0.011 C 
ATOM     33  C   UNL     1      -0.890   2.272  -9.330  0.00  0.00    +0.011 C 
ENDBRANCH  27  30
ENDBRANCH  21  24
ENDBRANCH   1  20
BRANCH   1  35
ATOM     34  C   UNL     1      -0.019   1.526   0.010  0.00  0.00    +0.009 C 
ATOM     35  C   UNL     1       0.002  -0.004   0.002  0.00  0.00    +0.012 C 
ATOM     36  C   UNL     1      -1.433  -0.534   0.013  0.00  0.00    +0.009 C 
ENDBRANCH   1  35
TORSDOF 10
