REMARK  Name = ZINC07239823
REMARK  7 active torsions:
REMARK  status: ('A' for Active; 'I' for Inactive)
REMARK    1  A    between atoms: C_1  and  C_2
REMARK    2  A    between atoms: C_2  and  C_3
REMARK    3  A    between atoms: C_6  and  C_15
REMARK    4  A    between atoms: C_13  and  O_14
REMARK    5  A    between atoms: C_15  and  N_52
REMARK    6  A    between atoms: N_18  and  C_21
REMARK    7  A    between atoms: C_26  and  O_27
REMARK                            x       y       z     vdW  Elec       q    Type
REMARK                         _______ _______ _______ _____ _____    ______ ____
ROOT
ATOM      1  C   UNL     1       6.527   0.474  -0.020  0.00  0.00    -0.042 C 
ENDROOT
BRANCH   1   5
ATOM      2  C   UNL     1       8.182   4.284   1.186  0.00  0.00    -0.005 A 
ATOM      3  C   UNL     1       7.663   3.077   0.814  0.00  0.00    +0.019 A 
ATOM      4  C   UNL     1       7.776   1.978   1.672  0.00  0.00    +0.019 A 
ATOM      5  C   UNL     1       7.228   0.671   1.299  0.00  0.00    -0.047 A 
ATOM      6  C   UNL     1       7.365  -0.356   2.178  0.00  0.00    +0.094 A 
ATOM      7  C   UNL     1       8.029  -0.147   3.404  0.00  0.00    +0.337 A 
ATOM      8  O   UNL     1       8.149  -1.077   4.180  0.00  0.00    -0.245 OA
ATOM      9  O   UNL     1       8.529   1.053   3.739  0.00  0.00    -0.422 OA
ATOM     10  C   UNL     1       8.423   2.116   2.914  0.00  0.00    +0.143 A 
ATOM     11  C   UNL     1       8.944   3.349   3.276  0.00  0.00    +0.092 A 
ATOM     12  C   UNL     1       8.823   4.427   2.415  0.00  0.00    +0.124 A 
BRANCH   2  14
ATOM     13  C   UNL     1       6.902   6.357   0.723  0.00  0.00    +0.009 C 
ATOM     14  C   UNL     1       8.059   5.468   0.263  0.00  0.00    +0.035 C 
ENDBRANCH   2  14
BRANCH  12  15
ATOM     15  O   UNL     1       9.334   5.634   2.771  0.00  0.00    -0.506 OA
ATOM     16  H   UNL     1       8.713   6.198   3.250  0.00  0.00    +0.292 HD
ENDBRANCH  12  15
ENDBRANCH   1   5
BRANCH   1  22
ATOM     17  C   UNL     1       4.448   0.847  -1.204  0.00  0.00    -0.059 C 
ATOM     18  C   UNL     1       3.107   1.583  -1.143  0.00  0.00    +0.086 C 
ATOM     19  N   UNL     1       2.353   1.126   0.033  0.00  0.00    -0.331 N 
ATOM     20  C   UNL     1       3.106   1.381   1.269  0.00  0.00    +0.086 C 
ATOM     21  C   UNL     1       4.446   0.645   1.208  0.00  0.00    -0.059 C 
ATOM     22  N   UNL     1       5.203   1.130   0.035  0.00  0.00    +0.384 N 
ATOM     23  H   UNL     1       5.337   2.144   0.120  0.00  0.00    -0.081 HD
BRANCH  19  24
ATOM     24  C   UNL     1       1.089   1.724   0.082  0.00  0.00    +0.072 A 
ATOM     25  C   UNL     1       0.976   3.105   0.158  0.00  0.00    +0.027 A 
ATOM     26  C   UNL     1      -0.273   3.694   0.206  0.00  0.00    +0.002 A 
ATOM     27  C   UNL     1      -1.412   2.911   0.179  0.00  0.00    +0.004 A 
ATOM     28  C   UNL     1      -1.307   1.534   0.098  0.00  0.00    +0.047 A 
ATOM     29  C   UNL     1      -0.059   0.936   0.055  0.00  0.00    +0.138 A 
BRANCH  29  30
ATOM     30  O   UNL     1       0.046  -0.418  -0.018  0.00  0.00    -0.505 OA
ATOM     31  H   UNL     1       0.088  -0.857   0.842  0.00  0.00    +0.292 HD
ENDBRANCH  29  30
ENDBRANCH  19  24
ENDBRANCH   1  22
TORSDOF 6
