REMARK  Name = ZINC64721155
REMARK  5 active torsions:
REMARK  status: ('A' for Active; 'I' for Inactive)
REMARK    1  A    between atoms: C_1  and  N_2
REMARK    2  A    between atoms: N_2  and  C_3
REMARK    3  A    between atoms: C_3  and  C_4
REMARK    4  A    between atoms: C_14  and  C_16
REMARK    5  A    between atoms: C_16  and  C_17
REMARK                            x       y       z     vdW  Elec       q    Type
REMARK                         _______ _______ _______ _____ _____    ______ ____
ROOT
ATOM      1  C   UNL     1      -0.018   1.461   0.010  0.00  0.00    +0.132 C 
ATOM      2  N   UNL     1       0.002  -0.004   0.002  0.00  0.00    -0.302 N 
ATOM      3  C   UNL     1       0.000  -0.672  -1.169  0.00  0.00    +0.219 C 
ATOM      4  O   UNL     1       0.017  -1.884  -1.175  0.00  0.00    -0.275 OA
ENDROOT
BRANCH   2   5
ATOM      5  C   UNL     1       0.024  -0.743   1.267  0.00  0.00    +0.141 C 
BRANCH   5   6
ATOM      6  C   UNL     1      -1.411  -1.020   1.720  0.00  0.00    +0.151 C 
ATOM      7  N   UNL     1      -2.176   0.228   1.843  0.00  0.00    -0.330 N 
ATOM      8  C   UNL     1      -3.291   0.383   1.021  0.00  0.00    +0.042 A 
ATOM      9  C   UNL     1      -4.141   1.503   0.998  0.00  0.00    +0.024 A 
ATOM     10  C   UNL     1      -5.220   1.562   0.146  0.00  0.00    +0.002 A 
ATOM     11  C   UNL     1      -5.505   0.520  -0.717  0.00  0.00    +0.001 A 
ATOM     12  C   UNL     1      -4.685  -0.596  -0.717  0.00  0.00    +0.016 A 
ATOM     13  C   UNL     1      -3.606  -0.653   0.137  0.00  0.00    +0.031 A 
ATOM     14  S   UNL     1      -2.361  -1.894   0.413  0.00  0.00    -0.099 S 
ATOM     15  H   UNL     1      -1.916   0.917   2.474  0.00  0.00    +0.147 HD
ENDBRANCH   5   6
ENDBRANCH   2   5
BRANCH   3  16
ATOM     16  C   UNL     1      -0.023   0.089  -2.470  0.00  0.00    +0.129 C 
BRANCH  16  17
ATOM     17  C   UNL     1      -0.020  -0.884  -3.620  0.00  0.00    -0.033 C 
ATOM     18  C   UNL     1      -1.097  -1.348  -4.295  0.00  0.00    -0.001 A 
ATOM     19  C   UNL     1      -2.537  -1.095  -4.165  0.00  0.00    +0.010 A 
ATOM     20  C   UNL     1      -3.391  -1.722  -5.005  0.00  0.00    +0.001 A 
ATOM     21  C   UNL     1      -2.938  -2.604  -5.995  0.00  0.00    +0.002 A 
ATOM     22  C   UNL     1      -1.630  -2.886  -6.177  0.00  0.00    +0.026 A 
ATOM     23  C   UNL     1      -0.643  -2.283  -5.349  0.00  0.00    +0.043 A 
ATOM     24  N   UNL     1       0.663  -2.394  -5.327  0.00  0.00    -0.380 N 
ATOM     25  C   UNL     1       1.187  -1.535  -4.258  0.00  0.00    +0.145 C 
ATOM     26  H   UNL     1       1.195  -2.947  -5.920  0.00  0.00    +0.160 HD
ENDBRANCH  16  17
ENDBRANCH   3  16
TORSDOF 4
