REMARK  Name = ZINC08819271
REMARK  8 active torsions:
REMARK  status: ('A' for Active; 'I' for Inactive)
REMARK    1  A    between atoms: C_5  and  C_7
REMARK    2  A    between atoms: N_11  and  C_15
REMARK    3  A    between atoms: C_15  and  C_16
REMARK    4  A    between atoms: C_16  and  C_17
REMARK    5  A    between atoms: N_19  and  N_20
REMARK    6  A    between atoms: C_21  and  C_23
REMARK    7  A    between atoms: C_23  and  S_24
REMARK    8  A    between atoms: S_24  and  C_25
REMARK                            x       y       z     vdW  Elec       q    Type
REMARK                         _______ _______ _______ _____ _____    ______ ____
ROOT
ATOM      1  C   UNL     1      -3.083  -1.811  -0.871  0.00  0.00    +0.231 C 
ATOM      2  O   UNL     1      -3.596  -2.004   0.211  0.00  0.00    -0.274 OA
ATOM      3  N   UNL     1      -3.686  -2.255  -1.992  0.00  0.00    -0.234 N 
ATOM      4  H   UNL     1      -3.276  -2.101  -2.857  0.00  0.00    +0.173 HD
ENDROOT
BRANCH   3   5
ATOM      5  N   UNL     1      -4.906  -2.939  -1.907  0.00  0.00    -0.234 N 
ATOM      6  C   UNL     1      -5.509  -3.383  -3.027  0.00  0.00    +0.239 C 
ATOM      7  O   UNL     1      -4.996  -3.190  -4.109  0.00  0.00    -0.273 OA
ATOM      8  H   UNL     1      -5.316  -3.093  -1.042  0.00  0.00    +0.173 HD
BRANCH   6   9
ATOM      9  C   UNL     1      -6.821  -4.118  -2.936  0.00  0.00    +0.176 C 
BRANCH   9  10
ATOM     10  S   UNL     1      -7.371  -4.580  -4.597  0.00  0.00    -0.058 S 
BRANCH  10  11
ATOM     11  C   UNL     1      -8.880  -5.401  -4.204  0.00  0.00    +0.258 A 
ATOM     12  N   UNL     1      -9.351  -5.564  -2.993  0.00  0.00    -0.203 NA
ATOM     13  C   UNL     1     -10.532  -6.236  -3.072  0.00  0.00    +0.110 A 
ATOM     14  C   UNL     1     -11.457  -6.674  -2.122  0.00  0.00    +0.031 A 
ATOM     15  C   UNL     1     -12.585  -7.352  -2.529  0.00  0.00    +0.002 A 
ATOM     16  C   UNL     1     -12.807  -7.600  -3.875  0.00  0.00    +0.004 A 
ATOM     17  C   UNL     1     -11.901  -7.171  -4.825  0.00  0.00    +0.048 A 
ATOM     18  C   UNL     1     -10.761  -6.489  -4.433  0.00  0.00    +0.156 A 
ATOM     19  O   UNL     1      -9.713  -5.955  -5.102  0.00  0.00    -0.431 OA
ENDBRANCH  10  11
ENDBRANCH   9  10
ENDBRANCH   6   9
ENDBRANCH   3   5
BRANCH   1  20
ATOM     20  C   UNL     1      -1.771  -1.076  -0.963  0.00  0.00    +0.116 C 
BRANCH  20  21
ATOM     21  C   UNL     1      -1.306  -0.685   0.442  0.00  0.00    +0.124 C 
BRANCH  21  26
ATOM     22  C   UNL     1       1.584   3.324   0.004  0.00  0.00    +0.031 C 
ATOM     23  C   UNL     1       1.283   2.007   0.139  0.00  0.00    +0.077 C 
ATOM     24  C   UNL     1      -0.035   1.346   0.223  0.00  0.00    +0.258 C 
ATOM     25  O   UNL     1      -1.073   1.980   0.171  0.00  0.00    -0.269 OA
ATOM     26  N   UNL     1      -0.031   0.030   0.353  0.00  0.00    -0.255 N 
ATOM     27  C   UNL     1       1.121  -0.669   0.405  0.00  0.00    +0.121 C 
ATOM     28  S   UNL     1       1.333  -2.360   0.568  0.00  0.00    -0.027 S 
ATOM     29  S   UNL     1       2.374   0.596   0.263  0.00  0.00    -0.061 S 
BRANCH  22  34
ATOM     30  C   UNL     1       5.249   3.377   0.787  0.00  0.00    +0.001 A 
ATOM     31  C   UNL     1       5.612   4.619   0.294  0.00  0.00    +0.003 A 
ATOM     32  C   UNL     1       4.668   5.442  -0.293  0.00  0.00    +0.039 A 
ATOM     33  C   UNL     1       3.353   5.029  -0.392  0.00  0.00    +0.131 A 
ATOM     34  C   UNL     1       2.979   3.772   0.104  0.00  0.00    +0.011 A 
ATOM     35  C   UNL     1       3.942   2.950   0.702  0.00  0.00    +0.011 A 
ATOM     36  F   UNL     1       2.431   5.833  -0.965  0.00  0.00    -0.205 F 
ENDBRANCH  22  34
ENDBRANCH  21  26
ENDBRANCH  20  21
ENDBRANCH   1  20
TORSDOF 8
