REMARK  Name = ZINC41584688
REMARK  8 active torsions:
REMARK  status: ('A' for Active; 'I' for Inactive)
REMARK    1  A    between atoms: C_1  and  C_2
REMARK    2  A    between atoms: C_3  and  C_28
REMARK    3  A    between atoms: C_9  and  O_27
REMARK    4  A    between atoms: C_10  and  C_13
REMARK    5  A    between atoms: C_13  and  N_14
REMARK    6  A    between atoms: C_19  and  C_21
REMARK    7  A    between atoms: C_33  and  O_34
REMARK    8  A    between atoms: O_34  and  C_35
REMARK                            x       y       z     vdW  Elec       q    Type
REMARK                         _______ _______ _______ _____ _____    ______ ____
ROOT
ATOM      1  C   UNL     1      -0.018   1.503   0.010  0.00  0.00    +0.087 C 
ATOM      2  C   UNL     1       0.002  -0.004   0.002  0.00  0.00    +0.114 A 
ATOM      3  C   UNL     1      -1.182  -0.671   0.004  0.00  0.00    +0.071 A 
ATOM      4  C   UNL     1      -1.150  -2.146   0.014  0.00  0.00    +0.201 A 
ATOM      5  O   UNL     1      -2.144  -2.815  -0.209  0.00  0.00    -0.286 OA
ATOM      6  C   UNL     1       0.158  -2.762   0.308  0.00  0.00    +0.065 A 
ATOM      7  C   UNL     1       0.273  -4.121   0.598  0.00  0.00    +0.019 A 
ATOM      8  C   UNL     1       1.501  -4.653   0.872  0.00  0.00    +0.046 A 
ATOM      9  C   UNL     1       2.635  -3.843   0.863  0.00  0.00    +0.122 A 
ATOM     10  C   UNL     1       2.536  -2.493   0.574  0.00  0.00    +0.020 A 
ATOM     11  C   UNL     1       1.296  -1.936   0.290  0.00  0.00    +0.144 A 
ATOM     12  O   UNL     1       1.182  -0.627  -0.013  0.00  0.00    -0.459 OA
ENDROOT
BRANCH   3  13
ATOM     13  C   UNL     1      -2.470   0.063  -0.002  0.00  0.00    +0.031 A 
ATOM     14  C   UNL     1      -2.925   0.669  -1.171  0.00  0.00    +0.012 A 
ATOM     15  C   UNL     1      -4.125   1.351  -1.172  0.00  0.00    +0.001 A 
ATOM     16  C   UNL     1      -4.878   1.436  -0.015  0.00  0.00    +0.004 A 
ATOM     17  C   UNL     1      -4.436   0.839   1.151  0.00  0.00    +0.046 A 
ATOM     18  C   UNL     1      -3.237   0.146   1.164  0.00  0.00    +0.128 A 
BRANCH  18  19
ATOM     19  O   UNL     1      -2.805  -0.447   2.308  0.00  0.00    -0.494 OA
ATOM     20  C   UNL     1      -3.641  -0.320   3.460  0.00  0.00    +0.277 C 
ENDBRANCH  18  19
ENDBRANCH   3  13
BRANCH   9  21
ATOM     21  O   UNL     1       3.849  -4.384   1.140  0.00  0.00    -0.506 OA
ATOM     22  H   UNL     1       4.319  -4.715   0.362  0.00  0.00    +0.292 HD
ENDBRANCH   9  21
BRANCH  10  23
ATOM     23  C   UNL     1       3.771  -1.629   0.568  0.00  0.00    -0.035 C 
BRANCH  23  24
ATOM     24  N   UNL     1       4.358  -1.623  -0.779  0.00  0.00    +0.387 N 
ATOM     25  C   UNL     1       4.818  -2.975  -1.116  0.00  0.00    -0.078 C 
ATOM     26  C   UNL     1       5.357  -2.992  -2.549  0.00  0.00    -0.019 C 
ATOM     27  C   UNL     1       6.527  -2.010  -2.660  0.00  0.00    -0.003 C 
ATOM     28  C   UNL     1       6.054  -0.617  -2.234  0.00  0.00    -0.011 C 
ATOM     29  C   UNL     1       5.489  -0.688  -0.813  0.00  0.00    -0.036 C 
ATOM     30  H   UNL     1       3.661  -1.330  -1.447  0.00  0.00    -0.080 HD
BRANCH  29  31
ATOM     31  C   UNL     1       5.023   0.680  -0.390  0.00  0.00    -0.043 A 
ATOM     32  C   UNL     1       5.820   1.474   0.421  0.00  0.00    +0.005 A 
ATOM     33  C   UNL     1       5.350   2.727   0.786  0.00  0.00    +0.020 A 
ATOM     34  C   UNL     1       4.111   3.139   0.333  0.00  0.00    +0.111 A 
ATOM     35  N   UNL     1       3.379   2.357  -0.436  0.00  0.00    -0.263 NA
ATOM     36  C   UNL     1       3.797   1.163  -0.808  0.00  0.00    +0.112 A 
ENDBRANCH  29  31
ENDBRANCH  23  24
ENDBRANCH  10  23
TORSDOF 6
