REMARK  Name = ZINC05790306
REMARK  11 active torsions:
REMARK  status: ('A' for Active; 'I' for Inactive)
REMARK    1  A    between atoms: C_1  and  C_2
REMARK    2  A    between atoms: C_4  and  C_32
REMARK    3  A    between atoms: C_5  and  O_31
REMARK    4  A    between atoms: C_6  and  C_8
REMARK    5  A    between atoms: N_16  and  C_28
REMARK    6  A    between atoms: C_17  and  C_19
REMARK    7  A    between atoms: C_22  and  C_25
REMARK    8  A    between atoms: C_25  and  C_26
REMARK    9  A    between atoms: C_25  and  C_27
REMARK   10  A    between atoms: C_28  and  C_29
REMARK   11  A    between atoms: C_29  and  O_30
REMARK                            x       y       z     vdW  Elec       q    Type
REMARK                         _______ _______ _______ _____ _____    ______ ____
ROOT
ATOM      1  C   UNL     1      -0.294  -3.446   2.847  0.00  0.00    +0.102 A 
ATOM      2  C   UNL     1      -0.055  -2.726   4.023  0.00  0.00    +0.035 A 
ATOM      3  C   UNL     1       0.148  -3.672   5.009  0.00  0.00    +0.126 A 
ATOM      4  N   UNL     1       0.026  -4.889   4.399  0.00  0.00    -0.272 N 
ATOM      5  H   UNL     1       0.119  -5.746   4.843  0.00  0.00    +0.189 HD
ATOM      6  N   UNL     1      -0.234  -4.728   3.151  0.00  0.00    -0.173 NA
ATOM      7  C   UNL     1       0.405  -2.978   6.276  0.00  0.00    +0.266 C 
ATOM      8  O   UNL     1       0.624  -3.530   7.338  0.00  0.00    -0.268 OA
ATOM      9  N   UNL     1       0.365  -1.646   6.096  0.00  0.00    -0.283 N 
ATOM     10  C   UNL     1       0.075  -1.380   4.681  0.00  0.00    +0.141 C 
ENDROOT
BRANCH   1  16
ATOM     11  C   UNL     1      -1.139   0.521  -0.063  0.00  0.00    +0.044 C 
ATOM     12  C   UNL     1      -0.977  -0.968   0.103  0.00  0.00    -0.049 A 
ATOM     13  C   UNL     1      -1.086  -1.800  -0.997  0.00  0.00    +0.010 A 
ATOM     14  C   UNL     1      -0.939  -3.167  -0.854  0.00  0.00    -0.008 A 
ATOM     15  C   UNL     1      -0.681  -3.711   0.394  0.00  0.00    +0.129 A 
ATOM     16  C   UNL     1      -0.570  -2.873   1.507  0.00  0.00    +0.044 A 
ATOM     17  C   UNL     1      -0.714  -1.496   1.351  0.00  0.00    +0.017 A 
ATOM     18  C   UNL     1      -1.060  -4.067  -2.057  0.00  0.00    +0.047 C 
BRANCH  15  19
ATOM     19  O   UNL     1      -0.537  -5.054   0.536  0.00  0.00    -0.506 OA
ATOM     20  H   UNL     1       0.372  -5.366   0.431  0.00  0.00    +0.292 HD
ENDBRANCH  15  19
ENDBRANCH   1  16
BRANCH  10  21
ATOM     21  C   UNL     1       1.207  -0.605   4.057  0.00  0.00    -0.022 A 
ATOM     22  C   UNL     1       2.480  -1.144   4.028  0.00  0.00    +0.006 A 
ATOM     23  C   UNL     1       3.518  -0.433   3.455  0.00  0.00    +0.004 A 
ATOM     24  C   UNL     1       3.284   0.816   2.911  0.00  0.00    -0.045 A 
ATOM     25  C   UNL     1       2.011   1.354   2.940  0.00  0.00    +0.004 A 
ATOM     26  C   UNL     1       0.972   0.641   3.508  0.00  0.00    +0.006 A 
BRANCH  24  27
ATOM     27  C   UNL     1       4.416   1.591   2.288  0.00  0.00    +0.013 C 
ATOM     28  C   UNL     1       4.098   1.864   0.816  0.00  0.00    +0.012 C 
ATOM     29  C   UNL     1       4.592   2.919   3.026  0.00  0.00    +0.012 C 
ENDBRANCH  24  27
ENDBRANCH  10  21
BRANCH   9  30
ATOM     30  C   UNL     1       0.575  -0.633   7.134  0.00  0.00    +0.137 C 
BRANCH  30  31
ATOM     31  C   UNL     1       2.076  -0.396   7.319  0.00  0.00    +0.175 C 
BRANCH  31  32
ATOM     32  O   UNL     1       2.606   0.232   6.151  0.00  0.00    -0.393 OA
ATOM     33  H   UNL     1       3.555   0.413   6.198  0.00  0.00    +0.209 HD
ENDBRANCH  31  32
ENDBRANCH  30  31
ENDBRANCH   9  30
TORSDOF 7
