REMARK  Name = ZINC11840169
REMARK  16 active torsions:
REMARK  status: ('A' for Active; 'I' for Inactive)
REMARK    1  A    between atoms: C_1  and  C_2
REMARK    2  A    between atoms: C_2  and  N_3
REMARK    3  A    between atoms: C_4  and  C_30
REMARK    4  A    between atoms: C_5  and  C_9
REMARK    5  A    between atoms: C_6  and  C_8
REMARK    6  A    between atoms: C_9  and  N_69
REMARK    7  A    between atoms: C_10  and  C_11
REMARK    8  A    between atoms: C_10  and  N_69
REMARK    9  A    between atoms: C_15  and  O_17
REMARK   10  A    between atoms: O_17  and  C_18
REMARK   11  A    between atoms: C_18  and  C_19
REMARK   12  A    between atoms: C_19  and  C_21
REMARK   13  A    between atoms: C_19  and  O_29
REMARK   14  A    between atoms: C_21  and  N_72
REMARK   15  A    between atoms: C_22  and  N_72
REMARK   16  A    between atoms: C_23  and  N_72
REMARK                            x       y       z     vdW  Elec       q    Type
REMARK                         _______ _______ _______ _____ _____    ______ ____
ROOT
ATOM      1  C   UNL     1      -1.120   1.775   0.867  0.00  0.00    -0.061 A 
ATOM      2  C   UNL     1       0.068   1.095   0.669  0.00  0.00    +0.002 A 
ATOM      3  C   UNL     1       1.233   1.795   0.417  0.00  0.00    +0.004 A 
ATOM      4  C   UNL     1       1.215   3.175   0.369  0.00  0.00    +0.045 A 
ATOM      5  C   UNL     1       0.025   3.860   0.572  0.00  0.00    +0.121 A 
ATOM      6  C   UNL     1      -1.143   3.155   0.825  0.00  0.00    +0.047 A 
ENDROOT
BRANCH   1   7
ATOM      7  C   UNL     1      -2.390   1.009   1.134  0.00  0.00    -0.046 C 
BRANCH   7   8
ATOM      8  N   UNL     1      -2.540   0.814   2.589  0.00  0.00    +0.384 N 
ATOM      9  H   UNL     1      -1.734   0.288   2.945  0.00  0.00    -0.085 HD
ATOM     10  H   UNL     1      -2.582   1.730   3.050  0.00  0.00    -0.085 HD
BRANCH   8  11
ATOM     11  C   UNL     1      -3.778   0.066   2.880  0.00  0.00    -0.043 C 
BRANCH  11  14
ATOM     12  N   UNL     1      -4.418   0.206   6.467  0.00  0.00    -0.268 N 
ATOM     13  C   UNL     1      -4.524   0.727   5.227  0.00  0.00    +0.038 A 
ATOM     14  C   UNL     1      -3.904  -0.118   4.370  0.00  0.00    -0.021 A 
ATOM     15  C   UNL     1      -3.407  -1.194   5.112  0.00  0.00    +0.062 A 
ATOM     16  N   UNL     1      -3.709  -0.998   6.370  0.00  0.00    -0.176 NA
ATOM     17  C   UNL     1      -2.649  -2.374   4.559  0.00  0.00    +0.068 C 
ATOM     18  C   UNL     1      -5.211   2.017   4.861  0.00  0.00    +0.065 C 
BRANCH  12  20
ATOM     19  C   UNL     1      -6.374   0.287   7.933  0.00  0.00    +0.029 C 
ATOM     20  C   UNL     1      -4.950   0.796   7.698  0.00  0.00    +0.140 C 
ENDBRANCH  12  20
ENDBRANCH  11  14
ENDBRANCH   8  11
ENDBRANCH   7   8
ENDBRANCH   1   7
BRANCH   5  21
ATOM     21  O   UNL     1       0.004   5.218   0.524  0.00  0.00    -0.489 OA
BRANCH  21  22
ATOM     22  C   UNL     1       1.244   5.877   0.259  0.00  0.00    +0.258 C 
BRANCH  22  23
ATOM     23  C   UNL     1       1.024   7.391   0.244  0.00  0.00    +0.135 C 
BRANCH  23  24
ATOM     24  O   UNL     1       0.635   7.829   1.547  0.00  0.00    -0.390 OA
ATOM     25  H   UNL     1       1.287   7.642   2.236  0.00  0.00    +0.210 HD
ENDBRANCH  23  24
BRANCH  23  26
ATOM     26  C   UNL     1       2.323   8.091  -0.163  0.00  0.00    -0.044 C 
BRANCH  26  28
ATOM     27  C   UNL     1       3.376  10.270  -0.231  0.00  0.00    -0.096 C 
ATOM     28  N   UNL     1       2.086   9.549  -0.194  0.00  0.00    +0.381 N 
ATOM     29  H   UNL     1       1.575   9.823   0.653  0.00  0.00    -0.082 HD
BRANCH  28  30
ATOM     30  C   UNL     1       1.276   9.904  -1.378  0.00  0.00    -0.069 C 
ATOM     31  C   UNL     1       2.036   9.580  -2.666  0.00  0.00    -0.015 C 
ATOM     32  C   UNL     1       1.177   9.958  -3.874  0.00  0.00    -0.002 C 
ATOM     33  C   UNL     1       0.864  11.454  -3.830  0.00  0.00    -0.000 C 
ATOM     34  C   UNL     1       0.103  11.778  -2.542  0.00  0.00    -0.002 C 
ATOM     35  C   UNL     1       0.962  11.401  -1.334  0.00  0.00    -0.015 C 
ENDBRANCH  28  30
ENDBRANCH  26  28
ENDBRANCH  23  26
ENDBRANCH  22  23
ENDBRANCH  21  22
ENDBRANCH   5  21
TORSDOF 12
