REMARK  Name = ZINC10316578
REMARK  8 active torsions:
REMARK  status: ('A' for Active; 'I' for Inactive)
REMARK    1  A    between atoms: C_1  and  C_2
REMARK    2  A    between atoms: C_2  and  C_4
REMARK    3  A    between atoms: C_2  and  S_20
REMARK    4  A    between atoms: N_6  and  C_7
REMARK    5  A    between atoms: C_7  and  C_8
REMARK    6  A    between atoms: N_10  and  C_11
REMARK    7  A    between atoms: S_20  and  C_21
REMARK    8  A    between atoms: N_26  and  C_27
REMARK                            x       y       z     vdW  Elec       q    Type
REMARK                         _______ _______ _______ _____ _____    ______ ____
ROOT
ATOM      1  C   UNL     1       3.896   7.502   0.395  0.00  0.00    +0.227 C 
ATOM      2  O   UNL     1       2.962   8.275   0.427  0.00  0.00    -0.275 OA
ATOM      3  N   UNL     1       3.671   6.178   0.275  0.00  0.00    -0.306 N 
ATOM      4  H   UNL     1       4.418   5.560   0.249  0.00  0.00    +0.149 HD
ENDROOT
BRANCH   1   6
ATOM      5  C   UNL     1       5.822   7.842   1.920  0.00  0.00    +0.029 C 
ATOM      6  C   UNL     1       5.308   8.020   0.490  0.00  0.00    +0.136 C 
BRANCH   6   7
ATOM      7  S   UNL     1       5.336   9.781   0.053  0.00  0.00    -0.084 S 
BRANCH   7   8
ATOM      8  C   UNL     1       7.048  10.196   0.065  0.00  0.00    +0.161 A 
ATOM      9  N   UNL     1       8.091   9.434   0.332  0.00  0.00    -0.133 NA
ATOM     10  N   UNL     1       9.359   9.966   0.281  0.00  0.00    -0.125 NA
ATOM     11  C   UNL     1       9.525  11.238  -0.026  0.00  0.00    +0.187 A 
ATOM     12  S   UNL     1       7.835  11.764  -0.272  0.00  0.00    -0.024 S 
ATOM     13  N   UNL     1      10.700  11.973  -0.129  0.00  0.00    -0.290 N 
ATOM     14  H   UNL     1      10.662  12.928  -0.293  0.00  0.00    +0.154 HD
BRANCH  13  15
ATOM     15  C   UNL     1      11.938  11.336   0.005  0.00  0.00    +0.068 A 
ATOM     16  C   UNL     1      11.995   9.992   0.348  0.00  0.00    +0.026 A 
ATOM     17  C   UNL     1      13.219   9.365   0.480  0.00  0.00    +0.002 A 
ATOM     18  C   UNL     1      14.387  10.074   0.270  0.00  0.00    +0.003 A 
ATOM     19  C   UNL     1      14.336  11.413  -0.072  0.00  0.00    +0.040 A 
ATOM     20  C   UNL     1      13.114  12.046  -0.211  0.00  0.00    +0.144 A 
ATOM     21  F   UNL     1      13.064  13.352  -0.551  0.00  0.00    -0.204 F 
ENDBRANCH  13  15
ENDBRANCH   7   8
ENDBRANCH   6   7
ENDBRANCH   1   6
BRANCH   3  22
ATOM     22  C   UNL     1       2.299   5.674   0.183  0.00  0.00    +0.200 C 
BRANCH  22  23
ATOM     23  C   UNL     1       2.323   4.173   0.057  0.00  0.00    +0.234 C 
ATOM     24  O   UNL     1       3.382   3.582   0.045  0.00  0.00    -0.274 OA
ATOM     25  N   UNL     1       1.167   3.486  -0.043  0.00  0.00    -0.282 N 
ATOM     26  H   UNL     1       0.325   3.962  -0.115  0.00  0.00    +0.155 HD
BRANCH  25  27
ATOM     27  C   UNL     1       1.182   2.085  -0.042  0.00  0.00    +0.072 A 
ATOM     28  C   UNL     1       2.233   1.401   0.553  0.00  0.00    +0.029 A 
ATOM     29  C   UNL     1       2.248   0.020   0.554  0.00  0.00    +0.043 A 
ATOM     30  C   UNL     1       1.215  -0.685  -0.040  0.00  0.00    +0.161 A 
ATOM     31  C   UNL     1       0.163  -0.007  -0.636  0.00  0.00    +0.195 A 
ATOM     32  C   UNL     1       0.145   1.377  -0.638  0.00  0.00    +0.182 A 
ATOM     33  F   UNL     1      -0.877   2.040  -1.224  0.00  0.00    -0.200 F 
ATOM     34  F   UNL     1      -0.844  -0.697  -1.216  0.00  0.00    -0.199 F 
ATOM     35  F   UNL     1       1.232  -2.036  -0.039  0.00  0.00    -0.202 F 
ENDBRANCH  25  27
ENDBRANCH  22  23
ENDBRANCH   3  22
TORSDOF 7
