REMARK  Name = ZINC63622952
REMARK  9 active torsions:
REMARK  status: ('A' for Active; 'I' for Inactive)
REMARK    1  A    between atoms: C_4  and  C_7
REMARK    2  A    between atoms: C_7  and  C_9
REMARK    3  A    between atoms: C_9  and  O_10
REMARK    4  A    between atoms: O_10  and  C_11
REMARK    5  A    between atoms: C_11  and  C_13
REMARK    6  A    between atoms: C_13  and  C_15
REMARK    7  A    between atoms: C_13  and  N_25
REMARK    8  A    between atoms: C_15  and  C_16
REMARK    9  A    between atoms: C_26  and  C_28
REMARK                            x       y       z     vdW  Elec       q    Type
REMARK                         _______ _______ _______ _____ _____    ______ ____
ROOT
ATOM      1  C   UNL     1       6.793  -4.368  -0.141  0.00  0.00    +0.186 C 
ENDROOT
BRANCH   1   2
ATOM      2  N   UNL     1       6.677  -5.824  -0.261  0.00  0.00    -0.302 N 
ATOM      3  C   UNL     1       7.748  -6.558  -0.621  0.00  0.00    +0.220 C 
ATOM      4  O   UNL     1       8.809  -6.013  -0.846  0.00  0.00    -0.275 OA
ATOM      5  H   UNL     1       5.829  -6.259  -0.081  0.00  0.00    +0.150 HD
BRANCH   3   6
ATOM      6  C   UNL     1       7.629  -8.055  -0.745  0.00  0.00    +0.048 C 
ATOM      7  C   UNL     1       6.575  -8.397  -1.799  0.00  0.00    +0.019 C 
ATOM      8  C   UNL     1       6.454  -9.917  -1.925  0.00  0.00    -0.009 C 
ATOM      9  C   UNL     1       7.803 -10.504  -2.343  0.00  0.00    +0.007 C 
ATOM     10  C   UNL     1       8.857 -10.162  -1.288  0.00  0.00    -0.009 C 
ATOM     11  C   UNL     1       8.979  -8.641  -1.163  0.00  0.00    +0.019 C 
ATOM     12  C   UNL     1       8.441 -10.753   0.060  0.00  0.00    +0.007 C 
ATOM     13  C   UNL     1       7.091 -10.166   0.478  0.00  0.00    -0.009 C 
ATOM     14  C   UNL     1       6.037 -10.509  -0.576  0.00  0.00    +0.007 C 
ATOM     15  C   UNL     1       7.212  -8.646   0.604  0.00  0.00    +0.019 C 
ENDBRANCH   3   6
ENDBRANCH   1   2
BRANCH   1  16
ATOM     16  C   UNL     1       5.918  -3.708  -1.175  0.00  0.00    +0.328 C 
ATOM     17  O   UNL     1       5.264  -4.383  -1.934  0.00  0.00    -0.249 OA
BRANCH  16  18
ATOM     18  O   UNL     1       5.864  -2.369  -1.252  0.00  0.00    -0.455 OA
BRANCH  18  19
ATOM     19  C   UNL     1       5.014  -1.810  -2.256  0.00  0.00    +0.311 C 
BRANCH  19  20
ATOM     20  C   UNL     1       5.083  -0.306  -2.193  0.00  0.00    +0.200 C 
ATOM     21  O   UNL     1       5.790   0.234  -1.369  0.00  0.00    -0.288 OA
BRANCH  20  25
ATOM     22  C   UNL     1       2.803   2.037  -4.896  0.00  0.00    +0.000 A 
ATOM     23  C   UNL     1       3.608   2.657  -3.956  0.00  0.00    +0.001 A 
ATOM     24  C   UNL     1       4.352   1.903  -3.074  0.00  0.00    +0.011 A 
ATOM     25  C   UNL     1       4.291   0.507  -3.130  0.00  0.00    +0.021 A 
ATOM     26  C   UNL     1       3.475  -0.113  -4.082  0.00  0.00    +0.011 A 
ATOM     27  C   UNL     1       2.737   0.655  -4.957  0.00  0.00    +0.001 A 
ENDBRANCH  20  25
ENDBRANCH  19  20
ENDBRANCH  18  19
ENDBRANCH  16  18
ENDBRANCH   1  16
BRANCH   1  28
ATOM     28  C   UNL     1       6.347  -3.935   1.257  0.00  0.00    +0.067 C 
BRANCH  28  29
ATOM     29  C   UNL     1       7.296  -4.497   2.284  0.00  0.00    -0.039 C 
ATOM     30  C   UNL     1       8.399  -3.897   2.786  0.00  0.00    -0.001 A 
ATOM     31  C   UNL     1       9.023  -2.592   2.536  0.00  0.00    +0.010 A 
ATOM     32  C   UNL     1      10.150  -2.264   3.206  0.00  0.00    +0.001 A 
ATOM     33  C   UNL     1      10.738  -3.138   4.132  0.00  0.00    +0.002 A 
ATOM     34  C   UNL     1      10.223  -4.353   4.415  0.00  0.00    +0.026 A 
ATOM     35  C   UNL     1       9.039  -4.801   3.769  0.00  0.00    +0.043 A 
ATOM     36  N   UNL     1       8.357  -5.916   3.870  0.00  0.00    -0.380 N 
ATOM     37  C   UNL     1       7.204  -5.843   2.966  0.00  0.00    +0.144 C 
ATOM     38  H   UNL     1       8.577  -6.663   4.448  0.00  0.00    +0.160 HD
ENDBRANCH  28  29
ENDBRANCH   1  28
TORSDOF 9
