REMARK  Name = ZINC39940746
REMARK  9 active torsions:
REMARK  status: ('A' for Active; 'I' for Inactive)
REMARK    1  A    between atoms: C_1  and  C_2
REMARK    2  A    between atoms: C_2  and  C_3
REMARK    3  A    between atoms: C_6  and  N_9
REMARK    4  A    between atoms: C_10  and  C_34
REMARK    5  A    between atoms: C_13  and  S_14
REMARK    6  A    between atoms: S_14  and  C_15
REMARK    7  A    between atoms: C_15  and  C_17
REMARK    8  A    between atoms: C_15  and  C_23
REMARK    9  A    between atoms: C_23  and  C_25
REMARK                            x       y       z     vdW  Elec       q    Type
REMARK                         _______ _______ _______ _____ _____    ______ ____
ROOT
ATOM      1  S   UNL     1       1.919   0.296  -6.326  0.00  0.00    -0.070 S 
ENDROOT
BRANCH   1   6
ATOM      2  N   UNL     1       2.619  -1.858  -4.682  0.00  0.00    -0.270 N 
ATOM      3  C   UNL     1       3.374  -3.003  -4.815  0.00  0.00    +0.169 A 
ATOM      4  N   UNL     1       3.854  -3.008  -6.037  0.00  0.00    -0.128 NA
ATOM      5  N   UNL     1       3.458  -1.962  -6.669  0.00  0.00    -0.122 NA
ATOM      6  C   UNL     1       2.695  -1.225  -5.891  0.00  0.00    +0.197 A 
BRANCH   2  10
ATOM      7  C   UNL     1       0.524  -0.599  -1.305  0.00  0.00    -0.047 A 
ATOM      8  C   UNL     1      -0.165  -0.998  -2.436  0.00  0.00    +0.005 A 
ATOM      9  C   UNL     1       0.526  -1.416  -3.556  0.00  0.00    +0.026 A 
ATOM     10  C   UNL     1       1.914  -1.434  -3.547  0.00  0.00    +0.051 A 
ATOM     11  C   UNL     1       2.603  -1.032  -2.410  0.00  0.00    +0.026 A 
ATOM     12  C   UNL     1       1.906  -0.611  -1.295  0.00  0.00    +0.005 A 
BRANCH   7  14
ATOM     13  C   UNL     1      -0.474   1.365  -0.167  0.00  0.00    +0.009 C 
ATOM     14  C   UNL     1      -0.234  -0.144  -0.085  0.00  0.00    +0.032 C 
ENDBRANCH   7  14
ENDBRANCH   2  10
BRANCH   3  15
ATOM     15  C   UNL     1       3.601  -4.030  -3.777  0.00  0.00    +0.022 A 
ATOM     16  C   UNL     1       2.766  -4.119  -2.657  0.00  0.00    +0.031 A 
ATOM     17  C   UNL     1       3.014  -5.093  -1.714  0.00  0.00    +0.111 A 
ATOM     18  N   UNL     1       4.022  -5.934  -1.856  0.00  0.00    -0.263 NA
ATOM     19  C   UNL     1       4.833  -5.885  -2.896  0.00  0.00    +0.111 A 
ATOM     20  C   UNL     1       4.655  -4.946  -3.890  0.00  0.00    +0.031 A 
ENDBRANCH   3  15
ENDBRANCH   1   6
BRANCH   1  21
ATOM     21  C   UNL     1       2.420   0.568  -8.048  0.00  0.00    +0.155 C 
BRANCH  21  22
ATOM     22  C   UNL     1       3.911   0.776  -8.111  0.00  0.00    -0.027 A 
ATOM     23  C   UNL     1       4.492   1.823  -7.421  0.00  0.00    +0.005 A 
ATOM     24  C   UNL     1       5.860   2.014  -7.479  0.00  0.00    +0.000 A 
ATOM     25  C   UNL     1       6.647   1.158  -8.227  0.00  0.00    +0.000 A 
ATOM     26  C   UNL     1       6.065   0.110  -8.917  0.00  0.00    +0.000 A 
ATOM     27  C   UNL     1       4.698  -0.083  -8.855  0.00  0.00    +0.005 A 
ENDBRANCH  21  22
BRANCH  21  28
ATOM     28  C   UNL     1       1.719   1.787  -8.589  0.00  0.00    +0.179 C 
ATOM     29  O   UNL     1       1.338   2.655  -7.830  0.00  0.00    -0.291 OA
BRANCH  28  30
ATOM     30  C   UNL     1       1.505   1.921  -9.977  0.00  0.00    +0.025 C 
ATOM     31  C   UNL     1       0.888   2.972 -10.631  0.00  0.00    +0.006 A 
ATOM     32  C   UNL     1       0.304   4.178 -10.177  0.00  0.00    +0.010 A 
ATOM     33  C   UNL     1      -0.241   5.046 -11.059  0.00  0.00    +0.001 A 
ATOM     34  C   UNL     1      -0.257   4.804 -12.442  0.00  0.00    +0.002 A 
ATOM     35  C   UNL     1       0.273   3.684 -12.978  0.00  0.00    +0.026 A 
ATOM     36  C   UNL     1       0.888   2.686 -12.087  0.00  0.00    +0.043 A 
ATOM     37  N   UNL     1       1.461   1.541 -12.327  0.00  0.00    -0.380 N 
ATOM     38  C   UNL     1       1.909   0.948 -11.063  0.00  0.00    +0.152 C 
ATOM     39  H   UNL     1       1.578   1.145 -13.205  0.00  0.00    +0.160 HD
ENDBRANCH  28  30
ENDBRANCH  21  28
ENDBRANCH   1  21
TORSDOF 8
