REMARK  Name = ZINC18197665
REMARK  7 active torsions:
REMARK  status: ('A' for Active; 'I' for Inactive)
REMARK    1  A    between atoms: C_1  and  O_2
REMARK    2  A    between atoms: O_2  and  C_3
REMARK    3  A    between atoms: C_6  and  O_38
REMARK    4  A    between atoms: C_7  and  C_9
REMARK    5  A    between atoms: N_15  and  C_18
REMARK    6  A    between atoms: C_30  and  C_33
REMARK    7  A    between atoms: O_38  and  C_39
REMARK                            x       y       z     vdW  Elec       q    Type
REMARK                         _______ _______ _______ _____ _____    ______ ____
ROOT
ATOM      1  C   UNL     1      -2.535  -4.173   0.016  0.00  0.00    +0.096 C 
ATOM      2  C   UNL     1      -1.838  -4.702   1.237  0.00  0.00    +0.070 A 
ATOM      3  C   UNL     1      -0.606  -5.305   1.179  0.00  0.00    +0.125 A 
ATOM      4  N   UNL     1      -0.250  -5.667   2.441  0.00  0.00    -0.277 N 
ATOM      5  H   UNL     1       0.574  -6.110   2.697  0.00  0.00    +0.189 HD
ATOM      6  N   UNL     1      -1.286  -5.283   3.308  0.00  0.00    -0.218 N 
ATOM      7  C   UNL     1      -2.253  -4.695   2.570  0.00  0.00    +0.278 A 
ATOM      8  O   UNL     1      -3.301  -4.239   2.992  0.00  0.00    -0.265 OA
ATOM      9  N   UNL     1       0.058  -5.465  -0.014  0.00  0.00    -0.303 N 
ATOM     10  C   UNL     1      -0.639  -5.290  -1.187  0.00  0.00    +0.017 C 
ATOM     11  C   UNL     1      -1.852  -4.703  -1.226  0.00  0.00    +0.024 C 
ATOM     12  C   UNL     1      -2.546  -4.558  -2.443  0.00  0.00    +0.162 C 
ATOM     13  O   UNL     1      -3.632  -4.013  -2.446  0.00  0.00    -0.292 OA
ATOM     14  C   UNL     1      -1.974  -5.061  -3.739  0.00  0.00    +0.088 C 
ATOM     15  C   UNL     1      -1.046  -6.245  -3.446  0.00  0.00    +0.039 C 
ATOM     16  C   UNL     1       0.022  -5.782  -2.455  0.00  0.00    +0.060 C 
ATOM     17  H   UNL     1       0.999  -5.696  -0.028  0.00  0.00    +0.153 HD
ENDROOT
BRANCH   1  22
ATOM     18  C   UNL     1      -1.201  -0.638   0.010  0.00  0.00    +0.121 A 
ATOM     19  C   UNL     1      -2.374   0.102   0.020  0.00  0.00    +0.049 A 
ATOM     20  C   UNL     1      -3.596  -0.542   0.028  0.00  0.00    +0.049 A 
ATOM     21  C   UNL     1      -3.650  -1.928   0.027  0.00  0.00    +0.124 A 
ATOM     22  C   UNL     1      -2.477  -2.667   0.017  0.00  0.00    +0.010 A 
ATOM     23  C   UNL     1      -1.255  -2.023   0.003  0.00  0.00    +0.053 A 
BRANCH  18  25
ATOM     24  C   UNL     1      -0.017   1.425   0.010  0.00  0.00    +0.277 C 
ATOM     25  O   UNL     1       0.002  -0.004   0.002  0.00  0.00    -0.495 OA
ENDBRANCH  18  25
BRANCH  21  26
ATOM     26  O   UNL     1      -4.853  -2.562   0.036  0.00  0.00    -0.495 OA
ATOM     27  C   UNL     1      -6.021  -1.738   0.046  0.00  0.00    +0.277 C 
ENDBRANCH  21  26
ENDBRANCH   1  22
BRANCH   6  28
ATOM     28  C   UNL     1      -1.312  -5.474   4.693  0.00  0.00    +0.067 A 
ATOM     29  C   UNL     1      -2.407  -5.049   5.434  0.00  0.00    +0.028 A 
ATOM     30  C   UNL     1      -2.429  -5.240   6.802  0.00  0.00    +0.002 A 
ATOM     31  C   UNL     1      -1.363  -5.853   7.433  0.00  0.00    +0.000 A 
ATOM     32  C   UNL     1      -0.271  -6.277   6.699  0.00  0.00    +0.002 A 
ATOM     33  C   UNL     1      -0.245  -6.095   5.330  0.00  0.00    +0.028 A 
ENDBRANCH   6  28
BRANCH  15  34
ATOM     34  C   UNL     1      -0.390  -6.704  -4.723  0.00  0.00    -0.006 A 
ATOM     35  C   UNL     1      -0.456  -7.915  -5.329  0.00  0.00    +0.011 A 
ATOM     36  C   UNL     1       0.236  -8.112  -6.509  0.00  0.00    +0.008 A 
ATOM     37  C   UNL     1       0.960  -7.089  -7.026  0.00  0.00    +0.045 A 
ATOM     38  S   UNL     1       0.669  -5.792  -5.834  0.00  0.00    -0.101 S 
ENDBRANCH  15  34
TORSDOF 5
