REMARK  Name = ZINC08685246
REMARK  7 active torsions:
REMARK  status: ('A' for Active; 'I' for Inactive)
REMARK    1  A    between atoms: C_5  and  N_7
REMARK    2  A    between atoms: N_10  and  C_13
REMARK    3  A    between atoms: C_13  and  C_15
REMARK    4  A    between atoms: C_13  and  C_30
REMARK    5  A    between atoms: C_15  and  N_16
REMARK    6  A    between atoms: N_16  and  S_17
REMARK    7  A    between atoms: S_17  and  C_20
REMARK                            x       y       z     vdW  Elec       q    Type
REMARK                         _______ _______ _______ _____ _____    ______ ____
ROOT
ATOM      1  C   UNL     1       3.223  -5.635  -0.140  0.00  0.00    +0.015 C 
ENDROOT
BRANCH   1   5
ATOM      2  N   UNL     1       1.473  -1.878  -0.712  0.00  0.00    -0.331 N 
ATOM      3  C   UNL     1       1.372  -2.464   0.633  0.00  0.00    +0.086 C 
ATOM      4  C   UNL     1       2.433  -3.561   0.766  0.00  0.00    -0.059 C 
ATOM      5  N   UNL     1       2.278  -4.527  -0.329  0.00  0.00    +0.389 N 
ATOM      6  C   UNL     1       2.546  -3.871  -1.615  0.00  0.00    -0.059 C 
ATOM      7  C   UNL     1       1.484  -2.789  -1.867  0.00  0.00    +0.086 C 
ATOM      8  H   UNL     1       1.335  -4.887  -0.326  0.00  0.00    -0.081 HD
BRANCH   2  13
ATOM      9  C   UNL     1       0.471   1.624  -1.211  0.00  0.00    +0.002 A 
ATOM     10  C   UNL     1       1.704   2.249  -1.240  0.00  0.00    +0.003 A 
ATOM     11  C   UNL     1       2.862   1.508  -1.094  0.00  0.00    +0.040 A 
ATOM     12  C   UNL     1       2.790   0.138  -0.919  0.00  0.00    +0.144 A 
ATOM     13  C   UNL     1       1.551  -0.493  -0.889  0.00  0.00    +0.065 A 
ATOM     14  C   UNL     1       0.391   0.256  -1.036  0.00  0.00    +0.026 A 
ATOM     15  F   UNL     1       3.922  -0.587  -0.776  0.00  0.00    -0.204 F 
ENDBRANCH   2  13
ENDBRANCH   1   5
BRANCH   1  16
ATOM     16  C   UNL     1       2.987  -6.273   1.205  0.00  0.00    +0.093 A 
ATOM     17  C   UNL     1       3.941  -6.703   2.050  0.00  0.00    +0.043 A 
ATOM     18  C   UNL     1       3.278  -7.227   3.183  0.00  0.00    +0.041 A 
ATOM     19  C   UNL     1       1.958  -7.087   2.963  0.00  0.00    +0.195 A 
ATOM     20  O   UNL     1       1.788  -6.503   1.766  0.00  0.00    -0.469 OA
ENDBRANCH   1  16
BRANCH   1  21
ATOM     21  C   UNL     1       3.014  -6.676  -1.241  0.00  0.00    +0.098 C 
BRANCH  21  22
ATOM     22  N   UNL     1       1.612  -7.099  -1.255  0.00  0.00    -0.191 NA
ATOM     23  H   UNL     1       1.039  -6.904  -0.496  0.00  0.00    +0.148 HD
BRANCH  22  24
ATOM     24  S   UNL     1       1.004  -7.911  -2.564  0.00  0.00    +0.058 S 
ATOM     25  O   UNL     1      -0.355  -8.202  -2.266  0.00  0.00    -0.153 OA
ATOM     26  O   UNL     1       1.390  -7.172  -3.715  0.00  0.00    -0.153 OA
BRANCH  24  27
ATOM     27  C   UNL     1       1.842  -9.458  -2.653  0.00  0.00    +0.109 A 
ATOM     28  C   UNL     1       3.013  -9.567  -3.380  0.00  0.00    +0.032 A 
ATOM     29  C   UNL     1       3.673 -10.779  -3.454  0.00  0.00    +0.051 A 
ATOM     30  C   UNL     1       3.163 -11.889  -2.797  0.00  0.00    +0.162 A 
ATOM     31  C   UNL     1       1.987 -11.779  -2.064  0.00  0.00    +0.164 A 
ATOM     32  C   UNL     1       1.332 -10.559  -1.992  0.00  0.00    +0.078 A 
ATOM     33  O   UNL     1       1.473 -12.854  -1.406  0.00  0.00    -0.485 OA
ATOM     34  C   UNL     1       1.957 -14.142  -1.801  0.00  0.00    +0.270 C 
ATOM     35  C   UNL     1       3.486 -14.070  -1.906  0.00  0.00    +0.270 C 
ATOM     36  O   UNL     1       3.822 -13.077  -2.881  0.00  0.00    -0.485 OA
ENDBRANCH  24  27
ENDBRANCH  22  24
ENDBRANCH  21  22
ENDBRANCH   1  21
TORSDOF 7
