REMARK  Name = ZINC24345928
REMARK  8 active torsions:
REMARK  status: ('A' for Active; 'I' for Inactive)
REMARK    1  A    between atoms: C_1  and  C_2
REMARK    2  A    between atoms: C_4  and  C_30
REMARK    3  A    between atoms: C_5  and  C_29
REMARK    4  A    between atoms: C_6  and  S_9
REMARK    5  A    between atoms: C_7  and  C_8
REMARK    6  A    between atoms: S_9  and  N_12
REMARK    7  A    between atoms: N_12  and  C_13
REMARK    8  A    between atoms: C_18  and  C_19
REMARK                            x       y       z     vdW  Elec       q    Type
REMARK                         _______ _______ _______ _____ _____    ______ ____
ROOT
ATOM      1  C   UNL     1       2.642  -1.489   3.579  0.00  0.00    +0.059 A 
ATOM      2  C   UNL     1       1.964  -0.532   4.321  0.00  0.00    +0.025 A 
ATOM      3  C   UNL     1       2.633   0.581   4.790  0.00  0.00    +0.002 A 
ATOM      4  C   UNL     1       3.982   0.751   4.525  0.00  0.00    +0.001 A 
ATOM      5  C   UNL     1       4.670  -0.191   3.789  0.00  0.00    +0.013 A 
ATOM      6  C   UNL     1       4.008  -1.323   3.314  0.00  0.00    +0.042 A 
ENDROOT
BRANCH   6   7
ATOM      7  C   UNL     1       4.742  -2.338   2.530  0.00  0.00    +0.166 A 
ATOM      8  N   UNL     1       4.653  -3.646   2.660  0.00  0.00    -0.129 NA
ATOM      9  N   UNL     1       5.428  -4.221   1.809  0.00  0.00    -0.134 NA
ATOM     10  C   UNL     1       6.046  -3.325   1.092  0.00  0.00    +0.134 A 
ATOM     11  N   UNL     1       5.638  -2.102   1.528  0.00  0.00    -0.311 N 
ATOM     12  C   UNL     1       6.089  -0.804   1.027  0.00  0.00    +0.125 C 
ATOM     13  C   UNL     1       6.506  -0.943  -0.440  0.00  0.00    +0.022 C 
ATOM     14  C   UNL     1       7.986  -1.317  -0.520  0.00  0.00    +0.002 C 
ATOM     15  C   UNL     1       8.238  -2.659   0.160  0.00  0.00    +0.008 C 
ATOM     16  C   UNL     1       7.027  -3.569  -0.025  0.00  0.00    +0.076 C 
ENDBRANCH   6   7
BRANCH   1  17
ATOM     17  N   UNL     1       1.968  -2.613   3.104  0.00  0.00    -0.216 N 
ATOM     18  H   UNL     1       2.445  -3.450   2.987  0.00  0.00    +0.174 HD
BRANCH  17  19
ATOM     19  S   UNL     1       0.355  -2.521   2.742  0.00  0.00    +0.073 S 
ATOM     20  O   UNL     1      -0.026  -3.800   2.255  0.00  0.00    -0.150 OA
ATOM     21  O   UNL     1       0.178  -1.333   1.982  0.00  0.00    -0.150 OA
BRANCH  19  27
ATOM     22  C   UNL     1      -0.752  -3.906   7.658  0.00  0.00    +0.044 C 
ATOM     23  C   UNL     1      -0.978  -2.961   6.506  0.00  0.00    -0.045 A 
ATOM     24  C   UNL     1      -1.861  -1.906   6.640  0.00  0.00    +0.007 A 
ATOM     25  C   UNL     1      -2.068  -1.039   5.584  0.00  0.00    -0.045 A 
ATOM     26  C   UNL     1      -1.391  -1.227   4.393  0.00  0.00    -0.021 A 
ATOM     27  C   UNL     1      -0.507  -2.281   4.259  0.00  0.00    +0.115 A 
ATOM     28  C   UNL     1      -0.297  -3.146   5.317  0.00  0.00    -0.021 A 
ATOM     29  C   UNL     1       0.671  -4.292   5.173  0.00  0.00    +0.046 C 
ATOM     30  C   UNL     1      -1.617  -0.282   3.241  0.00  0.00    +0.046 C 
ATOM     31  C   UNL     1      -3.032   0.110   5.730  0.00  0.00    +0.044 C 
ENDBRANCH  19  27
ENDBRANCH  17  19
ENDBRANCH   1  17
TORSDOF 4
