REMARK  Name = ZINC16688464
REMARK  13 active torsions:
REMARK  status: ('A' for Active; 'I' for Inactive)
REMARK    1  A    between atoms: C_1  and  C_2
REMARK    2  A    between atoms: C_2  and  O_3
REMARK    3  A    between atoms: O_3  and  C_4
REMARK    4  A    between atoms: C_6  and  C_20
REMARK    5  A    between atoms: C_9  and  O_10
REMARK    6  A    between atoms: O_10  and  C_11
REMARK    7  A    between atoms: C_11  and  C_12
REMARK    8  A    between atoms: C_20  and  N_57
REMARK    9  A    between atoms: C_21  and  C_22
REMARK   10  A    between atoms: C_21  and  N_57
REMARK   11  A    between atoms: C_22  and  N_23
REMARK   12  A    between atoms: N_23  and  C_24
REMARK   13  A    between atoms: C_27  and  N_30
REMARK                            x       y       z     vdW  Elec       q    Type
REMARK                         _______ _______ _______ _____ _____    ______ ____
ROOT
ATOM      1  C   UNL     1       6.529  -8.128   1.098  0.00  0.00    +0.164 A 
ATOM      2  C   UNL     1       5.300  -7.487   1.111  0.00  0.00    +0.051 A 
ATOM      3  C   UNL     1       4.677  -7.162  -0.080  0.00  0.00    -0.059 A 
ATOM      4  C   UNL     1       5.274  -7.480  -1.286  0.00  0.00    +0.025 A 
ATOM      5  C   UNL     1       6.503  -8.115  -1.306  0.00  0.00    +0.086 A 
ATOM      6  C   UNL     1       7.133  -8.443  -0.115  0.00  0.00    +0.181 A 
ATOM      7 CL   UNL     1       7.253  -8.506  -2.822  0.00  0.00    -0.080 Cl
ENDROOT
BRANCH   1   8
ATOM      8  O   UNL     1       7.143  -8.448   2.268  0.00  0.00    -0.489 OA
BRANCH   8  10
ATOM      9  C   UNL     1       7.301  -8.531   4.678  0.00  0.00    +0.048 C 
ATOM     10  C   UNL     1       6.463  -8.094   3.475  0.00  0.00    +0.226 C 
ENDBRANCH   8  10
ENDBRANCH   1   8
BRANCH   6  11
ATOM     11  O   UNL     1       8.339  -9.072  -0.133  0.00  0.00    -0.482 OA
BRANCH  11  12
ATOM     12  C   UNL     1       8.325 -10.501  -0.141  0.00  0.00    +0.264 C 
BRANCH  12  13
ATOM     13  C   UNL     1       9.741 -11.017  -0.160  0.00  0.00    -0.010 A 
ATOM     14  C   UNL     1      10.375 -11.251  -1.366  0.00  0.00    +0.008 A 
ATOM     15  C   UNL     1      11.675 -11.719  -1.385  0.00  0.00    +0.020 A 
ATOM     16  C   UNL     1      12.339 -11.963  -0.196  0.00  0.00    +0.041 A 
ATOM     17  C   UNL     1      11.703 -11.733   1.011  0.00  0.00    +0.020 A 
ATOM     18  C   UNL     1      10.404 -11.260   1.028  0.00  0.00    +0.008 A 
ATOM     19 CL   UNL     1      13.970 -12.556  -0.218  0.00  0.00    -0.084 Cl
ENDBRANCH  12  13
ENDBRANCH  11  12
ENDBRANCH   6  11
BRANCH   3  20
ATOM     20  C   UNL     1       3.341  -6.466  -0.063  0.00  0.00    -0.047 C 
BRANCH  20  21
ATOM     21  N   UNL     1       3.556  -5.006  -0.058  0.00  0.00    +0.383 N 
ATOM     22  H   UNL     1       4.079  -4.739  -0.900  0.00  0.00    -0.085 HD
ATOM     23  H   UNL     1       4.095  -4.747   0.777  0.00  0.00    -0.085 HD
BRANCH  21  24
ATOM     24  C   UNL     1       2.263  -4.298  -0.042  0.00  0.00    -0.063 C 
BRANCH  24  25
ATOM     25  C   UNL     1       2.518  -2.789  -0.037  0.00  0.00    +0.082 C 
BRANCH  25  26
ATOM     26  N   UNL     1       1.238  -2.077  -0.021  0.00  0.00    -0.346 N 
ATOM     27  H   UNL     1       0.406  -2.576  -0.015  0.00  0.00    +0.146 HD
BRANCH  26  28
ATOM     28  C   UNL     1       1.215  -0.681  -0.013  0.00  0.00    +0.027 A 
ATOM     29  C   UNL     1       0.002  -0.004   0.002  0.00  0.00    +0.025 A 
ATOM     30  C   UNL     1      -0.017   1.377   0.010  0.00  0.00    +0.034 A 
ATOM     31  C   UNL     1       1.171   2.086   0.002  0.00  0.00    +0.126 A 
ATOM     32  C   UNL     1       2.380   1.416  -0.013  0.00  0.00    +0.034 A 
ATOM     33  C   UNL     1       2.406   0.035  -0.021  0.00  0.00    +0.025 A 
BRANCH  31  34
ATOM     34  N   UNL     1       1.147   3.566   0.010  0.00  0.00    +0.056 N 
ATOM     35  O   UNL     1       0.082   4.158   0.023  0.00  0.00    -0.126 OA
ATOM     36  O   UNL     1       2.191   4.192   0.003  0.00  0.00    -0.126 OA
ENDBRANCH  31  34
ENDBRANCH  26  28
ENDBRANCH  25  26
ENDBRANCH  24  25
ENDBRANCH  21  24
ENDBRANCH  20  21
ENDBRANCH   3  20
TORSDOF 12
