REMARK  Name = ZINC10603812
REMARK  11 active torsions:
REMARK  status: ('A' for Active; 'I' for Inactive)
REMARK    1  A    between atoms: C_1  and  N_2
REMARK    2  A    between atoms: N_2  and  C_3
REMARK    3  A    between atoms: C_3  and  C_4
REMARK    4  A    between atoms: C_10  and  C_12
REMARK    5  A    between atoms: C_12  and  O_13
REMARK    6  A    between atoms: O_13  and  C_14
REMARK    7  A    between atoms: C_14  and  C_16
REMARK    8  A    between atoms: C_21  and  N_22
REMARK    9  A    between atoms: N_22  and  S_23
REMARK   10  A    between atoms: S_23  and  C_26
REMARK   11  A    between atoms: C_30  and  N_32
REMARK                            x       y       z     vdW  Elec       q    Type
REMARK                         _______ _______ _______ _____ _____    ______ ____
ROOT
ATOM      1  C   UNL     1      -0.884   5.357  -3.714  0.00  0.00    +0.081 A 
ATOM      2  C   UNL     1      -1.944   4.977  -4.541  0.00  0.00    +0.017 A 
ATOM      3  C   UNL     1      -3.230   4.961  -4.047  0.00  0.00    +0.001 A 
ATOM      4  C   UNL     1      -3.479   5.320  -2.731  0.00  0.00    +0.002 A 
ATOM      5  C   UNL     1      -2.443   5.692  -1.900  0.00  0.00    +0.025 A 
ATOM      6  C   UNL     1      -1.140   5.720  -2.382  0.00  0.00    +0.062 A 
ENDROOT
BRANCH   1   7
ATOM      7  C   UNL     1       0.494   5.377  -4.236  0.00  0.00    +0.341 C 
ATOM      8  O   UNL     1       1.413   5.707  -3.513  0.00  0.00    -0.245 OA
BRANCH   7   9
ATOM      9  O   UNL     1       0.735   5.027  -5.515  0.00  0.00    -0.452 OA
BRANCH   9  10
ATOM     10  C   UNL     1       2.116   5.069  -5.961  0.00  0.00    +0.328 C 
BRANCH  10  13
ATOM     11  C   UNL     1       4.602   4.981  -7.317  0.00  0.00    +0.132 C 
ATOM     12  N   UNL     1       3.380   4.613  -8.037  0.00  0.00    -0.297 N 
ATOM     13  C   UNL     1       2.190   4.650  -7.406  0.00  0.00    +0.253 C 
ATOM     14  O   UNL     1       1.178   4.346  -8.002  0.00  0.00    -0.272 OA
BRANCH  12  15
ATOM     15  C   UNL     1       3.452   4.205  -9.442  0.00  0.00    +0.142 C 
BRANCH  15  16
ATOM     16  C   UNL     1       3.306   5.418 -10.325  0.00  0.00    -0.030 A 
ATOM     17  C   UNL     1       2.053   5.816 -10.751  0.00  0.00    +0.005 A 
ATOM     18  C   UNL     1       1.918   6.931 -11.557  0.00  0.00    +0.000 A 
ATOM     19  C   UNL     1       3.038   7.642 -11.945  0.00  0.00    +0.000 A 
ATOM     20  C   UNL     1       4.292   7.240 -11.524  0.00  0.00    +0.000 A 
ATOM     21  C   UNL     1       4.426   6.129 -10.714  0.00  0.00    +0.005 A 
ENDBRANCH  15  16
ENDBRANCH  12  15
ENDBRANCH  10  13
ENDBRANCH   9  10
ENDBRANCH   7   9
ENDBRANCH   1   7
BRANCH   6  22
ATOM     22  N   UNL     1      -0.096   6.099  -1.549  0.00  0.00    -0.215 N 
ATOM     23  H   UNL     1       0.650   6.606  -1.906  0.00  0.00    +0.174 HD
BRANCH  22  24
ATOM     24  S   UNL     1      -0.124   5.686   0.055  0.00  0.00    +0.072 S 
ATOM     25  O   UNL     1      -1.367   6.143   0.570  0.00  0.00    -0.150 OA
ATOM     26  O   UNL     1       1.123   6.092   0.601  0.00  0.00    -0.150 OA
BRANCH  24  27
ATOM     27  C   UNL     1      -0.161   3.926   0.138  0.00  0.00    +0.111 A 
ATOM     28  C   UNL     1       1.021   3.211   0.186  0.00  0.00    +0.029 A 
ATOM     29  C   UNL     1       0.992   1.831   0.251  0.00  0.00    +0.004 A 
ATOM     30  C   UNL     1      -0.220   1.165   0.269  0.00  0.00    +0.033 A 
ATOM     31  C   UNL     1      -1.402   1.880   0.216  0.00  0.00    +0.128 A 
ATOM     32  C   UNL     1      -1.373   3.260   0.156  0.00  0.00    +0.061 A 
BRANCH  31  33
ATOM     33  N   UNL     1      -2.699   1.167   0.229  0.00  0.00    +0.056 N 
ATOM     34  O   UNL     1      -2.725  -0.050   0.286  0.00  0.00    -0.126 OA
ATOM     35  O   UNL     1      -3.740   1.796   0.182  0.00  0.00    -0.126 OA
ENDBRANCH  31  33
ENDBRANCH  24  27
ENDBRANCH  22  24
ENDBRANCH   6  22
TORSDOF 10
