REMARK  Name = ZINC40975370
REMARK  8 active torsions:
REMARK  status: ('A' for Active; 'I' for Inactive)
REMARK    1  A    between atoms: C_1  and  C_2
REMARK    2  A    between atoms: C_2  and  C_3
REMARK    3  A    between atoms: C_3  and  C_5
REMARK    4  A    between atoms: C_3  and  C_6
REMARK    5  A    between atoms: C_6  and  N_7
REMARK    6  A    between atoms: C_10  and  C_13
REMARK    7  A    between atoms: C_20  and  C_29
REMARK    8  A    between atoms: C_21  and  C_22
REMARK                            x       y       z     vdW  Elec       q    Type
REMARK                         _______ _______ _______ _____ _____    ______ ____
ROOT
ATOM      1  C   UNL     1      -6.667  -3.866  -0.432  0.00  0.00    -0.040 A 
ATOM      2  C   UNL     1      -7.374  -3.137   0.537  0.00  0.00    +0.022 A 
ATOM      3  C   UNL     1      -8.700  -3.334   0.702  0.00  0.00    +0.093 A 
ATOM      4  N   UNL     1      -9.369  -4.238  -0.067  0.00  0.00    -0.297 N 
ATOM      5  C   UNL     1      -8.709  -4.965  -1.021  0.00  0.00    +0.139 A 
ATOM      6  C   UNL     1      -7.326  -4.769  -1.210  0.00  0.00    +0.050 A 
ATOM      7  N   UNL     1      -9.578  -5.767  -1.625  0.00  0.00    -0.227 NA
ATOM      8  C   UNL     1     -10.793  -5.591  -1.097  0.00  0.00    +0.099 A 
ATOM      9  C   UNL     1     -10.692  -4.625  -0.103  0.00  0.00    +0.100 A 
ENDROOT
BRANCH   9  10
ATOM     10  C   UNL     1     -11.781  -4.115   0.743  0.00  0.00    +0.095 A 
ATOM     11  C   UNL     1     -11.507  -3.559   2.002  0.00  0.00    +0.050 A 
ATOM     12  C   UNL     1     -12.563  -3.094   2.759  0.00  0.00    +0.116 A 
ATOM     13  N   UNL     1     -13.795  -3.184   2.279  0.00  0.00    -0.223 NA
ATOM     14  C   UNL     1     -14.029  -3.712   1.086  0.00  0.00    +0.213 A 
ATOM     15  N   UNL     1     -13.048  -4.167   0.323  0.00  0.00    -0.213 NA
ATOM     16  N   UNL     1     -15.332  -3.786   0.625  0.00  0.00    -0.327 N 
ATOM     17  H   UNL     1     -16.059  -3.453   1.173  0.00  0.00    +0.145 HD
ATOM     18  H   UNL     1     -15.517  -4.170  -0.246  0.00  0.00    +0.145 HD
ENDBRANCH   9  10
BRANCH   1  22
ATOM     19  N   UNL     1      -2.784  -2.245   0.191  0.00  0.00    +0.380 N 
ATOM     20  C   UNL     1      -3.422  -1.947  -1.097  0.00  0.00    -0.078 C 
ATOM     21  C   UNL     1      -4.931  -2.183  -0.990  0.00  0.00    -0.011 C 
ATOM     22  C   UNL     1      -5.188  -3.646  -0.616  0.00  0.00    +0.016 C 
ATOM     23  C   UNL     1      -4.456  -3.965   0.691  0.00  0.00    -0.011 C 
ATOM     24  C   UNL     1      -2.966  -3.663   0.521  0.00  0.00    -0.078 C 
ATOM     25  H   UNL     1      -3.204  -1.676   0.911  0.00  0.00    -0.082 HD
BRANCH  19  26
ATOM     26  C   UNL     1      -1.349  -1.943   0.106  0.00  0.00    -0.076 C 
BRANCH  26  27
ATOM     27  C   UNL     1      -0.712  -2.100   1.488  0.00  0.00    -0.031 C 
ATOM     28  C   UNL     1      -1.289  -1.048   2.438  0.00  0.00    +0.005 C 
BRANCH  27  30
ATOM     29  C   UNL     1       1.452  -2.191   2.733  0.00  0.00    +0.004 C 
ATOM     30  C   UNL     1       0.802  -1.911   1.377  0.00  0.00    -0.002 C 
ENDBRANCH  27  30
ENDBRANCH  26  27
ENDBRANCH  19  26
ENDBRANCH   1  22
BRANCH   8  31
ATOM     31  C   UNL     1     -12.029  -6.301  -1.501  0.00  0.00    +0.003 A 
ATOM     32  C   UNL     1     -12.996  -6.619  -0.547  0.00  0.00    +0.013 A 
ATOM     33  C   UNL     1     -14.145  -7.280  -0.928  0.00  0.00    +0.039 A 
ATOM     34  C   UNL     1     -14.341  -7.627  -2.255  0.00  0.00    +0.123 A 
ATOM     35  C   UNL     1     -13.383  -7.313  -3.206  0.00  0.00    +0.039 A 
ATOM     36  C   UNL     1     -12.233  -6.648  -2.836  0.00  0.00    +0.013 A 
ATOM     37  F   UNL     1     -15.468  -8.274  -2.622  0.00  0.00    -0.205 F 
ENDBRANCH   8  31
TORSDOF 6
