REMARK  Name = ZINC36573577
REMARK  16 active torsions:
REMARK  status: ('A' for Active; 'I' for Inactive)
REMARK    1  A    between atoms: C_1  and  C_2
REMARK    2  A    between atoms: C_2  and  C_3
REMARK    3  A    between atoms: C_3  and  N_4
REMARK    4  A    between atoms: N_4  and  C_5
REMARK    5  A    between atoms: C_5  and  C_7
REMARK    6  A    between atoms: C_5  and  C_16
REMARK    7  A    between atoms: C_8  and  O_15
REMARK    8  A    between atoms: C_10  and  O_14
REMARK    9  A    between atoms: C_12  and  O_13
REMARK   10  A    between atoms: N_18  and  C_19
REMARK   11  A    between atoms: C_19  and  C_20
REMARK   12  A    between atoms: C_19  and  C_21
REMARK   13  A    between atoms: C_19  and  C_22
REMARK   14  A    between atoms: C_23  and  C_25
REMARK   15  A    between atoms: C_26  and  C_27
REMARK   16  A    between atoms: C_26  and  C_28
REMARK                            x       y       z     vdW  Elec       q    Type
REMARK                         _______ _______ _______ _____ _____    ______ ____
ROOT
ATOM      1  C   UNL     1      -2.604  -1.575   1.407  0.00  0.00    +0.199 C 
ENDROOT
BRANCH   1   2
ATOM      2  C   UNL     1      -3.898  -1.046   1.969  0.00  0.00    +0.065 A 
ATOM      3  C   UNL     1      -4.834  -1.923   2.498  0.00  0.00    +0.129 A 
ATOM      4  C   UNL     1      -6.025  -1.436   3.015  0.00  0.00    +0.091 A 
ATOM      5  C   UNL     1      -6.281  -0.073   3.003  0.00  0.00    +0.124 A 
ATOM      6  C   UNL     1      -5.345   0.803   2.475  0.00  0.00    +0.091 A 
ATOM      7  C   UNL     1      -4.152   0.317   1.962  0.00  0.00    +0.129 A 
BRANCH   7   8
ATOM      8  O   UNL     1      -3.233   1.176   1.448  0.00  0.00    -0.506 OA
ATOM      9  H   UNL     1      -3.343   1.351   0.503  0.00  0.00    +0.292 HD
ENDBRANCH   7   8
BRANCH   5  10
ATOM     10  O   UNL     1      -7.449   0.403   3.509  0.00  0.00    -0.507 OA
ATOM     11  H   UNL     1      -7.410   0.619   4.451  0.00  0.00    +0.292 HD
ENDBRANCH   5  10
BRANCH   3  12
ATOM     12  O   UNL     1      -4.583  -3.259   2.510  0.00  0.00    -0.506 OA
ATOM     13  H   UNL     1      -4.204  -3.580   3.339  0.00  0.00    +0.292 HD
ENDBRANCH   3  12
ENDBRANCH   1   2
BRANCH   1  14
ATOM     14  C   UNL     1      -1.480  -1.275   2.366  0.00  0.00    +0.239 C 
ATOM     15  O   UNL     1      -0.514  -0.645   1.990  0.00  0.00    -0.273 OA
ATOM     16  N   UNL     1      -1.549  -1.706   3.641  0.00  0.00    -0.309 N 
ATOM     17  H   UNL     1      -2.322  -2.209   3.942  0.00  0.00    +0.149 HD
BRANCH  16  18
ATOM     18  C   UNL     1      -0.457  -1.414   4.573  0.00  0.00    +0.026 C 
ATOM     19  C   UNL     1      -0.289   0.101   4.703  0.00  0.00    +0.031 C 
ATOM     20  C   UNL     1      -0.783  -2.011   5.943  0.00  0.00    +0.031 C 
ATOM     21  C   UNL     1       0.841  -2.027   4.045  0.00  0.00    +0.031 C 
ENDBRANCH  16  18
ENDBRANCH   1  14
BRANCH   1  22
ATOM     22  N   UNL     1      -2.332  -0.932   0.119  0.00  0.00    -0.282 N 
ATOM     23  C   UNL     1      -2.928  -1.388  -1.001  0.00  0.00    +0.240 C 
ATOM     24  O   UNL     1      -3.691  -2.333  -0.942  0.00  0.00    -0.271 OA
BRANCH  23  25
ATOM     25  C   UNL     1      -2.655  -0.742  -2.294  0.00  0.00    +0.066 C 
ATOM     26  C   UNL     1      -3.205  -1.221  -3.406  0.00  0.00    -0.071 C 
ATOM     27  C   UNL     1      -3.874  -2.571  -3.394  0.00  0.00    +0.039 C 
ATOM     28  C   UNL     1      -3.161  -0.413  -4.677  0.00  0.00    +0.039 C 
ENDBRANCH  23  25
BRANCH  22  29
ATOM     29  C   UNL     1      -1.412   0.206   0.048  0.00  0.00    +0.109 C 
BRANCH  29  31
ATOM     30  C   UNL     1       0.966   0.878  -0.321  0.00  0.00    +0.005 C 
ATOM     31  C   UNL     1      -0.029  -0.282  -0.387  0.00  0.00    +0.016 C 
ENDBRANCH  29  31
ENDBRANCH  22  29
ENDBRANCH   1  22
TORSDOF 10
