REMARK  Name = ZINC39678379
REMARK  7 active torsions:
REMARK  status: ('A' for Active; 'I' for Inactive)
REMARK    1  A    between atoms: C_1  and  C_2
REMARK    2  A    between atoms: C_3  and  C_8
REMARK    3  A    between atoms: C_4  and  C_7
REMARK    4  A    between atoms: C_12  and  C_21
REMARK    5  A    between atoms: N_23  and  C_24
REMARK    6  A    between atoms: C_24  and  C_25
REMARK    7  A    between atoms: C_30  and  N_31
REMARK                            x       y       z     vdW  Elec       q    Type
REMARK                         _______ _______ _______ _____ _____    ______ ____
ROOT
ATOM      1  C   UNL     1      -0.268  -0.503  -2.318  0.00  0.00    +0.252 C 
ATOM      2  O   UNL     1       0.682  -0.455  -3.076  0.00  0.00    -0.270 OA
ATOM      3  N   UNL     1      -1.512  -0.265  -2.780  0.00  0.00    -0.296 N 
ATOM      4  C   UNL     1      -2.768  -0.168  -2.000  0.00  0.00    +0.121 C 
ATOM      5  C   UNL     1      -3.551   0.987  -2.663  0.00  0.00    +0.100 C 
ATOM      6  C   UNL     1      -2.999   1.063  -4.096  0.00  0.00    -0.004 C 
ATOM      7  C   UNL     1      -1.931  -0.036  -4.184  0.00  0.00    +0.115 C 
ATOM      8  C   UNL     1      -2.365   2.428  -4.346  0.00  0.00    -0.010 C 
ATOM      9  C   UNL     1      -1.875   2.500  -5.795  0.00  0.00    -0.082 C 
ATOM     10  N   UNL     1      -3.006   2.289  -6.707  0.00  0.00    +0.379 N 
ATOM     11  C   UNL     1      -3.552   0.939  -6.524  0.00  0.00    -0.082 C 
ATOM     12  C   UNL     1      -4.113   0.801  -5.106  0.00  0.00    -0.010 C 
ATOM     13  H   UNL     1      -3.724   2.971  -6.513  0.00  0.00    -0.086 HD
ATOM     14  H   UNL     1      -2.692   2.398  -7.660  0.00  0.00    -0.086 HD
ENDROOT
BRANCH   1  17
ATOM     15  C   UNL     1       0.571   1.595   0.001  0.00  0.00    +0.070 C 
ATOM     16  C   UNL     1       0.319   0.119   0.163  0.00  0.00    +0.093 A 
ATOM     17  C   UNL     1      -0.059  -0.820  -0.894  0.00  0.00    +0.101 A 
ATOM     18  C   UNL     1      -0.183  -2.047  -0.307  0.00  0.00    +0.147 A 
ATOM     19  O   UNL     1       0.088  -1.913   0.994  0.00  0.00    -0.359 OA
ATOM     20  N   UNL     1       0.403  -0.562   1.268  0.00  0.00    -0.083 NA
ATOM     21  C   UNL     1      -0.559  -3.329  -1.005  0.00  0.00    +0.090 C 
ENDBRANCH   1  17
BRANCH   5  22
ATOM     22  C   UNL     1      -3.298   2.280  -1.931  0.00  0.00    +0.218 C 
ATOM     23  O   UNL     1      -2.273   2.429  -1.299  0.00  0.00    -0.275 OA
ATOM     24  N   UNL     1      -4.210   3.271  -1.979  0.00  0.00    -0.311 N 
ATOM     25  H   UNL     1      -5.060   3.127  -2.423  0.00  0.00    +0.149 HD
BRANCH  24  26
ATOM     26  C   UNL     1      -3.917   4.567  -1.361  0.00  0.00    +0.141 C 
BRANCH  26  27
ATOM     27  C   UNL     1      -5.134   5.451  -1.447  0.00  0.00    -0.009 A 
ATOM     28  C   UNL     1      -5.209   6.432  -2.417  0.00  0.00    +0.007 A 
ATOM     29  C   UNL     1      -6.325   7.244  -2.496  0.00  0.00    +0.000 A 
ATOM     30  C   UNL     1      -7.370   7.077  -1.605  0.00  0.00    +0.002 A 
ATOM     31  C   UNL     1      -7.302   6.098  -0.634  0.00  0.00    +0.023 A 
ATOM     32  C   UNL     1      -6.184   5.277  -0.555  0.00  0.00    +0.034 A 
BRANCH  32  33
ATOM     33  N   UNL     1      -6.114   4.283   0.424  0.00  0.00    -0.330 N 
ATOM     34  C   UNL     1      -5.629   4.595   1.775  0.00  0.00    +0.105 C 
ATOM     35  C   UNL     1      -6.675   4.130   2.793  0.00  0.00    +0.019 C 
ATOM     36  C   UNL     1      -6.982   2.648   2.562  0.00  0.00    +0.003 C 
ATOM     37  C   UNL     1      -7.559   2.458   1.157  0.00  0.00    +0.019 C 
ATOM     38  C   UNL     1      -6.529   2.906   0.122  0.00  0.00    +0.105 C 
ENDBRANCH  32  33
ENDBRANCH  26  27
ENDBRANCH  24  26
ENDBRANCH   5  22
TORSDOF 5
