REMARK  Name = ZINC12532447
REMARK  9 active torsions:
REMARK  status: ('A' for Active; 'I' for Inactive)
REMARK    1  A    between atoms: C_1  and  C_2
REMARK    2  A    between atoms: C_2  and  N_3
REMARK    3  A    between atoms: C_7  and  S_26
REMARK    4  A    between atoms: C_11  and  C_12
REMARK    5  A    between atoms: C_12  and  N_67
REMARK    6  A    between atoms: C_13  and  C_15
REMARK    7  A    between atoms: C_13  and  C_16
REMARK    8  A    between atoms: C_13  and  N_67
REMARK    9  A    between atoms: S_26  and  N_29
REMARK                            x       y       z     vdW  Elec       q    Type
REMARK                         _______ _______ _______ _____ _____    ______ ____
ROOT
ATOM      1  N   UNL     1       2.116   2.262  -1.121  0.00  0.00    -0.329 N 
ATOM      2  C   UNL     1       3.354   2.716  -0.712  0.00  0.00    +0.069 A 
ATOM      3  C   UNL     1       4.496   3.143  -1.377  0.00  0.00    +0.030 A 
ATOM      4  C   UNL     1       5.598   3.545  -0.653  0.00  0.00    +0.030 A 
ATOM      5  C   UNL     1       5.574   3.524   0.735  0.00  0.00    +0.108 A 
ATOM      6  C   UNL     1       4.459   3.107   1.406  0.00  0.00    +0.058 A 
ATOM      7  C   UNL     1       3.330   2.695   0.693  0.00  0.00    +0.091 A 
ATOM      8  N   UNL     1       2.103   2.244   1.060  0.00  0.00    -0.234 NA
ATOM      9  C   UNL     1       1.396   1.986  -0.001  0.00  0.00    +0.094 A 
ENDROOT
BRANCH   5  10
ATOM     10  S   UNL     1       6.994   4.041   1.640  0.00  0.00    +0.061 S 
ATOM     11  O   UNL     1       6.915   3.414   2.912  0.00  0.00    -0.153 OA
ATOM     12  O   UNL     1       8.110   3.873   0.775  0.00  0.00    -0.153 OA
BRANCH  10  13
ATOM     13  N   UNL     1       6.841   5.668   1.904  0.00  0.00    -0.172 NA
ATOM     14  C   UNL     1       7.381   6.646   0.945  0.00  0.00    +0.137 C 
ATOM     15  C   UNL     1       6.270   7.655   0.613  0.00  0.00    +0.177 C 
ATOM     16  O   UNL     1       5.740   8.186   1.830  0.00  0.00    -0.377 OA
ATOM     17  C   UNL     1       5.119   7.212   2.672  0.00  0.00    +0.177 C 
ATOM     18  C   UNL     1       6.166   6.180   3.107  0.00  0.00    +0.137 C 
ENDBRANCH  10  13
ENDBRANCH   5  10
BRANCH   1  20
ATOM     19  C   UNL     1       1.005   3.406  -2.975  0.00  0.00    +0.027 C 
ATOM     20  C   UNL     1       1.663   2.107  -2.505  0.00  0.00    +0.120 C 
ENDBRANCH   1  20
BRANCH   9  21
ATOM     21  C   UNL     1      -0.018   1.465   0.010  0.00  0.00    -0.006 C 
BRANCH  21  22
ATOM     22  N   UNL     1       0.011  -0.010   0.002  0.00  0.00    +0.388 N 
ATOM     23  H   UNL     1       0.512  -0.344   0.834  0.00  0.00    -0.084 HD
ATOM     24  H   UNL     1       0.496  -0.335  -0.843  0.00  0.00    -0.084 HD
BRANCH  22  25
ATOM     25  C   UNL     1      -1.362  -0.549   0.012  0.00  0.00    -0.043 C 
ATOM     26  C   UNL     1      -1.896  -0.614  -1.420  0.00  0.00    -0.009 C 
BRANCH  25  27
ATOM     27  C   UNL     1      -1.345  -1.935   0.605  0.00  0.00    -0.061 A 
ATOM     28  C   UNL     1      -0.320  -2.809   0.295  0.00  0.00    +0.002 A 
ATOM     29  C   UNL     1      -0.310  -4.074   0.844  0.00  0.00    +0.004 A 
ATOM     30  C   UNL     1      -1.328  -4.482   1.697  0.00  0.00    -0.044 A 
ATOM     31  C   UNL     1      -2.349  -3.612   2.004  0.00  0.00    -0.044 A 
ATOM     32  C   UNL     1      -2.355  -2.336   1.455  0.00  0.00    +0.006 A 
ATOM     33  C   UNL     1      -3.479  -3.982   2.929  0.00  0.00    +0.035 C 
ATOM     34  C   UNL     1      -3.564  -5.498   3.093  0.00  0.00    +0.005 C 
ATOM     35  C   UNL     1      -2.173  -6.023   3.467  0.00  0.00    +0.005 C 
ATOM     36  C   UNL     1      -1.262  -5.882   2.249  0.00  0.00    +0.035 C 
ENDBRANCH  25  27
ENDBRANCH  22  25
ENDBRANCH  21  22
ENDBRANCH   9  21
TORSDOF 7
