REMARK  Name = ZINC36207934
REMARK  11 active torsions:
REMARK  status: ('A' for Active; 'I' for Inactive)
REMARK    1  A    between atoms: C_2  and  C_3
REMARK    2  A    between atoms: C_3  and  O_4
REMARK    3  A    between atoms: O_4  and  C_5
REMARK    4  A    between atoms: C_5  and  C_6
REMARK    5  A    between atoms: C_6  and  C_8
REMARK    6  A    between atoms: C_6  and  O_35
REMARK    7  A    between atoms: C_8  and  N_9
REMARK    8  A    between atoms: N_9  and  C_10
REMARK    9  A    between atoms: N_9  and  C_29
REMARK   10  A    between atoms: C_10  and  C_11
REMARK   11  A    between atoms: C_17  and  C_22
REMARK                            x       y       z     vdW  Elec       q    Type
REMARK                         _______ _______ _______ _____ _____    ______ ____
ROOT
ATOM      1  C   UNL     1       4.612  -6.458   3.045  0.00  0.00    -0.003 C 
ENDROOT
BRANCH   1   2
ATOM      2  C   UNL     1       4.466  -7.534   4.090  0.00  0.00    +0.094 A 
ATOM      3  N   UNL     1       5.512  -8.360   4.348  0.00  0.00    -0.312 N 
ATOM      4  H   UNL     1       6.340  -8.247   3.856  0.00  0.00    +0.170 HD
ATOM      5  C   UNL     1       5.423  -9.333   5.274  0.00  0.00    +0.260 A 
ATOM      6  O   UNL     1       6.372 -10.067   5.494  0.00  0.00    -0.267 OA
ATOM      7  C   UNL     1       4.198  -9.493   5.996  0.00  0.00    +0.080 A 
ATOM      8  C   UNL     1       3.858 -10.460   7.034  0.00  0.00    +0.004 A 
ATOM      9  C   UNL     1       2.620 -10.419   7.581  0.00  0.00    +0.056 A 
ATOM     10  S   UNL     1       1.833  -9.068   6.724  0.00  0.00    -0.076 S 
ATOM     11  C   UNL     1       3.173  -8.594   5.662  0.00  0.00    +0.116 A 
ATOM     12  N   UNL     1       3.338  -7.652   4.737  0.00  0.00    -0.229 NA
BRANCH   8  13
ATOM     13  C   UNL     1       4.849 -11.467   7.481  0.00  0.00    -0.015 A 
ATOM     14  C   UNL     1       5.534 -12.240   6.544  0.00  0.00    +0.008 A 
ATOM     15  C   UNL     1       6.455 -13.176   6.966  0.00  0.00    +0.002 A 
ATOM     16  C   UNL     1       6.701 -13.350   8.316  0.00  0.00    +0.020 A 
ATOM     17  C   UNL     1       6.025 -12.586   9.252  0.00  0.00    +0.042 A 
ATOM     18  C   UNL     1       5.105 -11.641   8.841  0.00  0.00    +0.028 A 
ATOM     19 CL   UNL     1       6.340 -12.810  10.944  0.00  0.00    -0.084 Cl
ENDBRANCH   8  13
ENDBRANCH   1   2
BRANCH   1  20
ATOM     20  N   UNL     1       3.426  -5.592   3.065  0.00  0.00    +0.388 N 
ATOM     21  H   UNL     1       2.606  -6.150   3.250  0.00  0.00    -0.081 HD
BRANCH  20  22
ATOM     22  C   UNL     1       3.577  -4.578   4.117  0.00  0.00    -0.068 C 
ATOM     23  C   UNL     1       4.767  -3.675   3.787  0.00  0.00    -0.015 C 
ATOM     24  C   UNL     1       4.924  -2.619   4.883  0.00  0.00    -0.002 C 
ATOM     25  C   UNL     1       5.166  -3.310   6.226  0.00  0.00    -0.000 C 
ATOM     26  C   UNL     1       3.977  -4.214   6.556  0.00  0.00    -0.002 C 
ATOM     27  C   UNL     1       3.819  -5.270   5.460  0.00  0.00    -0.015 C 
ENDBRANCH  20  22
BRANCH  20  28
ATOM     28  C   UNL     1       3.283  -4.928   1.762  0.00  0.00    -0.044 C 
BRANCH  28  29
ATOM     29  C   UNL     1       1.949  -4.180   1.715  0.00  0.00    +0.124 C 
BRANCH  29  30
ATOM     30  O   UNL     1       1.992  -3.072   2.615  0.00  0.00    -0.391 OA
ATOM     31  H   UNL     1       2.630  -2.389   2.368  0.00  0.00    +0.210 HD
ENDBRANCH  29  30
BRANCH  29  32
ATOM     32  C   UNL     1       1.698  -3.673   0.293  0.00  0.00    +0.189 C 
BRANCH  32  33
ATOM     33  O   UNL     1       0.402  -3.077   0.222  0.00  0.00    -0.373 OA
BRANCH  33  34
ATOM     34  C   UNL     1       0.067  -2.568  -1.071  0.00  0.00    +0.186 C 
BRANCH  34  36
ATOM     35  C   UNL     1      -1.538  -0.804  -1.593  0.00  0.00    +0.006 C 
ATOM     36  C   UNL     1      -1.314  -1.966  -1.031  0.00  0.00    -0.007 C 
ENDBRANCH  34  36
ENDBRANCH  33  34
ENDBRANCH  32  33
ENDBRANCH  29  32
ENDBRANCH  28  29
ENDBRANCH  20  28
ENDBRANCH   1  20
TORSDOF 11
