REMARK  Name = ZINC07985302
REMARK  10 active torsions:
REMARK  status: ('A' for Active; 'I' for Inactive)
REMARK    1  A    between atoms: C_1  and  C_2
REMARK    2  A    between atoms: C_5  and  C_30
REMARK    3  A    between atoms: C_6  and  N_8
REMARK    4  A    between atoms: C_10  and  C_14
REMARK    5  A    between atoms: C_11  and  C_13
REMARK    6  A    between atoms: C_14  and  N_55
REMARK    7  A    between atoms: C_15  and  C_17
REMARK    8  A    between atoms: C_15  and  C_18
REMARK    9  A    between atoms: C_15  and  N_55
REMARK   10  A    between atoms: C_21  and  N_24
REMARK                            x       y       z     vdW  Elec       q    Type
REMARK                         _______ _______ _______ _____ _____    ______ ____
ROOT
ATOM      1  C   UNL     1       2.220  -7.766  -1.010  0.00  0.00    -0.041 C 
ENDROOT
BRANCH   1   4
ATOM      2  N   UNL     1       0.907  -9.377  -4.015  0.00  0.00    -0.221 N 
ATOM      3  C   UNL     1       1.596  -8.377  -3.407  0.00  0.00    +0.134 A 
ATOM      4  C   UNL     1       1.578  -8.618  -2.075  0.00  0.00    -0.005 A 
ATOM      5  C   UNL     1       0.863  -9.802  -1.861  0.00  0.00    +0.063 A 
ATOM      6  N   UNL     1       0.456 -10.254  -3.019  0.00  0.00    -0.170 NA
ATOM      7  C   UNL     1       0.602 -10.445  -0.523  0.00  0.00    +0.068 C 
ATOM      8 CL   UNL     1       2.360  -7.032  -4.195  0.00  0.00    -0.062 Cl
BRANCH   2  14
ATOM      9  C   UNL     1      -0.478  -7.380  -8.291  0.00  0.00    +0.044 C 
ATOM     10  C   UNL     1       0.014  -8.556  -7.489  0.00  0.00    -0.048 A 
ATOM     11  C   UNL     1       0.249  -9.768  -8.113  0.00  0.00    +0.004 A 
ATOM     12  C   UNL     1       0.701 -10.850  -7.380  0.00  0.00    +0.006 A 
ATOM     13  C   UNL     1       0.925 -10.722  -6.023  0.00  0.00    -0.025 A 
ATOM     14  C   UNL     1       0.685  -9.509  -5.393  0.00  0.00    +0.070 A 
ATOM     15  C   UNL     1       0.231  -8.424  -6.131  0.00  0.00    +0.031 A 
ATOM     16  C   UNL     1       1.424 -11.900  -5.227  0.00  0.00    +0.046 C 
ENDBRANCH   2  14
ENDBRANCH   1   4
BRANCH   1  17
ATOM     17  N   UNL     1       1.250  -6.755  -0.551  0.00  0.00    +0.386 N 
ATOM     18  H   UNL     1       0.424  -7.228  -0.167  0.00  0.00    -0.085 HD
ATOM     19  H   UNL     1       0.970  -6.168  -1.345  0.00  0.00    -0.085 HD
BRANCH  17  20
ATOM     20  C   UNL     1       1.853  -5.904   0.493  0.00  0.00    -0.044 C 
ATOM     21  C   UNL     1       1.698  -6.582   1.856  0.00  0.00    -0.009 C 
BRANCH  20  22
ATOM     22  C   UNL     1       1.151  -4.571   0.512  0.00  0.00    -0.062 A 
ATOM     23  C   UNL     1       1.879  -3.410   0.694  0.00  0.00    +0.004 A 
ATOM     24  C   UNL     1       1.238  -2.187   0.712  0.00  0.00    +0.026 A 
ATOM     25  C   UNL     1      -0.139  -2.124   0.548  0.00  0.00    +0.047 A 
ATOM     26  C   UNL     1      -0.868  -3.292   0.370  0.00  0.00    +0.026 A 
ATOM     27  C   UNL     1      -0.221  -4.511   0.348  0.00  0.00    +0.004 A 
BRANCH  25  28
ATOM     28  N   UNL     1      -0.793  -0.883   0.567  0.00  0.00    -0.306 N 
ATOM     29  C   UNL     1      -2.139  -0.669   0.418  0.00  0.00    +0.112 A 
ATOM     30  C   UNL     1      -2.334   0.661   0.501  0.00  0.00    +0.130 A 
ATOM     31  N   UNL     1      -1.143   1.247   0.695  0.00  0.00    -0.244 NA
ATOM     32  C   UNL     1      -0.212   0.333   0.736  0.00  0.00    +0.204 A 
ENDBRANCH  25  28
ENDBRANCH  20  22
ENDBRANCH  17  20
ENDBRANCH   1  17
TORSDOF 6
