REMARK  Name = ZINC39653062
REMARK  12 active torsions:
REMARK  status: ('A' for Active; 'I' for Inactive)
REMARK    1  A    between atoms: C_1  and  C_2
REMARK    2  A    between atoms: C_2  and  C_4
REMARK    3  A    between atoms: C_2  and  O_32
REMARK    4  A    between atoms: C_8  and  C_17
REMARK    5  A    between atoms: N_19  and  C_20
REMARK    6  A    between atoms: C_20  and  C_21
REMARK    7  A    between atoms: C_21  and  C_22
REMARK    8  A    between atoms: C_24  and  O_30
REMARK    9  A    between atoms: C_26  and  O_28
REMARK   10  A    between atoms: O_28  and  C_29
REMARK   11  A    between atoms: O_30  and  C_31
REMARK   12  A    between atoms: O_32  and  C_33
REMARK                            x       y       z     vdW  Elec       q    Type
REMARK                         _______ _______ _______ _____ _____    ______ ____
ROOT
ATOM      1  C   UNL     1       0.610  -0.642  -1.166  0.00  0.00    +0.256 C 
ATOM      2  O   UNL     1       1.711  -1.064  -0.884  0.00  0.00    -0.272 OA
ATOM      3  N   UNL     1       0.225  -0.571  -2.456  0.00  0.00    -0.297 N 
ATOM      4  C   UNL     1      -1.096  -0.163  -2.989  0.00  0.00    +0.121 C 
ATOM      5  C   UNL     1      -0.768   0.674  -4.246  0.00  0.00    +0.100 C 
ATOM      6  C   UNL     1       0.626   0.194  -4.684  0.00  0.00    -0.004 C 
ATOM      7  C   UNL     1       1.031  -0.879  -3.663  0.00  0.00    +0.115 C 
ATOM      8  C   UNL     1       1.620   1.352  -4.645  0.00  0.00    -0.010 C 
ATOM      9  C   UNL     1       2.985   0.864  -5.139  0.00  0.00    -0.082 C 
ATOM     10  N   UNL     1       2.856   0.348  -6.507  0.00  0.00    +0.379 N 
ATOM     11  C   UNL     1       1.971  -0.823  -6.521  0.00  0.00    -0.082 C 
ATOM     12  C   UNL     1       0.563  -0.406  -6.085  0.00  0.00    -0.010 C 
ATOM     13  H   UNL     1       2.470   1.067  -7.101  0.00  0.00    -0.086 HD
ATOM     14  H   UNL     1       3.767   0.084  -6.853  0.00  0.00    -0.086 HD
ENDROOT
BRANCH   5  15
ATOM     15  C   UNL     1      -0.737   2.142  -3.906  0.00  0.00    +0.218 C 
ATOM     16  O   UNL     1      -0.264   2.510  -2.852  0.00  0.00    -0.275 OA
ATOM     17  N   UNL     1      -1.237   3.045  -4.773  0.00  0.00    -0.315 N 
ATOM     18  H   UNL     1      -1.616   2.750  -5.616  0.00  0.00    +0.149 HD
BRANCH  17  19
ATOM     19  C   UNL     1      -1.207   4.471  -4.443  0.00  0.00    +0.109 C 
BRANCH  19  20
ATOM     20  C   UNL     1      -1.831   5.273  -5.587  0.00  0.00    +0.054 C 
BRANCH  20  21
ATOM     21  C   UNL     1      -1.801   6.741  -5.247  0.00  0.00    -0.039 A 
ATOM     22  C   UNL     1      -2.860   7.314  -4.569  0.00  0.00    +0.049 A 
ATOM     23  C   UNL     1      -2.834   8.665  -4.255  0.00  0.00    +0.124 A 
ATOM     24  C   UNL     1      -1.745   9.441  -4.622  0.00  0.00    +0.091 A 
ATOM     25  C   UNL     1      -0.684   8.863  -5.302  0.00  0.00    +0.124 A 
ATOM     26  C   UNL     1      -0.712   7.510  -5.609  0.00  0.00    +0.049 A 
BRANCH  25  27
ATOM     27  O   UNL     1       0.385   9.621  -5.664  0.00  0.00    -0.495 OA
ATOM     28  C   UNL     1       0.348  11.005  -5.311  0.00  0.00    +0.277 C 
ENDBRANCH  25  27
BRANCH  23  29
ATOM     29  O   UNL     1      -3.876   9.228  -3.588  0.00  0.00    -0.495 OA
ATOM     30  C   UNL     1      -3.782  10.624  -3.298  0.00  0.00    +0.277 C 
ENDBRANCH  23  29
ENDBRANCH  20  21
ENDBRANCH  19  20
ENDBRANCH  17  19
ENDBRANCH   5  15
BRANCH   1  32
ATOM     31  C   UNL     1      -0.493   1.323  -0.131  0.00  0.00    +0.062 C 
ATOM     32  C   UNL     1      -0.329  -0.197  -0.075  0.00  0.00    +0.256 C 
BRANCH  32  33
ATOM     33  O   UNL     1       0.206  -0.572   1.196  0.00  0.00    -0.480 OA
BRANCH  33  34
ATOM     34  C   UNL     1      -0.679  -0.739   2.213  0.00  0.00    +0.122 A 
ATOM     35  C   UNL     1      -2.021  -0.443   2.023  0.00  0.00    +0.045 A 
ATOM     36  C   UNL     1      -2.919  -0.615   3.059  0.00  0.00    +0.004 A 
ATOM     37  C   UNL     1      -2.481  -1.081   4.284  0.00  0.00    +0.000 A 
ATOM     38  C   UNL     1      -1.144  -1.377   4.477  0.00  0.00    +0.004 A 
ATOM     39  C   UNL     1      -0.243  -1.213   3.443  0.00  0.00    +0.045 A 
ENDBRANCH  33  34
ENDBRANCH  32  33
ENDBRANCH   1  32
TORSDOF 9
