REMARK  Name = ZINC36545786
REMARK  14 active torsions:
REMARK  status: ('A' for Active; 'I' for Inactive)
REMARK    1  A    between atoms: C_1  and  C_2
REMARK    2  A    between atoms: C_2  and  C_3
REMARK    3  A    between atoms: C_2  and  C_4
REMARK    4  A    between atoms: C_2  and  N_5
REMARK    5  A    between atoms: C_6  and  C_8
REMARK    6  A    between atoms: C_8  and  C_10
REMARK    7  A    between atoms: C_8  and  N_19
REMARK    8  A    between atoms: C_11  and  O_18
REMARK    9  A    between atoms: C_13  and  O_17
REMARK   10  A    between atoms: C_15  and  O_16
REMARK   11  A    between atoms: N_19  and  C_20
REMARK   12  A    between atoms: C_27  and  C_29
REMARK   13  A    between atoms: C_29  and  C_30
REMARK   14  A    between atoms: C_30  and  S_31
REMARK                            x       y       z     vdW  Elec       q    Type
REMARK                         _______ _______ _______ _____ _____    ______ ____
ROOT
ATOM      1  C   UNL     1       2.975  -0.437  -2.995  0.00  0.00    +0.204 C 
ENDROOT
BRANCH   1   2
ATOM      2  C   UNL     1       2.804  -1.919  -3.209  0.00  0.00    +0.065 A 
ATOM      3  C   UNL     1       3.504  -2.819  -2.420  0.00  0.00    +0.129 A 
ATOM      4  C   UNL     1       3.346  -4.183  -2.617  0.00  0.00    +0.091 A 
ATOM      5  C   UNL     1       2.488  -4.646  -3.603  0.00  0.00    +0.124 A 
ATOM      6  C   UNL     1       1.786  -3.746  -4.391  0.00  0.00    +0.091 A 
ATOM      7  C   UNL     1       1.941  -2.382  -4.191  0.00  0.00    +0.129 A 
BRANCH   7   8
ATOM      8  O   UNL     1       1.250  -1.500  -4.960  0.00  0.00    -0.506 OA
ATOM      9  H   UNL     1       1.712  -1.237  -5.768  0.00  0.00    +0.292 HD
ENDBRANCH   7   8
BRANCH   5  10
ATOM     10  O   UNL     1       2.334  -5.982  -3.797  0.00  0.00    -0.507 OA
ATOM     11  H   UNL     1       1.625  -6.377  -3.270  0.00  0.00    +0.292 HD
ENDBRANCH   5  10
BRANCH   3  12
ATOM     12  O   UNL     1       4.345  -2.365  -1.454  0.00  0.00    -0.506 OA
ATOM     13  H   UNL     1       3.947  -2.321  -0.575  0.00  0.00    +0.292 HD
ENDBRANCH   3  12
ENDBRANCH   1   2
BRANCH   1  15
ATOM     14  N   UNL     1       1.045   0.497  -1.761  0.00  0.00    -0.309 N 
ATOM     15  C   UNL     1       2.284  -0.031  -1.718  0.00  0.00    +0.239 C 
ATOM     16  O   UNL     1       2.844  -0.178  -0.652  0.00  0.00    -0.273 OA
ATOM     17  H   UNL     1       0.597   0.615  -2.614  0.00  0.00    +0.149 HD
BRANCH  14  19
ATOM     18  C   UNL     1       1.205   1.960   0.192  0.00  0.00    +0.031 C 
ATOM     19  C   UNL     1       0.373   0.891  -0.520  0.00  0.00    +0.026 C 
ATOM     20  C   UNL     1       0.224  -0.329   0.390  0.00  0.00    +0.031 C 
ATOM     21  C   UNL     1      -1.011   1.456  -0.847  0.00  0.00    +0.031 C 
ENDBRANCH  14  19
ENDBRANCH   1  15
BRANCH   1  22
ATOM     22  N   UNL     1       4.402  -0.119  -2.900  0.00  0.00    -0.254 N 
ATOM     23  C   UNL     1       5.266  -0.625  -3.802  0.00  0.00    +0.222 C 
ATOM     24  O   UNL     1       4.862  -1.343  -4.692  0.00  0.00    -0.275 OA
BRANCH  22  25
ATOM     25  C   UNL     1       4.868   0.710  -1.873  0.00  0.00    +0.056 A 
ATOM     26  C   UNL     1       5.496   0.158  -0.765  0.00  0.00    +0.025 A 
ATOM     27  C   UNL     1       5.955   0.979   0.247  0.00  0.00    +0.002 A 
ATOM     28  C   UNL     1       5.789   2.349   0.158  0.00  0.00    +0.002 A 
ATOM     29  C   UNL     1       5.163   2.902  -0.944  0.00  0.00    +0.022 A 
ATOM     30  C   UNL     1       4.708   2.087  -1.963  0.00  0.00    +0.062 A 
ATOM     31 CL   UNL     1       3.930   2.783  -3.350  0.00  0.00    -0.082 Cl
ENDBRANCH  22  25
BRANCH  23  32
ATOM     32  C   UNL     1       6.734  -0.298  -3.705  0.00  0.00    +0.107 C 
BRANCH  32  33
ATOM     33  C   UNL     1       7.487  -0.993  -4.841  0.00  0.00    +0.075 C 
BRANCH  33  34
ATOM     34  S   UNL     1       9.255  -0.599  -4.724  0.00  0.00    -0.178 S 
ATOM     35  H   UNL     1       9.804  -1.258  -5.760  0.00  0.00    +0.102 HD
ENDBRANCH  33  34
ENDBRANCH  32  33
ENDBRANCH  23  32
ENDBRANCH   1  22
TORSDOF 11
