REMARK  Name = ZINC14473943
REMARK  4 active torsions:
REMARK  status: ('A' for Active; 'I' for Inactive)
REMARK    1  A    between atoms: C_1  and  C_2
REMARK    2  A    between atoms: C_5  and  O_25
REMARK    3  A    between atoms: C_15  and  C_18
REMARK    4  A    between atoms: C_23  and  O_24
REMARK                            x       y       z     vdW  Elec       q    Type
REMARK                         _______ _______ _______ _____ _____    ______ ____
ROOT
ATOM      1  C   UNL     1       3.233   4.428  -3.939  0.00  0.00    +0.044 C 
ATOM      2  C   UNL     1       3.606   4.439  -2.479  0.00  0.00    -0.045 A 
ATOM      3  C   UNL     1       4.152   5.578  -1.924  0.00  0.00    +0.007 A 
ATOM      4  C   UNL     1       4.497   5.599  -0.585  0.00  0.00    +0.047 A 
ATOM      5  C   UNL     1       4.294   4.474   0.193  0.00  0.00    +0.138 A 
ATOM      6  C   UNL     1       3.742   3.319  -0.369  0.00  0.00    +0.074 A 
ATOM      7  C   UNL     1       3.396   3.303  -1.707  0.00  0.00    -0.013 A 
ATOM      8  C   UNL     1       2.797   2.100  -2.374  0.00  0.00    +0.049 C 
ATOM      9  C   UNL     1       1.333   2.330  -2.673  0.00  0.00    -0.023 C 
ATOM     10  C   UNL     1       0.643   1.239  -2.452  0.00  0.00    -0.030 C 
ATOM     11  C   UNL     1       1.561   0.102  -1.972  0.00  0.00    +0.033 C 
ATOM     12  C   UNL     1       2.802   0.872  -1.440  0.00  0.00    +0.029 C 
ATOM     13  C   UNL     1       2.491   1.332  -0.013  0.00  0.00    +0.109 C 
ATOM     14  N   UNL     1       3.553   2.225   0.452  0.00  0.00    -0.334 N 
ATOM     15  H   UNL     1       3.393   2.508   1.407  0.00  0.00    +0.147 HD
ENDROOT
BRANCH  13  16
ATOM     16  C   UNL     1       1.175   2.066   0.002  0.00  0.00    +0.014 A 
ATOM     17  C   UNL     1       1.145   3.437  -0.164  0.00  0.00    +0.009 A 
ATOM     18  C   UNL     1      -0.061   4.111  -0.149  0.00  0.00    +0.001 A 
ATOM     19  C   UNL     1      -1.242   3.415   0.032  0.00  0.00    +0.004 A 
ATOM     20  C   UNL     1      -1.219   2.043   0.193  0.00  0.00    +0.046 A 
ATOM     21  C   UNL     1      -0.009   1.365   0.184  0.00  0.00    +0.122 A 
BRANCH  21  22
ATOM     22  O   UNL     1       0.017   0.016   0.347  0.00  0.00    -0.506 OA
ATOM     23  H   UNL     1       0.096  -0.267   1.268  0.00  0.00    +0.292 HD
ENDBRANCH  21  22
ENDBRANCH  13  16
BRANCH   5  24
ATOM     24  O   UNL     1       4.632   4.492   1.510  0.00  0.00    -0.505 OA
ATOM     25  H   UNL     1       3.920   4.784   2.095  0.00  0.00    +0.292 HD
ENDBRANCH   5  24
TORSDOF 3
