REMARK  Name = ZINC49083626
REMARK  5 active torsions:
REMARK  status: ('A' for Active; 'I' for Inactive)
REMARK    1  A    between atoms: C_1  and  N_2
REMARK    2  A    between atoms: C_5  and  N_8
REMARK    3  A    between atoms: N_8  and  S_9
REMARK    4  A    between atoms: S_9  and  C_12
REMARK    5  A    between atoms: C_13  and  N_20
REMARK                            x       y       z     vdW  Elec       q    Type
REMARK                         _______ _______ _______ _____ _____    ______ ____
ROOT
ATOM      1  S   UNL     1       0.304  -4.789   3.655  0.00  0.00    +0.061 S 
ATOM      2  O   UNL     1       0.296  -5.154   5.028  0.00  0.00    -0.153 OA
ATOM      3  O   UNL     1      -0.331  -5.573   2.654  0.00  0.00    -0.153 OA
ENDROOT
BRANCH   1   4
ATOM      4  C   UNL     1       1.995  -4.643   3.182  0.00  0.00    +0.140 A 
ATOM      5  C   UNL     1       2.372  -4.879   1.866  0.00  0.00    +0.053 A 
ATOM      6  C   UNL     1       3.706  -4.762   1.497  0.00  0.00    +0.040 A 
ATOM      7  C   UNL     1       4.654  -4.412   2.440  0.00  0.00    +0.021 A 
ATOM      8  C   UNL     1       4.276  -4.179   3.750  0.00  0.00    +0.032 A 
ATOM      9  C   UNL     1       2.947  -4.288   4.119  0.00  0.00    +0.047 A 
ATOM     10 BR   UNL     1       2.434  -3.959   5.909  0.00  0.00    -0.048 Br
ATOM     11 BR   UNL     1       6.471  -4.254   1.938  0.00  0.00    -0.050 Br
BRANCH   5  12
ATOM     12  N   UNL     1       1.412  -5.232   0.916  0.00  0.00    -0.356 N 
ATOM     13  H   UNL     1       0.489  -4.959   1.034  0.00  0.00    +0.142 HD
ATOM     14  H   UNL     1       1.668  -5.752   0.137  0.00  0.00    +0.142 HD
ENDBRANCH   5  12
ENDBRANCH   1   4
BRANCH   1  15
ATOM     15  N   UNL     1      -0.362  -3.275   3.563  0.00  0.00    -0.189 NA
ATOM     16  H   UNL     1      -0.678  -2.835   4.368  0.00  0.00    +0.148 HD
BRANCH  15  21
ATOM     17  C   UNL     1      -1.657   0.874   1.850  0.00  0.00    -0.096 C 
ATOM     18  N   UNL     1      -1.292  -0.496   1.464  0.00  0.00    +0.379 N 
ATOM     19  C   UNL     1      -2.476  -1.391   1.541  0.00  0.00    -0.078 C 
ATOM     20  C   UNL     1      -1.883  -2.810   1.675  0.00  0.00    -0.000 C 
ATOM     21  C   UNL     1      -0.474  -2.601   2.268  0.00  0.00    +0.058 C 
ATOM     22  C   UNL     1      -0.334  -1.073   2.442  0.00  0.00    -0.059 C 
ATOM     23  H   UNL     1      -0.899  -0.508   0.535  0.00  0.00    -0.082 HD
ENDBRANCH  15  21
ENDBRANCH   1  15
TORSDOF 4
