REMARK  Name = ZINC39675397
REMARK  9 active torsions:
REMARK  status: ('A' for Active; 'I' for Inactive)
REMARK    1  A    between atoms: C_1  and  C_2
REMARK    2  A    between atoms: C_2  and  C_4
REMARK    3  A    between atoms: C_2  and  N_14
REMARK    4  A    between atoms: C_4  and  C_5
REMARK    5  A    between atoms: C_5  and  C_6
REMARK    6  A    between atoms: C_9  and  O_12
REMARK    7  A    between atoms: O_12  and  C_13
REMARK    8  A    between atoms: C_15  and  C_17
REMARK    9  A    between atoms: C_28  and  C_30
REMARK                            x       y       z     vdW  Elec       q    Type
REMARK                         _______ _______ _______ _____ _____    ______ ____
ROOT
ATOM      1  C   UNL     1       1.632  -0.731   1.867  0.00  0.00    +0.100 C 
ATOM      2  C   UNL     1       1.198  -2.109   1.320  0.00  0.00    +0.121 C 
ATOM      3  N   UNL     1       1.626  -2.101  -0.099  0.00  0.00    -0.296 N 
ATOM      4  C   UNL     1       2.943  -1.421  -0.083  0.00  0.00    +0.115 C 
ATOM      5  C   UNL     1       2.780  -0.284   0.946  0.00  0.00    -0.004 C 
ATOM      6  C   UNL     1       2.414   1.017   0.238  0.00  0.00    -0.010 C 
ATOM      7  C   UNL     1       3.592   1.470  -0.628  0.00  0.00    -0.082 C 
ATOM      8  N   UNL     1       4.776   1.666   0.217  0.00  0.00    +0.379 N 
ATOM      9  C   UNL     1       5.177   0.389   0.821  0.00  0.00    -0.082 C 
ATOM     10  C   UNL     1       4.065  -0.110   1.749  0.00  0.00    -0.010 C 
ATOM     11  C   UNL     1       0.966  -2.599  -1.163  0.00  0.00    +0.249 C 
ATOM     12  O   UNL     1       1.462  -2.532  -2.271  0.00  0.00    -0.270 OA
ATOM     13  H   UNL     1       5.534   2.023  -0.345  0.00  0.00    -0.086 HD
ATOM     14  H   UNL     1       4.561   2.329   0.947  0.00  0.00    -0.086 HD
ENDROOT
BRANCH  11  15
ATOM     15  C   UNL     1      -0.359  -3.226  -0.984  0.00  0.00    +0.073 A 
ATOM     16  C   UNL     1      -1.468  -2.441  -0.658  0.00  0.00    +0.036 A 
ATOM     17  C   UNL     1      -2.703  -3.033  -0.492  0.00  0.00    +0.042 A 
ATOM     18  C   UNL     1      -2.846  -4.403  -0.648  0.00  0.00    +0.023 A 
ATOM     19  C   UNL     1      -1.755  -5.186  -0.970  0.00  0.00    +0.040 A 
ATOM     20  C   UNL     1      -0.511  -4.606  -1.145  0.00  0.00    +0.136 A 
ATOM     21  F   UNL     1       0.555  -5.372  -1.466  0.00  0.00    -0.205 F 
ATOM     22 CL   UNL     1      -4.082  -2.059  -0.086  0.00  0.00    -0.084 Cl
ENDBRANCH  11  15
BRANCH   1  24
ATOM     23  N   UNL     1       0.129   0.948   2.886  0.00  0.00    -0.312 N 
ATOM     24  C   UNL     1       0.488   0.247   1.792  0.00  0.00    +0.218 C 
ATOM     25  O   UNL     1      -0.109   0.404   0.748  0.00  0.00    -0.275 OA
ATOM     26  H   UNL     1       0.626   0.847   3.712  0.00  0.00    +0.149 HD
BRANCH  23  28
ATOM     27  C   UNL     1      -0.602   3.231   3.375  0.00  0.00    +0.028 C 
ATOM     28  C   UNL     1      -1.014   1.863   2.826  0.00  0.00    +0.070 C 
BRANCH  28  29
ATOM     29  C   UNL     1      -2.162   1.301   3.667  0.00  0.00    +0.026 C 
BRANCH  29  30
ATOM     30  C   UNL     1      -2.226  -0.217   3.492  0.00  0.00    +0.037 C 
BRANCH  30  31
ATOM     31  C   UNL     1      -3.396  -0.763   4.270  0.00  0.00    -0.047 A 
ATOM     32  C   UNL     1      -3.220  -1.188   5.574  0.00  0.00    +0.007 A 
ATOM     33  C   UNL     1      -4.290  -1.689   6.289  0.00  0.00    +0.046 A 
ATOM     34  C   UNL     1      -5.543  -1.766   5.698  0.00  0.00    +0.120 A 
ATOM     35  C   UNL     1      -5.717  -1.339   4.389  0.00  0.00    +0.046 A 
ATOM     36  C   UNL     1      -4.644  -0.834   3.680  0.00  0.00    +0.007 A 
BRANCH  34  37
ATOM     37  O   UNL     1      -6.597  -2.259   6.399  0.00  0.00    -0.495 OA
ATOM     38  C   UNL     1      -7.857  -2.309   5.726  0.00  0.00    +0.277 C 
ENDBRANCH  34  37
ENDBRANCH  30  31
ENDBRANCH  29  30
ENDBRANCH  28  29
ENDBRANCH  23  28
ENDBRANCH   1  24
TORSDOF 7
