REMARK  Name = ZINC35026034
REMARK  7 active torsions:
REMARK  status: ('A' for Active; 'I' for Inactive)
REMARK    1  A    between atoms: C_2  and  C_3
REMARK    2  A    between atoms: C_3  and  N_4
REMARK    3  A    between atoms: C_5  and  C_27
REMARK    4  A    between atoms: N_9  and  C_10
REMARK    5  A    between atoms: C_13  and  S_16
REMARK    6  A    between atoms: S_16  and  N_19
REMARK    7  A    between atoms: C_30  and  N_33
REMARK                            x       y       z     vdW  Elec       q    Type
REMARK                         _______ _______ _______ _____ _____    ______ ____
ROOT
ATOM      1  N   UNL     1      -2.064  -2.015  -0.442  0.00  0.00    -0.319 N 
ATOM      2  C   UNL     1      -2.805  -1.822  -1.530  0.00  0.00    +0.058 A 
ATOM      3  C   UNL     1      -3.023  -2.865  -2.385  0.00  0.00    +0.074 A 
ATOM      4  S   UNL     1      -2.112  -4.165  -1.563  0.00  0.00    -0.062 S 
ATOM      5  C   UNL     1      -1.533  -3.195  -0.178  0.00  0.00    +0.144 A 
ATOM      6  N   UNL     1      -0.739  -3.580   0.890  0.00  0.00    -0.295 N 
ATOM      7  H   UNL     1      -0.580  -2.964   1.623  0.00  0.00    +0.154 HD
ENDROOT
BRANCH   6   8
ATOM      8  C   UNL     1      -0.167  -4.855   0.913  0.00  0.00    +0.033 A 
ATOM      9  C   UNL     1       0.240  -5.456  -0.272  0.00  0.00    +0.025 A 
ATOM     10  C   UNL     1       0.805  -6.716  -0.246  0.00  0.00    +0.031 A 
ATOM     11  C   UNL     1       0.966  -7.379   0.957  0.00  0.00    +0.113 A 
ATOM     12  C   UNL     1       0.561  -6.784   2.138  0.00  0.00    +0.031 A 
ATOM     13  C   UNL     1       0.001  -5.521   2.120  0.00  0.00    +0.025 A 
BRANCH  11  14
ATOM     14  S   UNL     1       1.687  -8.986   0.985  0.00  0.00    +0.100 S 
ATOM     15  O   UNL     1       1.227  -9.617   2.172  0.00  0.00    -0.146 OA
ATOM     16  O   UNL     1       1.480  -9.547  -0.305  0.00  0.00    -0.146 OA
BRANCH  14  17
ATOM     17  N   UNL     1       3.322  -8.787   1.157  0.00  0.00    -0.118 NA
ATOM     18  C   UNL     1       4.098  -9.820   1.207  0.00  0.00    +0.117 C 
ATOM     19  C   UNL     1       3.510 -11.225   1.101  0.00  0.00    +0.073 C 
ATOM     20  C   UNL     1       3.944 -11.794  -0.233  0.00  0.00    +0.008 C 
ATOM     21  C   UNL     1       5.292 -12.515  -0.178  0.00  0.00    +0.002 C 
ATOM     22  C   UNL     1       6.339 -11.766   0.646  0.00  0.00    +0.019 C 
ATOM     23  C   UNL     1       6.346 -10.275   0.389  0.00  0.00    +0.102 C 
ATOM     24  N   UNL     1       5.400  -9.663   1.345  0.00  0.00    -0.331 N 
ATOM     25  H   UNL     1       5.744  -9.138   2.085  0.00  0.00    +0.147 HD
ENDBRANCH  14  17
ENDBRANCH  11  14
ENDBRANCH   6   8
BRANCH   2  26
ATOM     26  C   UNL     1      -3.389  -0.488  -1.812  0.00  0.00    -0.001 A 
ATOM     27  C   UNL     1      -2.640   0.666  -1.584  0.00  0.00    +0.012 A 
ATOM     28  C   UNL     1      -3.188   1.904  -1.848  0.00  0.00    +0.033 A 
ATOM     29  C   UNL     1      -4.478   2.002  -2.339  0.00  0.00    +0.126 A 
ATOM     30  C   UNL     1      -5.226   0.861  -2.568  0.00  0.00    +0.033 A 
ATOM     31  C   UNL     1      -4.686  -0.383  -2.312  0.00  0.00    +0.012 A 
BRANCH  29  32
ATOM     32  N   UNL     1      -5.061   3.334  -2.621  0.00  0.00    +0.056 N 
ATOM     33  O   UNL     1      -4.410   4.333  -2.421  0.00  0.00    -0.126 OA
ATOM     34  O   UNL     1      -6.188   3.423  -3.050  0.00  0.00    -0.126 OA
ENDBRANCH  29  32
ENDBRANCH   2  26
BRANCH   1  35
ATOM     35  C   UNL     1      -1.829  -0.898   0.477  0.00  0.00    +0.151 C 
BRANCH  35  37
ATOM     36  C   UNL     1      -0.307   0.999   0.267  0.00  0.00    +0.005 C 
ATOM     37  C   UNL     1      -0.474  -0.299   0.202  0.00  0.00    -0.013 C 
ENDBRANCH  35  37
ENDBRANCH   1  35
TORSDOF 7
