REMARK  Name = ZINC01868667
REMARK  5 active torsions:
REMARK  status: ('A' for Active; 'I' for Inactive)
REMARK    1  A    between atoms: C_1  and  O_2
REMARK    2  A    between atoms: O_2  and  C_3
REMARK    3  A    between atoms: C_10  and  C_13
REMARK    4  A    between atoms: C_13  and  N_56
REMARK    5  A    between atoms: N_23  and  C_24
REMARK                            x       y       z     vdW  Elec       q    Type
REMARK                         _______ _______ _______ _____ _____    ______ ____
ROOT
ATOM      1  C   UNL     1      -2.224  -0.114  -1.746  0.00  0.00    -0.076 C 
ATOM      2  C   UNL     1      -1.609   1.275  -1.548  0.00  0.00    +0.017 C 
ATOM      3  C   UNL     1      -1.249   1.463  -0.077  0.00  0.00    +0.109 C 
ATOM      4  C   UNL     1      -2.479   1.253   0.801  0.00  0.00    +0.017 C 
ATOM      5  C   UNL     1      -3.066  -0.135   0.528  0.00  0.00    -0.076 C 
ATOM      6  C   UNL     1      -0.148   0.511   0.321  0.00  0.00    +0.238 C 
ATOM      7  O   UNL     1      -0.282  -0.672   0.555  0.00  0.00    -0.273 OA
ATOM      8  N   UNL     1       1.012   1.199   0.367  0.00  0.00    -0.298 N 
ATOM      9  C   UNL     1       0.768   2.601   0.005  0.00  0.00    +0.214 C 
ATOM     10  N   UNL     1      -0.691   2.815   0.145  0.00  0.00    -0.300 N 
ATOM     11  H   UNL     1       1.876   0.825   0.604  0.00  0.00    +0.150 HD
ATOM     12  N   UNL     1      -3.433  -0.226  -0.902  0.00  0.00    +0.382 N 
ATOM     13  H   UNL     1      -4.072   0.545  -1.131  0.00  0.00    -0.082 HD
ENDROOT
BRANCH  10  14
ATOM     14  C   UNL     1      -1.161   3.711  -0.818  0.00  0.00    +0.032 A 
ATOM     15  C   UNL     1      -0.266   4.365  -1.655  0.00  0.00    +0.023 A 
ATOM     16  C   UNL     1      -0.734   5.247  -2.609  0.00  0.00    +0.002 A 
ATOM     17  C   UNL     1      -2.091   5.486  -2.726  0.00  0.00    +0.000 A 
ATOM     18  C   UNL     1      -2.984   4.840  -1.891  0.00  0.00    +0.002 A 
ATOM     19  C   UNL     1      -2.523   3.953  -0.938  0.00  0.00    +0.023 A 
ENDBRANCH  10  14
BRANCH  12  20
ATOM     20  C   UNL     1      -4.116  -1.509  -1.167  0.00  0.00    -0.033 C 
BRANCH  20  28
ATOM     21  C   UNL     1      -9.031  -1.871  -4.600  0.00  0.00    +0.121 A 
ATOM     22  C   UNL     1      -9.027  -0.505  -4.360  0.00  0.00    +0.049 A 
ATOM     23  C   UNL     1      -8.006   0.071  -3.634  0.00  0.00    +0.049 A 
ATOM     24  C   UNL     1      -6.970  -0.713  -3.134  0.00  0.00    +0.124 A 
ATOM     25  C   UNL     1      -6.979  -2.079  -3.384  0.00  0.00    +0.001 A 
ATOM     26  C   UNL     1      -7.999  -2.657  -4.107  0.00  0.00    +0.053 A 
ATOM     27  C   UNL     1      -5.736  -2.658  -2.737  0.00  0.00    +0.081 C 
ATOM     28  C   UNL     1      -4.888  -1.389  -2.482  0.00  0.00    +0.161 C 
ATOM     29  O   UNL     1      -5.882  -0.354  -2.396  0.00  0.00    -0.490 OA
BRANCH  21  31
ATOM     30  C   UNL     1     -11.068  -1.565  -5.789  0.00  0.00    +0.277 C 
ATOM     31  O   UNL     1     -10.041  -2.437  -5.314  0.00  0.00    -0.495 OA
ENDBRANCH  21  31
ENDBRANCH  20  28
ENDBRANCH  12  20
TORSDOF 4
