REMARK  Name = ZINC05765701
REMARK  5 active torsions:
REMARK  status: ('A' for Active; 'I' for Inactive)
REMARK    1  A    between atoms: C_1  and  O_2
REMARK    2  A    between atoms: O_2  and  C_3
REMARK    3  A    between atoms: C_8  and  O_9
REMARK    4  A    between atoms: O_9  and  C_10
REMARK    5  A    between atoms: C_17  and  O_18
REMARK                            x       y       z     vdW  Elec       q    Type
REMARK                         _______ _______ _______ _____ _____    ______ ____
ROOT
ATOM      1  C   UNL     1       0.080   3.686   1.903  0.00  0.00    +0.172 A 
ATOM      2  C   UNL     1      -0.162   5.058   2.087  0.00  0.00    +0.021 A 
ATOM      3  C   UNL     1      -1.308   5.640   1.532  0.00  0.00    +0.015 A 
ATOM      4  C   UNL     1      -2.225   4.854   0.873  0.00  0.00    +0.051 A 
ATOM      5  C   UNL     1      -2.023   3.480   0.757  0.00  0.00    +0.174 A 
ATOM      6  C   UNL     1      -0.859   2.901   1.251  0.00  0.00    +0.205 A 
ATOM      7  O   UNL     1      -2.981   2.722   0.186  0.00  0.00    -0.449 OA
ATOM      8  C   UNL     1      -2.762   1.903  -0.864  0.00  0.00    +0.170 A 
ATOM      9  C   UNL     1      -1.495   1.685  -1.369  0.00  0.00    +0.058 A 
ATOM     10  C   UNL     1      -1.314   0.812  -2.447  0.00  0.00    -0.021 A 
ATOM     11  C   UNL     1      -2.420   0.163  -3.010  0.00  0.00    +0.012 A 
ATOM     12  C   UNL     1      -3.682   0.392  -2.512  0.00  0.00    +0.050 A 
ATOM     13  C   UNL     1      -3.862   1.257  -1.446  0.00  0.00    +0.159 A 
ATOM     14  C   UNL     1       0.021   0.558  -2.997  0.00  0.00    +0.013 C 
ATOM     15  C   UNL     1       1.097   1.257  -2.585  0.00  0.00    +0.068 C 
ATOM     16  C   UNL     1       2.408   0.957  -3.164  0.00  0.00    +0.237 C 
ATOM     17  O   UNL     1       2.537   0.035  -3.949  0.00  0.00    -0.271 OA
ATOM     18  N   UNL     1       3.481   1.718  -2.817  0.00  0.00    -0.312 N 
ATOM     19  C   UNL     1       4.777   1.344  -3.419  0.00  0.00    +0.102 C 
ATOM     20  C   UNL     1       5.826   2.383  -3.017  0.00  0.00    -0.000 C 
ATOM     21  C   UNL     1       5.755   2.617  -1.507  0.00  0.00    -0.081 C 
ATOM     22  C   UNL     1       6.806   3.891   0.256  0.00  0.00    -0.083 C 
ATOM     23  C   UNL     1       6.401   5.250   0.830  0.00  0.00    -0.018 C 
ATOM     24  C   UNL     1       5.772   5.054   2.212  0.00  0.00    +0.017 C 
ATOM     25  C   UNL     1       4.463   5.841   2.283  0.00  0.00    +0.104 C 
ATOM     26  N   UNL     1       4.177   6.184   3.695  0.00  0.00    -0.312 N 
ATOM     27  C   UNL     1       2.860   6.092   4.042  0.00  0.00    +0.237 C 
ATOM     28  O   UNL     1       2.453   6.646   5.046  0.00  0.00    -0.271 OA
ATOM     29  C   UNL     1       1.973   5.352   3.231  0.00  0.00    +0.068 C 
ATOM     30  C   UNL     1       0.786   5.875   2.850  0.00  0.00    +0.017 C 
ATOM     31  H   UNL     1       3.399   2.467  -2.206  0.00  0.00    +0.149 HD
ATOM     32  H   UNL     1       4.867   6.451   4.322  0.00  0.00    +0.149 HD
ATOM     33  N   UNL     1       6.483   3.857  -1.182  0.00  0.00    +0.379 N 
ATOM     34  H   UNL     1       5.898   4.667  -1.419  0.00  0.00    -0.086 HD
ATOM     35  H   UNL     1       7.353   3.892  -1.727  0.00  0.00    -0.086 HD
ENDROOT
BRANCH   1  37
ATOM     36  C   UNL     1       1.207   2.559   3.666  0.00  0.00    +0.277 C 
ATOM     37  O   UNL     1       1.234   3.131   2.357  0.00  0.00    -0.491 OA
ENDBRANCH   1  37
BRANCH   6  38
ATOM     38  O   UNL     1      -0.644   1.566   1.100  0.00  0.00    -0.488 OA
ATOM     39  C   UNL     1      -1.252   0.699   2.060  0.00  0.00    +0.277 C 
ENDBRANCH   6  38
BRANCH  13  40
ATOM     40  O   UNL     1      -5.111   1.482  -0.961  0.00  0.00    -0.503 OA
ATOM     41  H   UNL     1      -5.570   2.220  -1.384  0.00  0.00    +0.292 HD
ENDBRANCH  13  40
TORSDOF 3
