REMARK  Name = ZINC07203515
REMARK  9 active torsions:
REMARK  status: ('A' for Active; 'I' for Inactive)
REMARK    1  A    between atoms: C_1  and  C_2
REMARK    2  A    between atoms: C_2  and  C_4
REMARK    3  A    between atoms: C_2  and  O_17
REMARK    4  A    between atoms: N_6  and  C_7
REMARK    5  A    between atoms: C_12  and  C_13
REMARK    6  A    between atoms: O_17  and  C_18
REMARK    7  A    between atoms: C_18  and  C_20
REMARK    8  A    between atoms: C_23  and  N_27
REMARK    9  A    between atoms: C_25  and  N_26
REMARK                            x       y       z     vdW  Elec       q    Type
REMARK                         _______ _______ _______ _____ _____    ______ ____
ROOT
ATOM      1  C   UNL     1       4.224  -0.654  -1.517  0.00  0.00    +0.062 C 
ATOM      2  C   UNL     1       3.830  -0.345  -0.071  0.00  0.00    +0.259 C 
ENDROOT
BRANCH   2   3
ATOM      3  C   UNL     1       3.873  -1.612   0.744  0.00  0.00    +0.258 C 
ATOM      4  O   UNL     1       2.852  -2.062   1.218  0.00  0.00    -0.271 OA
ATOM      5  N   UNL     1       5.046  -2.244   0.945  0.00  0.00    -0.282 N 
ATOM      6  H   UNL     1       5.873  -1.842   0.636  0.00  0.00    +0.155 HD
BRANCH   5   7
ATOM      7  C   UNL     1       5.071  -3.481   1.599  0.00  0.00    +0.045 A 
ATOM      8  C   UNL     1       3.947  -4.297   1.588  0.00  0.00    +0.024 A 
ATOM      9  C   UNL     1       3.977  -5.519   2.231  0.00  0.00    +0.002 A 
ATOM     10  C   UNL     1       5.120  -5.926   2.894  0.00  0.00    +0.001 A 
ATOM     11  C   UNL     1       6.239  -5.113   2.911  0.00  0.00    +0.014 A 
ATOM     12  C   UNL     1       6.218  -3.892   2.265  0.00  0.00    +0.076 A 
BRANCH  12  13
ATOM     13  C   UNL     1       7.437  -3.007   2.285  0.00  0.00    +0.419 C 
ATOM     14  F   UNL     1       8.455  -3.632   3.013  0.00  0.00    -0.166 F 
ATOM     15  F   UNL     1       7.871  -2.781   0.975  0.00  0.00    -0.166 F 
ATOM     16  F   UNL     1       7.117  -1.785   2.887  0.00  0.00    -0.166 F 
ENDBRANCH  12  13
ENDBRANCH   5   7
ENDBRANCH   2   3
BRANCH   2  17
ATOM     17  O   UNL     1       2.485   0.203  -0.043  0.00  0.00    -0.449 OA
BRANCH  17  18
ATOM     18  C   UNL     1       2.368   1.542  -0.146  0.00  0.00    +0.342 C 
ATOM     19  O   UNL     1       3.362   2.232  -0.256  0.00  0.00    -0.245 OA
BRANCH  18  20
ATOM     20  C   UNL     1       1.035   2.168  -0.125  0.00  0.00    +0.080 A 
ATOM     21  C   UNL     1      -0.115   1.374  -0.103  0.00  0.00    +0.019 A 
ATOM     22  C   UNL     1      -1.359   1.966  -0.089  0.00  0.00    +0.033 A 
ATOM     23  C   UNL     1      -1.477   3.347  -0.085  0.00  0.00    +0.128 A 
ATOM     24  C   UNL     1      -0.352   4.145  -0.106  0.00  0.00    +0.056 A 
ATOM     25  C   UNL     1       0.911   3.567  -0.126  0.00  0.00    +0.041 A 
BRANCH  25  26
ATOM     26  N   UNL     1       2.045   4.368  -0.147  0.00  0.00    -0.357 N 
ATOM     27  H   UNL     1       2.832   4.082  -0.637  0.00  0.00    +0.142 HD
ATOM     28  H   UNL     1       2.050   5.213   0.328  0.00  0.00    +0.142 HD
ENDBRANCH  25  26
BRANCH  23  29
ATOM     29  N   UNL     1      -2.820   3.970  -0.064  0.00  0.00    +0.056 N 
ATOM     30  O   UNL     1      -2.929   5.183  -0.066  0.00  0.00    -0.126 OA
ATOM     31  O   UNL     1      -3.816   3.269  -0.045  0.00  0.00    -0.126 OA
ENDBRANCH  23  29
ENDBRANCH  18  20
ENDBRANCH  17  18
ENDBRANCH   2  17
TORSDOF 8
