REMARK  Name = ZINC13809964
REMARK  9 active torsions:
REMARK  status: ('A' for Active; 'I' for Inactive)
REMARK    1  A    between atoms: C_1  and  C_2
REMARK    2  A    between atoms: C_2  and  S_3
REMARK    3  A    between atoms: S_3  and  C_4
REMARK    4  A    between atoms: C_4  and  S_27
REMARK    5  A    between atoms: C_5  and  C_25
REMARK    6  A    between atoms: C_12  and  C_19
REMARK    7  A    between atoms: C_14  and  C_17
REMARK    8  A    between atoms: S_27  and  C_28
REMARK    9  A    between atoms: C_28  and  C_29
REMARK                            x       y       z     vdW  Elec       q    Type
REMARK                         _______ _______ _______ _____ _____    ______ ____
ROOT
ATOM      1  C   UNL     1      -1.295  -0.258   3.434  0.00  0.00    +0.157 C 
ATOM      2  C   UNL     1      -1.663  -0.195   1.949  0.00  0.00    +0.148 C 
ATOM      3  C   UNL     1      -2.672  -1.165   1.426  0.00  0.00    -0.029 C 
ATOM      4  C   UNL     1      -2.524  -1.587   0.182  0.00  0.00    -0.011 C 
ATOM      5  C   UNL     1      -3.502  -2.536  -0.468  0.00  0.00    +0.049 C 
ATOM      6  C   UNL     1      -4.335  -3.271   0.578  0.00  0.00    +0.006 C 
ATOM      7  C   UNL     1      -4.932  -2.227   1.531  0.00  0.00    +0.005 C 
ATOM      8  C   UNL     1      -3.785  -1.614   2.331  0.00  0.00    +0.034 C 
ATOM      9  C   UNL     1      -0.346  -0.349  -0.099  0.00  0.00    +0.113 C 
ATOM     10  C   UNL     1      -0.283  -0.651   1.382  0.00  0.00    +0.156 C 
ATOM     11  C   UNL     1       0.666   0.084   2.264  0.00  0.00    +0.092 C 
ATOM     12  N   UNL     1       1.930   0.486   1.918  0.00  0.00    -0.347 N 
ATOM     13  H   UNL     1       2.274   0.295   1.032  0.00  0.00    +0.143 HD
ATOM     14  H   UNL     1       2.479   0.962   2.560  0.00  0.00    +0.143 HD
ATOM     15  N   UNL     1      -1.430  -1.233  -0.701  0.00  0.00    -0.401 NA
ATOM     16  H   UNL     1      -1.828  -0.739  -1.508  0.00  0.00    +0.124 HD
ATOM     17  H   UNL     1      -0.988  -2.104  -1.016  0.00  0.00    +0.124 HD
ATOM     18  N   UNL     1       0.097   0.287   3.432  0.00  0.00    -0.351 N 
ATOM     19  H   UNL     1       0.544   0.753   4.229  0.00  0.00    +0.163 HD
ENDROOT
BRANCH   9  20
ATOM     20  C   UNL     1      -0.671   1.105  -0.323  0.00  0.00    -0.027 A 
ATOM     21  C   UNL     1      -1.793   1.459  -1.048  0.00  0.00    +0.005 A 
ATOM     22  C   UNL     1      -2.094   2.793  -1.250  0.00  0.00    +0.000 A 
ATOM     23  C   UNL     1      -1.266   3.773  -0.736  0.00  0.00    +0.000 A 
ATOM     24  C   UNL     1      -0.141   3.420  -0.015  0.00  0.00    +0.000 A 
ATOM     25  C   UNL     1       0.157   2.086   0.191  0.00  0.00    +0.005 A 
ENDBRANCH   9  20
BRANCH  10  26
ATOM     26  C   UNL     1      -0.127  -2.101   1.585  0.00  0.00    +0.081 C 
ATOM     27  N   UNL     1      -0.007  -3.220   1.742  0.00  0.00    -0.195 NA
ENDBRANCH  10  26
BRANCH   2  28
ATOM     28  C   UNL     1      -1.980   1.184   1.541  0.00  0.00    +0.080 C 
ATOM     29  N   UNL     1      -2.224   2.248   1.226  0.00  0.00    -0.195 NA
ENDBRANCH   2  28
BRANCH   1  30
ATOM     30  S   UNL     1      -1.322  -1.968   4.037  0.00  0.00    -0.121 S 
BRANCH  30  32
ATOM     31  C   UNL     1       0.230  -3.478   5.709  0.00  0.00    +0.015 C 
ATOM     32  C   UNL     1       0.190  -2.107   5.029  0.00  0.00    +0.069 C 
ENDBRANCH  30  32
ENDBRANCH   1  30
BRANCH   1  33
ATOM     33  S   UNL     1      -2.395   0.793   4.422  0.00  0.00    -0.121 S 
BRANCH  33  34
ATOM     34  C   UNL     1      -1.893   0.466   6.134  0.00  0.00    +0.069 C 
ATOM     35  C   UNL     1      -2.827   1.210   7.090  0.00  0.00    +0.015 C 
ENDBRANCH  33  34
ENDBRANCH   1  33
TORSDOF 7
