REMARK  Name = ZINC64802026
REMARK  7 active torsions:
REMARK  status: ('A' for Active; 'I' for Inactive)
REMARK    1  A    between atoms: C_1  and  C_2
REMARK    2  A    between atoms: C_4  and  N_15
REMARK    3  A    between atoms: N_8  and  C_9
REMARK    4  A    between atoms: N_15  and  C_16
REMARK    5  A    between atoms: C_19  and  N_22
REMARK    6  A    between atoms: N_22  and  S_23
REMARK    7  A    between atoms: S_23  and  C_26
REMARK                            x       y       z     vdW  Elec       q    Type
REMARK                         _______ _______ _______ _____ _____    ______ ____
ROOT
ATOM      1  N   UNL     1      -0.675  -2.941  -2.169  0.00  0.00    -0.299 N 
ATOM      2  H   UNL     1      -0.785  -2.473  -3.012  0.00  0.00    +0.154 HD
ENDROOT
BRANCH   1   6
ATOM      3  C   UNL     1      -1.817   1.155   0.310  0.00  0.00    +0.063 C 
ATOM      4  C   UNL     1      -1.366  -0.281   0.252  0.00  0.00    +0.019 A 
ATOM      5  C   UNL     1      -1.238  -0.924  -0.964  0.00  0.00    +0.064 A 
ATOM      6  C   UNL     1      -0.817  -2.256  -0.973  0.00  0.00    +0.128 A 
ATOM      7  N   UNL     1      -0.554  -2.857   0.184  0.00  0.00    -0.201 NA
ATOM      8  C   UNL     1      -0.689  -2.205   1.328  0.00  0.00    +0.195 A 
ATOM      9  N   UNL     1      -1.082  -0.940   1.366  0.00  0.00    -0.332 N 
ATOM     10  N   UNL     1      -0.407  -2.859   2.515  0.00  0.00    -0.312 N 
ATOM     11  H   UNL     1      -0.115  -3.784   2.501  0.00  0.00    +0.149 HD
ATOM     12  H   UNL     1      -1.167  -0.491   2.221  0.00  0.00    +0.168 HD
BRANCH  10  13
ATOM     13  C   UNL     1      -0.550  -2.155   3.792  0.00  0.00    +0.073 C 
ATOM     14  C   UNL     1       0.731  -1.373   4.089  0.00  0.00    +0.022 C 
ATOM     15  C   UNL     1       0.581  -0.637   5.423  0.00  0.00    +0.002 C 
ATOM     16  C   UNL     1       0.332  -1.653   6.540  0.00  0.00    +0.000 C 
ATOM     17  C   UNL     1      -0.949  -2.435   6.242  0.00  0.00    +0.002 C 
ATOM     18  C   UNL     1      -0.799  -3.170   4.909  0.00  0.00    +0.022 C 
ENDBRANCH  10  13
ENDBRANCH   1   6
BRANCH   1  19
ATOM     19  C   UNL     1      -0.373  -4.309  -2.162  0.00  0.00    +0.032 A 
ATOM     20  C   UNL     1      -0.860  -5.122  -1.147  0.00  0.00    +0.025 A 
ATOM     21  C   UNL     1      -0.562  -6.470  -1.139  0.00  0.00    +0.026 A 
ATOM     22  C   UNL     1       0.224  -7.013  -2.147  0.00  0.00    +0.048 A 
ATOM     23  C   UNL     1       0.711  -6.200  -3.162  0.00  0.00    +0.026 A 
ATOM     24  C   UNL     1       0.409  -4.852  -3.172  0.00  0.00    +0.025 A 
BRANCH  22  25
ATOM     25  N   UNL     1       0.526  -8.379  -2.139  0.00  0.00    -0.216 N 
ATOM     26  H   UNL     1       0.801  -8.811  -1.315  0.00  0.00    +0.174 HD
BRANCH  25  27
ATOM     27  S   UNL     1       0.415  -9.260  -3.537  0.00  0.00    +0.072 S 
ATOM     28  O   UNL     1       1.178  -8.566  -4.516  0.00  0.00    -0.150 OA
ATOM     29  O   UNL     1       0.675 -10.612  -3.187  0.00  0.00    -0.150 OA
BRANCH  27  30
ATOM     30  C   UNL     1      -1.264  -9.190  -4.065  0.00  0.00    +0.109 A 
ATOM     31  C   UNL     1      -2.190 -10.074  -3.544  0.00  0.00    +0.030 A 
ATOM     32  C   UNL     1      -3.507 -10.020  -3.958  0.00  0.00    +0.022 A 
ATOM     33  C   UNL     1      -3.900  -9.080  -4.894  0.00  0.00    +0.041 A 
ATOM     34  C   UNL     1      -2.973  -8.195  -5.416  0.00  0.00    +0.022 A 
ATOM     35  C   UNL     1      -1.657  -8.247  -4.997  0.00  0.00    +0.030 A 
ATOM     36 CL   UNL     1      -5.555  -9.012  -5.415  0.00  0.00    -0.084 Cl
ENDBRANCH  27  30
ENDBRANCH  25  27
ENDBRANCH  22  25
ENDBRANCH   1  19
TORSDOF 6
