REMARK  Name = ZINC09275456
REMARK  10 active torsions:
REMARK  status: ('A' for Active; 'I' for Inactive)
REMARK    1  A    between atoms: C_1  and  C_2
REMARK    2  A    between atoms: C_2  and  C_3
REMARK    3  A    between atoms: N_11  and  C_12
REMARK    4  A    between atoms: C_12  and  C_14
REMARK    5  A    between atoms: C_17  and  S_20
REMARK    6  A    between atoms: S_20  and  N_23
REMARK    7  A    between atoms: C_25  and  C_32
REMARK    8  A    between atoms: C_28  and  C_31
REMARK    9  A    between atoms: N_33  and  C_34
REMARK   10  A    between atoms: C_34  and  C_35
REMARK                            x       y       z     vdW  Elec       q    Type
REMARK                         _______ _______ _______ _____ _____    ______ ____
ROOT
ATOM      1  C   UNL     1      -3.470   9.410  -0.180  0.00  0.00    +0.269 C 
ATOM      2  O   UNL     1      -4.209   8.540  -0.608  0.00  0.00    -0.268 OA
ENDROOT
BRANCH   1  11
ATOM      3  C   UNL     1      -0.749   3.086   1.275  0.00  0.00    -0.046 A 
ATOM      4  C   UNL     1       0.279   3.797   1.871  0.00  0.00    +0.006 A 
ATOM      5  C   UNL     1       0.280   5.172   1.884  0.00  0.00    +0.027 A 
ATOM      6  C   UNL     1      -0.770   5.896   1.300  0.00  0.00    +0.058 A 
ATOM      7  C   UNL     1      -1.800   5.150   0.709  0.00  0.00    +0.039 A 
ATOM      8  C   UNL     1      -1.798   3.775   0.692  0.00  0.00    +0.020 A 
ATOM      9  S   UNL     1      -2.908   6.395   0.099  0.00  0.00    -0.052 S 
ATOM     10  C   UNL     1      -2.025   7.795   0.616  0.00  0.00    +0.167 A 
ATOM     11  N   UNL     1      -2.341   9.075   0.453  0.00  0.00    -0.152 NA
ATOM     12  N   UNL     1      -0.930   7.268   1.227  0.00  0.00    -0.317 N 
BRANCH   3  14
ATOM     13  C   UNL     1      -0.013   1.086   0.008  0.00  0.00    +0.009 C 
ATOM     14  C   UNL     1      -0.729   1.579   1.267  0.00  0.00    +0.032 C 
ENDBRANCH   3  14
BRANCH  12  15
ATOM     15  C   UNL     1       0.081   8.154   1.810  0.00  0.00    +0.151 C 
BRANCH  15  16
ATOM     16  C   UNL     1       0.123   9.446   1.035  0.00  0.00    -0.013 C 
ATOM     17  C   UNL     1      -0.032  10.588   1.657  0.00  0.00    +0.005 C 
ENDBRANCH  15  16
ENDBRANCH  12  15
ENDBRANCH   1  11
BRANCH   1  18
ATOM     18  C   UNL     1      -3.823  10.837  -0.361  0.00  0.00    +0.039 A 
ATOM     19  C   UNL     1      -2.982  11.834   0.133  0.00  0.00    +0.015 A 
ATOM     20  C   UNL     1      -3.313  13.162  -0.044  0.00  0.00    +0.029 A 
ATOM     21  C   UNL     1      -4.483  13.505  -0.699  0.00  0.00    +0.106 A 
ATOM     22  C   UNL     1      -5.324  12.520  -1.186  0.00  0.00    +0.029 A 
ATOM     23  C   UNL     1      -5.000  11.189  -1.020  0.00  0.00    +0.015 A 
BRANCH  21  24
ATOM     24  S   UNL     1      -4.902  15.202  -0.915  0.00  0.00    +0.061 S 
ATOM     25  O   UNL     1      -3.685  15.933  -0.851  0.00  0.00    -0.153 OA
ATOM     26  O   UNL     1      -5.771  15.267  -2.038  0.00  0.00    -0.153 OA
BRANCH  24  27
ATOM     27  N   UNL     1      -5.796  15.657   0.403  0.00  0.00    -0.172 NA
ATOM     28  C   UNL     1      -7.263  15.534   0.402  0.00  0.00    +0.140 C 
ATOM     29  C   UNL     1      -7.681  14.794   1.683  0.00  0.00    +0.131 C 
ATOM     30  O   UNL     1      -7.101  15.448   2.813  0.00  0.00    -0.371 OA
ATOM     31  C   UNL     1      -5.671  15.435   2.826  0.00  0.00    +0.131 C 
ATOM     32  C   UNL     1      -5.149  16.203   1.606  0.00  0.00    +0.140 C 
ATOM     33  C   UNL     1      -5.164  16.104   4.106  0.00  0.00    +0.039 C 
ATOM     34  C   UNL     1      -7.193  13.345   1.623  0.00  0.00    +0.039 C 
ENDBRANCH  24  27
ENDBRANCH  21  24
ENDBRANCH   1  18
TORSDOF 7
