REMARK  Name = ZINC66354580
REMARK  10 active torsions:
REMARK  status: ('A' for Active; 'I' for Inactive)
REMARK    1  A    between atoms: C_1  and  C_2
REMARK    2  A    between atoms: C_2  and  C_3
REMARK    3  A    between atoms: C_3  and  C_33
REMARK    4  A    between atoms: C_16  and  S_18
REMARK    5  A    between atoms: S_18  and  C_19
REMARK    6  A    between atoms: C_19  and  C_20
REMARK    7  A    between atoms: N_22  and  C_23
REMARK    8  A    between atoms: C_26  and  O_29
REMARK    9  A    between atoms: O_29  and  C_30
REMARK   10  A    between atoms: C_30  and  C_31
REMARK                            x       y       z     vdW  Elec       q    Type
REMARK                         _______ _______ _______ _____ _____    ______ ____
ROOT
ATOM      1  C   UNL     1      -0.826  -1.011  -0.498  0.00  0.00    +0.071 C 
ATOM      2  C   UNL     1      -1.047  -2.465  -0.071  0.00  0.00    +0.067 C 
ATOM      3  C   UNL     1      -2.499  -2.831  -0.346  0.00  0.00    -0.042 C 
ATOM      4  C   UNL     1      -3.241  -2.054  -1.160  0.00  0.00    +0.013 C 
ATOM      5  C   UNL     1      -2.756  -0.851  -1.905  0.00  0.00    +0.202 C 
ATOM      6  O   UNL     1      -1.323  -0.816  -1.826  0.00  0.00    -0.368 OA
ATOM      7  S   UNL     1      -4.903  -2.707  -1.125  0.00  0.00    -0.099 S 
ATOM      8  C   UNL     1      -4.710  -3.700   0.405  0.00  0.00    +0.184 C 
ATOM      9  C   UNL     1      -3.199  -4.027   0.166  0.00  0.00    +0.114 C 
ATOM     10  C   UNL     1      -2.732  -4.810   1.333  0.00  0.00    +0.105 C 
ATOM     11  N   UNL     1      -3.586  -5.753   1.726  0.00  0.00    -0.211 NA
ATOM     12  C   UNL     1      -4.744  -5.961   1.041  0.00  0.00    +0.187 C 
ATOM     13  N   UNL     1      -5.384  -4.987   0.388  0.00  0.00    -0.244 NA
ATOM     14  N   UNL     1      -1.540  -4.586   1.948  0.00  0.00    -0.346 N 
ATOM     15  C   UNL     1      -1.566  -0.081   0.465  0.00  0.00    +0.042 C 
ATOM     16  H   UNL     1      -1.396  -4.897   2.856  0.00  0.00    +0.143 HD
ATOM     17  H   UNL     1      -0.833  -4.116   1.480  0.00  0.00    +0.143 HD
ENDROOT
BRANCH   1  19
ATOM     18  C   UNL     1       0.883   0.793  -0.762  0.00  0.00    +0.007 C 
ATOM     19  C   UNL     1       0.670  -0.693  -0.464  0.00  0.00    +0.032 C 
ENDBRANCH   1  19
BRANCH  12  20
ATOM     20  S   UNL     1      -5.444  -7.578   1.034  0.00  0.00    -0.077 S 
BRANCH  20  21
ATOM     21  C   UNL     1      -6.942  -7.404   0.027  0.00  0.00    +0.173 C 
BRANCH  21  22
ATOM     22  C   UNL     1      -7.646  -8.733  -0.060  0.00  0.00    +0.227 C 
ATOM     23  O   UNL     1      -7.183  -9.703   0.501  0.00  0.00    -0.275 OA
ATOM     24  N   UNL     1      -8.791  -8.845  -0.763  0.00  0.00    -0.285 N 
ATOM     25  H   UNL     1      -9.122  -8.089  -1.274  0.00  0.00    +0.155 HD
BRANCH  24  26
ATOM     26  C   UNL     1      -9.503 -10.052  -0.756  0.00  0.00    +0.034 A 
ATOM     27  C   UNL     1     -10.200 -10.454  -1.888  0.00  0.00    +0.027 A 
ATOM     28  C   UNL     1     -10.901 -11.643  -1.880  0.00  0.00    +0.047 A 
ATOM     29  C   UNL     1     -10.909 -12.437  -0.742  0.00  0.00    +0.121 A 
ATOM     30  C   UNL     1     -10.213 -12.035   0.389  0.00  0.00    +0.047 A 
ATOM     31  C   UNL     1      -9.507 -10.849   0.381  0.00  0.00    +0.027 A 
BRANCH  29  32
ATOM     32  O   UNL     1     -11.600 -13.608  -0.735  0.00  0.00    -0.492 OA
BRANCH  32  33
ATOM     33  C   UNL     1     -11.565 -14.374   0.470  0.00  0.00    +0.225 C 
ATOM     34  C   UNL     1     -12.393 -15.648   0.289  0.00  0.00    +0.048 C 
ENDBRANCH  32  33
ENDBRANCH  29  32
ENDBRANCH  24  26
ENDBRANCH  21  22
ENDBRANCH  20  21
ENDBRANCH  12  20
TORSDOF 7
