REMARK  Name = ZINC32900874
REMARK  11 active torsions:
REMARK  status: ('A' for Active; 'I' for Inactive)
REMARK    1  A    between atoms: C_1  and  C_2
REMARK    2  A    between atoms: C_2  and  C_4
REMARK    3  A    between atoms: C_2  and  O_11
REMARK    4  A    between atoms: O_11  and  C_12
REMARK    5  A    between atoms: C_12  and  C_13
REMARK    6  A    between atoms: C_13  and  C_15
REMARK    7  A    between atoms: C_13  and  O_32
REMARK    8  A    between atoms: C_15  and  N_16
REMARK    9  A    between atoms: C_19  and  N_22
REMARK   10  A    between atoms: N_22  and  S_23
REMARK   11  A    between atoms: S_23  and  C_26
REMARK                            x       y       z     vdW  Elec       q    Type
REMARK                         _______ _______ _______ _____ _____    ______ ____
ROOT
ATOM      1  N   UNL     1      -2.166   1.193  -1.260  0.00  0.00    +0.381 N 
ATOM      2  C   UNL     1      -2.816   1.464   0.029  0.00  0.00    -0.077 C 
ATOM      3  C   UNL     1      -4.240   0.905   0.012  0.00  0.00    +0.002 C 
ATOM      4  C   UNL     1      -5.027   1.561  -1.126  0.00  0.00    +0.073 C 
ATOM      5  C   UNL     1      -4.304   1.305  -2.451  0.00  0.00    +0.002 C 
ATOM      6  C   UNL     1      -2.877   1.853  -2.362  0.00  0.00    -0.077 C 
ATOM      7  H   UNL     1      -2.209   0.108  -1.435  0.00  0.00    -0.082 HD
ENDROOT
BRANCH   4   8
ATOM      8  N   UNL     1      -6.374   0.988  -1.184  0.00  0.00    -0.187 NA
ATOM      9  H   UNL     1      -6.586   0.151  -1.866  0.00  0.00    +0.148 HD
BRANCH   8  10
ATOM     10  S   UNL     1      -7.631   1.746  -0.418  0.00  0.00    +0.059 S 
ATOM     11  O   UNL     1      -8.793   0.970  -0.679  0.00  0.00    -0.153 OA
ATOM     12  O   UNL     1      -7.188   2.034   0.901  0.00  0.00    -0.153 OA
BRANCH  10  13
ATOM     13  C   UNL     1      -7.870   3.297  -1.219  0.00  0.00    +0.105 A 
ATOM     14  C   UNL     1      -7.197   4.418  -0.770  0.00  0.00    +0.028 A 
ATOM     15  C   UNL     1      -7.381   5.633  -1.402  0.00  0.00    +0.002 A 
ATOM     16  C   UNL     1      -8.246   5.730  -2.476  0.00  0.00    +0.000 A 
ATOM     17  C   UNL     1      -8.924   4.610  -2.921  0.00  0.00    +0.002 A 
ATOM     18  C   UNL     1      -8.735   3.394  -2.293  0.00  0.00    +0.028 A 
ENDBRANCH  10  13
ENDBRANCH   8  10
ENDBRANCH   4   8
BRANCH   1  19
ATOM     19  C   UNL     1      -0.753   1.593  -1.232  0.00  0.00    -0.045 C 
BRANCH  19  20
ATOM     20  C   UNL     1      -0.049   1.066  -2.484  0.00  0.00    +0.124 C 
BRANCH  20  21
ATOM     21  O   UNL     1      -0.153  -0.358  -2.526  0.00  0.00    -0.391 OA
ATOM     22  H   UNL     1      -1.144  -0.836  -2.557  0.00  0.00    +0.210 HD
ENDBRANCH  20  21
BRANCH  20  23
ATOM     23  C   UNL     1       1.427   1.468  -2.446  0.00  0.00    +0.190 C 
BRANCH  23  24
ATOM     24  O   UNL     1       2.058   1.078  -3.668  0.00  0.00    -0.370 OA
BRANCH  24  26
ATOM     25  C   UNL     1       3.609   2.806  -4.340  0.00  0.00    +0.043 C 
ATOM     26  C   UNL     1       3.447   1.409  -3.736  0.00  0.00    +0.145 C 
BRANCH  26  27
ATOM     27  C   UNL     1       4.161   0.402  -4.599  0.00  0.00    -0.019 A 
ATOM     28  C   UNL     1       3.561  -0.070  -5.752  0.00  0.00    +0.007 A 
ATOM     29  C   UNL     1       4.218  -0.990  -6.547  0.00  0.00    +0.020 A 
ATOM     30  C   UNL     1       5.473  -1.446  -6.184  0.00  0.00    +0.041 A 
ATOM     31  C   UNL     1       6.071  -0.977  -5.028  0.00  0.00    +0.020 A 
ATOM     32  C   UNL     1       5.415  -0.053  -4.236  0.00  0.00    +0.007 A 
ATOM     33 CL   UNL     1       6.296  -2.607  -7.178  0.00  0.00    -0.084 Cl
ENDBRANCH  26  27
ENDBRANCH  24  26
ENDBRANCH  23  24
ENDBRANCH  20  23
ENDBRANCH  19  20
ENDBRANCH   1  19
TORSDOF 10
