REMARK  Name = ZINC19526495
REMARK  9 active torsions:
REMARK  status: ('A' for Active; 'I' for Inactive)
REMARK    1  A    between atoms: C_1  and  C_2
REMARK    2  A    between atoms: C_2  and  N_3
REMARK    3  A    between atoms: N_3  and  C_4
REMARK    4  A    between atoms: N_3  and  C_6
REMARK    5  A    between atoms: C_4  and  C_5
REMARK    6  A    between atoms: C_9  and  C_14
REMARK    7  A    between atoms: C_10  and  O_12
REMARK    8  A    between atoms: O_12  and  C_13
REMARK    9  A    between atoms: C_14  and  N_15
REMARK                            x       y       z     vdW  Elec       q    Type
REMARK                         _______ _______ _______ _____ _____    ______ ____
ROOT
ATOM      1  N   UNL     1      -5.293   4.677  -1.310  0.00  0.00    +0.383 N 
ATOM      2  C   UNL     1      -5.065   3.607  -2.291  0.00  0.00    -0.073 C 
ATOM      3  C   UNL     1      -5.267   4.157  -3.704  0.00  0.00    +0.050 C 
ATOM      4  C   UNL     1      -6.696   4.697  -3.837  0.00  0.00    +0.175 C 
ATOM      5  C   UNL     1      -6.920   5.778  -2.775  0.00  0.00    +0.050 C 
ATOM      6  C   UNL     1      -6.670   5.183  -1.387  0.00  0.00    -0.073 C 
ATOM      7  N   UNL     1      -7.645   3.603  -3.621  0.00  0.00    -0.274 N 
ATOM      8  C   UNL     1      -8.889   3.670  -4.145  0.00  0.00    +0.250 C 
ATOM      9  O   UNL     1      -9.735   2.844  -3.862  0.00  0.00    -0.270 OA
ATOM     10  C   UNL     1      -9.189   4.779  -5.073  0.00  0.00    +0.078 A 
ATOM     11  C   UNL     1     -10.489   5.050  -5.490  0.00  0.00    +0.017 A 
ATOM     12  C   UNL     1     -10.722   6.104  -6.349  0.00  0.00    +0.001 A 
ATOM     13  C   UNL     1      -9.670   6.889  -6.795  0.00  0.00    +0.004 A 
ATOM     14  C   UNL     1      -8.376   6.625  -6.391  0.00  0.00    +0.046 A 
ATOM     15  C   UNL     1      -8.124   5.567  -5.534  0.00  0.00    +0.135 A 
ATOM     16  O   UNL     1      -6.864   5.267  -5.135  0.00  0.00    -0.468 OA
ATOM     17  H   UNL     1      -7.347   2.725  -3.030  0.00  0.00    +0.153 HD
ATOM     18  H   UNL     1      -4.616   5.508  -1.557  0.00  0.00    -0.081 HD
ENDROOT
BRANCH   1  19
ATOM     19  C   UNL     1      -4.975   4.221   0.049  0.00  0.00    -0.039 C 
BRANCH  19  23
ATOM     20  C   UNL     1      -1.237   2.143   0.020  0.00  0.00    +0.033 A 
ATOM     21  C   UNL     1      -2.431   1.433   0.016  0.00  0.00    +0.023 A 
ATOM     22  C   UNL     1      -3.636   2.107   0.031  0.00  0.00    +0.007 A 
ATOM     23  C   UNL     1      -3.658   3.489   0.038  0.00  0.00    -0.022 A 
ATOM     24  C   UNL     1      -2.468   4.203   0.037  0.00  0.00    +0.123 A 
ATOM     25  C   UNL     1      -1.257   3.530   0.027  0.00  0.00    +0.069 A 
BRANCH  24  26
ATOM     26  O   UNL     1      -2.491   5.562   0.045  0.00  0.00    -0.495 OA
ATOM     27  C   UNL     1      -1.229   6.232   0.043  0.00  0.00    +0.277 C 
ENDBRANCH  24  26
BRANCH  20  28
ATOM     28  N   UNL     1      -0.018   1.461   0.010  0.00  0.00    -0.330 N 
BRANCH  28  30
ATOM     29  C   UNL     1       0.023  -0.522   1.442  0.00  0.00    +0.024 C 
ATOM     30  C   UNL     1       0.002  -0.004   0.002  0.00  0.00    +0.102 C 
ENDBRANCH  28  30
BRANCH  28  31
ATOM     31  C   UNL     1       1.241   2.211   0.002  0.00  0.00    +0.102 C 
ATOM     32  C   UNL     1       1.665   2.479  -1.443  0.00  0.00    +0.024 C 
ENDBRANCH  28  31
ENDBRANCH  20  28
ENDBRANCH  19  23
ENDBRANCH   1  19
TORSDOF 6
