REMARK  Name = ZINC36597495
REMARK  18 active torsions:
REMARK  status: ('A' for Active; 'I' for Inactive)
REMARK    1  A    between atoms: C_1  and  C_2
REMARK    2  A    between atoms: C_5  and  C_7
REMARK    3  A    between atoms: C_7  and  N_8
REMARK    4  A    between atoms: N_8  and  C_9
REMARK    5  A    between atoms: C_9  and  C_11
REMARK    6  A    between atoms: C_9  and  C_18
REMARK    7  A    between atoms: C_16  and  O_17
REMARK    8  A    between atoms: N_20  and  C_21
REMARK    9  A    between atoms: C_21  and  C_22
REMARK   10  A    between atoms: C_21  and  C_23
REMARK   11  A    between atoms: C_21  and  C_24
REMARK   12  A    between atoms: C_24  and  C_25
REMARK   13  A    between atoms: C_25  and  C_26
REMARK   14  A    between atoms: C_25  and  C_27
REMARK   15  A    between atoms: C_25  and  C_28
REMARK   16  A    between atoms: C_29  and  C_31
REMARK   17  A    between atoms: C_32  and  O_38
REMARK   18  A    between atoms: C_36  and  O_37
REMARK                            x       y       z     vdW  Elec       q    Type
REMARK                         _______ _______ _______ _____ _____    ______ ____
ROOT
ATOM      1  C   UNL     1       2.873  -1.581  -4.154  0.00  0.00    +0.196 C 
ENDROOT
BRANCH   1   2
ATOM      2  C   UNL     1       4.090  -2.018  -3.380  0.00  0.00    +0.023 A 
ATOM      3  C   UNL     1       4.520  -1.279  -2.294  0.00  0.00    +0.009 A 
ATOM      4  C   UNL     1       5.637  -1.678  -1.584  0.00  0.00    +0.001 A 
ATOM      5  C   UNL     1       6.325  -2.818  -1.957  0.00  0.00    +0.004 A 
ATOM      6  C   UNL     1       5.899  -3.560  -3.041  0.00  0.00    +0.046 A 
ATOM      7  C   UNL     1       4.775  -3.164  -3.752  0.00  0.00    +0.122 A 
BRANCH   7   8
ATOM      8  O   UNL     1       4.350  -3.896  -4.816  0.00  0.00    -0.506 OA
ATOM      9  H   UNL     1       4.796  -3.679  -5.646  0.00  0.00    +0.292 HD
ENDBRANCH   7   8
ENDBRANCH   1   2
BRANCH   1  10
ATOM     10  C   UNL     1       2.614  -0.119  -3.900  0.00  0.00    +0.239 C 
ATOM     11  O   UNL     1       1.654   0.222  -3.241  0.00  0.00    -0.273 OA
ATOM     12  N   UNL     1       3.448   0.811  -4.405  0.00  0.00    -0.308 N 
ATOM     13  H   UNL     1       4.164   0.546  -5.004  0.00  0.00    +0.149 HD
BRANCH  12  14
ATOM     14  C   UNL     1       3.273   2.222  -4.051  0.00  0.00    +0.030 C 
ATOM     15  C   UNL     1       1.986   2.752  -4.687  0.00  0.00    +0.031 C 
ATOM     16  C   UNL     1       3.185   2.359  -2.530  0.00  0.00    +0.031 C 
BRANCH  14  17
ATOM     17  C   UNL     1       4.466   3.029  -4.568  0.00  0.00    +0.031 C 
BRANCH  17  18
ATOM     18  C   UNL     1       5.725   2.630  -3.795  0.00  0.00    -0.036 C 
ATOM     19  C   UNL     1       5.683   1.130  -3.492  0.00  0.00    +0.010 C 
ATOM     20  C   UNL     1       6.962   2.946  -4.638  0.00  0.00    +0.010 C 
ATOM     21  C   UNL     1       5.788   3.413  -2.482  0.00  0.00    +0.010 C 
ENDBRANCH  17  18
ENDBRANCH  14  17
ENDBRANCH  12  14
ENDBRANCH   1  10
BRANCH   1  22
ATOM     22  N   UNL     1       1.713  -2.365  -3.723  0.00  0.00    -0.274 N 
ATOM     23  C   UNL     1       1.414  -2.461  -2.412  0.00  0.00    +0.255 C 
ATOM     24  O   UNL     1       2.107  -1.897  -1.587  0.00  0.00    -0.270 OA
BRANCH  23  25
ATOM     25  C   UNL     1       0.248  -3.249  -1.978  0.00  0.00    +0.119 A 
ATOM     26  C   UNL     1       0.388  -4.611  -1.678  0.00  0.00    +0.133 A 
ATOM     27  C   UNL     1      -0.715  -5.343  -1.270  0.00  0.00    +0.046 A 
ATOM     28  C   UNL     1      -1.952  -4.734  -1.159  0.00  0.00    +0.007 A 
ATOM     29  C   UNL     1      -2.101  -3.392  -1.454  0.00  0.00    +0.046 A 
ATOM     30  C   UNL     1      -1.010  -2.640  -1.857  0.00  0.00    +0.133 A 
BRANCH  30  31
ATOM     31  O   UNL     1      -1.158  -1.322  -2.139  0.00  0.00    -0.506 OA
ATOM     32  H   UNL     1      -1.379  -1.139  -3.063  0.00  0.00    +0.292 HD
ENDBRANCH  30  31
BRANCH  26  33
ATOM     33  O   UNL     1       1.600  -5.211  -1.786  0.00  0.00    -0.506 OA
ATOM     34  H   UNL     1       2.128  -5.181  -0.976  0.00  0.00    +0.292 HD
ENDBRANCH  26  33
ENDBRANCH  23  25
BRANCH  22  35
ATOM     35  C   UNL     1       0.877  -3.044  -4.716  0.00  0.00    +0.183 C 
BRANCH  35  40
ATOM     36  C   UNL     1       3.763  -6.529  -6.946  0.00  0.00    +0.086 C 
ATOM     37  C   UNL     1       2.747  -5.891  -6.034  0.00  0.00    +0.102 A 
ATOM     38  C   UNL     1       1.996  -6.532  -5.121  0.00  0.00    +0.045 A 
ATOM     39  C   UNL     1       1.188  -5.556  -4.496  0.00  0.00    +0.046 A 
ATOM     40  C   UNL     1       1.492  -4.375  -5.064  0.00  0.00    +0.122 A 
ATOM     41  O   UNL     1       2.442  -4.583  -5.991  0.00  0.00    -0.463 OA
ENDBRANCH  35  40
ENDBRANCH  22  35
ENDBRANCH   1  22
TORSDOF 12
