REMARK  Name = ZINC39682462
REMARK  8 active torsions:
REMARK  status: ('A' for Active; 'I' for Inactive)
REMARK    1  A    between atoms: C_4  and  C_7
REMARK    2  A    between atoms: C_7  and  C_9
REMARK    3  A    between atoms: C_7  and  N_13
REMARK    4  A    between atoms: C_9  and  C_10
REMARK    5  A    between atoms: C_14  and  C_16
REMARK    6  A    between atoms: C_27  and  C_29
REMARK    7  A    between atoms: C_29  and  O_30
REMARK    8  A    between atoms: O_30  and  C_31
REMARK                            x       y       z     vdW  Elec       q    Type
REMARK                         _______ _______ _______ _____ _____    ______ ____
ROOT
ATOM      1  C   UNL     1       4.373  -3.138   2.445  0.00  0.00    +0.100 C 
ATOM      2  C   UNL     1       3.297  -2.698   3.463  0.00  0.00    +0.121 C 
ATOM      3  N   UNL     1       3.824  -3.135   4.777  0.00  0.00    -0.297 N 
ATOM      4  C   UNL     1       5.278  -2.857   4.703  0.00  0.00    +0.115 C 
ATOM      5  C   UNL     1       5.672  -3.240   3.263  0.00  0.00    -0.004 C 
ATOM      6  C   UNL     1       6.714  -2.264   2.724  0.00  0.00    -0.010 C 
ATOM      7  C   UNL     1       8.015  -2.426   3.514  0.00  0.00    -0.082 C 
ATOM      8  N   UNL     1       8.498  -3.806   3.390  0.00  0.00    +0.379 N 
ATOM      9  C   UNL     1       7.531  -4.731   3.995  0.00  0.00    -0.082 C 
ATOM     10  C   UNL     1       6.210  -4.667   3.224  0.00  0.00    -0.010 C 
ATOM     11  C   UNL     1       3.136  -3.667   5.807  0.00  0.00    +0.253 C 
ATOM     12  O   UNL     1       3.715  -3.977   6.827  0.00  0.00    -0.272 OA
ATOM     13  H   UNL     1       8.613  -4.034   2.414  0.00  0.00    -0.086 HD
ATOM     14  H   UNL     1       9.386  -3.894   3.861  0.00  0.00    -0.086 HD
ENDROOT
BRANCH   1  16
ATOM     15  N   UNL     1       4.890  -2.483   0.117  0.00  0.00    -0.308 N 
ATOM     16  C   UNL     1       4.518  -2.106   1.356  0.00  0.00    +0.219 C 
ATOM     17  O   UNL     1       4.301  -0.937   1.595  0.00  0.00    -0.275 OA
ATOM     18  H   UNL     1       5.131  -3.406  -0.058  0.00  0.00    +0.149 HD
BRANCH  15  19
ATOM     19  C   UNL     1       4.928  -1.498  -0.967  0.00  0.00    +0.114 C 
BRANCH  19  23
ATOM     20  C   UNL     1       4.188  -3.450  -4.694  0.00  0.00    +0.000 A 
ATOM     21  C   UNL     1       3.635  -2.208  -4.442  0.00  0.00    +0.000 A 
ATOM     22  C   UNL     1       3.874  -1.577  -3.236  0.00  0.00    +0.005 A 
ATOM     23  C   UNL     1       4.667  -2.187  -2.282  0.00  0.00    -0.027 A 
ATOM     24  C   UNL     1       5.220  -3.429  -2.534  0.00  0.00    +0.005 A 
ATOM     25  C   UNL     1       4.981  -4.059  -3.740  0.00  0.00    +0.000 A 
ENDBRANCH  19  23
BRANCH  19  26
ATOM     26  C   UNL     1       6.307  -0.835  -1.005  0.00  0.00    +0.152 C 
BRANCH  26  27
ATOM     27  C   UNL     1       6.296   0.291  -2.006  0.00  0.00    +0.358 C 
ATOM     28  O   UNL     1       5.251   0.619  -2.543  0.00  0.00    -0.246 OA
ATOM     29  O   UNL     1       7.331   0.874  -2.280  0.00  0.00    -0.246 OA
ENDBRANCH  26  27
ENDBRANCH  19  26
ENDBRANCH  15  19
ENDBRANCH   1  16
BRANCH  11  30
ATOM     30  C   UNL     1       1.649  -3.877   5.692  0.00  0.00    +0.324 C 
BRANCH  30  31
ATOM     31  O   UNL     1       1.153  -4.449   6.904  0.00  0.00    -0.483 OA
BRANCH  31  32
ATOM     32  C   UNL     1      -0.181  -4.703   6.966  0.00  0.00    +0.123 A 
ATOM     33  C   UNL     1      -0.995  -4.413   5.880  0.00  0.00    +0.046 A 
ATOM     34  C   UNL     1      -2.350  -4.673   5.944  0.00  0.00    +0.005 A 
ATOM     35  C   UNL     1      -2.896  -5.221   7.090  0.00  0.00    +0.020 A 
ATOM     36  C   UNL     1      -2.088  -5.510   8.175  0.00  0.00    +0.044 A 
ATOM     37  C   UNL     1      -0.730  -5.257   8.112  0.00  0.00    +0.065 A 
ATOM     38 CL   UNL     1      -2.777  -6.198   9.612  0.00  0.00    -0.083 Cl
ENDBRANCH  31  32
ENDBRANCH  30  31
ENDBRANCH  11  30
TORSDOF 8
