REMARK  Name = ZINC60305866
REMARK  8 active torsions:
REMARK  status: ('A' for Active; 'I' for Inactive)
REMARK    1  A    between atoms: C_1  and  C_2
REMARK    2  A    between atoms: C_3  and  C_13
REMARK    3  A    between atoms: C_5  and  C_7
REMARK    4  A    between atoms: N_15  and  C_16
REMARK    5  A    between atoms: C_16  and  C_17
REMARK    6  A    between atoms: C_17  and  C_18
REMARK    7  A    between atoms: C_18  and  N_19
REMARK    8  A    between atoms: C_20  and  C_22
REMARK                            x       y       z     vdW  Elec       q    Type
REMARK                         _______ _______ _______ _____ _____    ______ ____
ROOT
ATOM      1  C   UNL     1      -0.009  -0.195  -2.574  0.00  0.00    +0.252 C 
ATOM      2  O   UNL     1      -0.027   1.005  -2.781  0.00  0.00    -0.270 OA
ATOM      3  N   UNL     1      -0.003  -1.057  -3.610  0.00  0.00    -0.311 N 
ATOM      4  H   UNL     1       0.012  -2.013  -3.445  0.00  0.00    +0.149 HD
ENDROOT
BRANCH   1   7
ATOM      5  C   UNL     1      -0.018   1.503   0.010  0.00  0.00    +0.067 C 
ATOM      6  C   UNL     1       0.002  -0.004   0.002  0.00  0.00    +0.058 A 
ATOM      7  C   UNL     1       0.005  -0.700  -1.200  0.00  0.00    +0.097 A 
ATOM      8  S   UNL     1       0.031  -2.386  -0.604  0.00  0.00    -0.062 S 
ATOM      9  C   UNL     1       0.035  -2.002   1.142  0.00  0.00    +0.116 A 
ATOM     10  N   UNL     1       0.022  -0.669   1.122  0.00  0.00    -0.243 NA
BRANCH   9  11
ATOM     11  C   UNL     1       0.053  -2.913   2.293  0.00  0.00    +0.046 A 
ATOM     12  C   UNL     1       0.050  -2.612   3.644  0.00  0.00    +0.019 A 
ATOM     13  C   UNL     1       0.069  -3.649   4.545  0.00  0.00    +0.028 A 
ATOM     14  C   UNL     1       0.091  -4.930   4.085  0.00  0.00    +0.079 A 
ATOM     15  S   UNL     1       0.076  -4.698   2.315  0.00  0.00    -0.075 S 
ATOM     16 CL   UNL     1       0.118  -6.412   4.989  0.00  0.00    -0.076 Cl
ENDBRANCH   9  11
ENDBRANCH   1   7
BRANCH   3  17
ATOM     17  C   UNL     1      -0.017  -0.551  -4.984  0.00  0.00    +0.106 C 
BRANCH  17  18
ATOM     18  C   UNL     1      -0.006  -1.728  -5.962  0.00  0.00    +0.037 C 
BRANCH  18  19
ATOM     19  C   UNL     1      -0.021  -1.199  -7.397  0.00  0.00    +0.106 C 
BRANCH  19  20
ATOM     20  N   UNL     1      -0.010  -2.326  -8.333  0.00  0.00    -0.311 N 
ATOM     21  C   UNL     1      -0.021  -2.100  -9.661  0.00  0.00    +0.251 C 
ATOM     22  O   UNL     1      -0.039  -0.959 -10.084  0.00  0.00    -0.270 OA
ATOM     23  H   UNL     1       0.004  -3.236  -7.996  0.00  0.00    +0.149 HD
BRANCH  21  24
ATOM     24  C   UNL     1      -0.010  -3.228 -10.598  0.00  0.00    +0.074 A 
ATOM     25  C   UNL     1      -0.012  -3.213 -11.984  0.00  0.00    +0.021 A 
ATOM     26  C   UNL     1       0.001  -4.444 -12.594  0.00  0.00    +0.008 A 
ATOM     27  C   UNL     1       0.014  -5.561 -11.825  0.00  0.00    +0.046 A 
ATOM     28  S   UNL     1       0.018  -4.976 -10.250  0.00  0.00    -0.092 S 
ENDBRANCH  21  24
ENDBRANCH  19  20
ENDBRANCH  18  19
ENDBRANCH  17  18
ENDBRANCH   3  17
TORSDOF 7
