REMARK  Name = ZINC21647762
REMARK  9 active torsions:
REMARK  status: ('A' for Active; 'I' for Inactive)
REMARK    1  A    between atoms: C_1  and  C_2
REMARK    2  A    between atoms: C_2  and  N_3
REMARK    3  A    between atoms: C_7  and  C_9
REMARK    4  A    between atoms: C_9  and  N_10
REMARK    5  A    between atoms: C_11  and  C_13
REMARK    6  A    between atoms: C_13  and  N_14
REMARK    7  A    between atoms: C_19  and  C_21
REMARK    8  A    between atoms: N_23  and  C_30
REMARK    9  A    between atoms: C_24  and  N_25
REMARK                            x       y       z     vdW  Elec       q    Type
REMARK                         _______ _______ _______ _____ _____    ______ ____
ROOT
ATOM      1  N   UNL     1       0.732  -3.678  -3.059  0.00  0.00    -0.220 N 
ATOM      2  C   UNL     1      -0.424  -4.229  -3.484  0.00  0.00    +0.281 A 
ATOM      3  O   UNL     1      -1.365  -3.525  -3.805  0.00  0.00    -0.265 OA
ATOM      4  C   UNL     1      -0.526  -5.685  -3.552  0.00  0.00    +0.112 A 
ATOM      5  C   UNL     1       0.651  -6.474  -3.148  0.00  0.00    +0.123 A 
ATOM      6  C   UNL     1       1.843  -5.742  -2.706  0.00  0.00    +0.086 A 
ATOM      7  N   UNL     1       1.834  -4.445  -2.688  0.00  0.00    -0.171 NA
ATOM      8  C   UNL     1       3.077  -6.495  -2.281  0.00  0.00    +0.070 C 
ATOM      9  N   UNL     1       0.331  -7.738  -3.289  0.00  0.00    -0.162 NA
ATOM     10  N   UNL     1      -0.984  -7.831  -3.761  0.00  0.00    -0.215 N 
ATOM     11  C   UNL     1      -1.500  -6.594  -3.919  0.00  0.00    +0.154 A 
ENDROOT
BRANCH  10  12
ATOM     12  C   UNL     1      -1.661  -9.027  -4.028  0.00  0.00    +0.068 A 
ATOM     13  C   UNL     1      -3.024  -9.125  -3.779  0.00  0.00    +0.029 A 
ATOM     14  C   UNL     1      -3.691 -10.305  -4.048  0.00  0.00    +0.022 A 
ATOM     15  C   UNL     1      -3.000 -11.392  -4.555  0.00  0.00    +0.041 A 
ATOM     16  C   UNL     1      -1.641 -11.298  -4.798  0.00  0.00    +0.022 A 
ATOM     17  C   UNL     1      -0.970 -10.120  -4.536  0.00  0.00    +0.029 A 
ATOM     18 CL   UNL     1      -3.839 -12.875  -4.884  0.00  0.00    -0.084 Cl
ENDBRANCH  10  12
BRANCH  11  19
ATOM     19  N   UNL     1      -2.780  -6.290  -4.370  0.00  0.00    -0.307 N 
ATOM     20  C   UNL     1      -3.624  -5.370  -3.812  0.00  0.00    +0.092 A 
ATOM     21  C   UNL     1      -4.766  -5.358  -4.529  0.00  0.00    +0.019 A 
ATOM     22  C   UNL     1      -4.630  -6.310  -5.560  0.00  0.00    +0.019 A 
ATOM     23  C   UNL     1      -3.407  -6.865  -5.440  0.00  0.00    +0.092 A 
ENDBRANCH  11  19
BRANCH   1  24
ATOM     24  C   UNL     1       0.834  -2.218  -2.991  0.00  0.00    +0.243 C 
BRANCH  24  26
ATOM     25  N   UNL     1       0.401  -0.431  -1.337  0.00  0.00    -0.315 N 
ATOM     26  C   UNL     1       0.391  -1.746  -1.631  0.00  0.00    +0.235 C 
ATOM     27  O   UNL     1       0.026  -2.550  -0.799  0.00  0.00    -0.274 OA
ATOM     28  H   UNL     1       0.732   0.298  -2.092  0.00  0.00    +0.149 HD
BRANCH  25  29
ATOM     29  C   UNL     1      -0.030   0.028  -0.015  0.00  0.00    +0.089 C 
BRANCH  29  34
ATOM     30  N   UNL     1      -0.567   2.030   1.310  0.00  0.00    +0.382 N 
ATOM     31  C   UNL     1       0.488   2.811   1.990  0.00  0.00    -0.078 C 
ATOM     32  C   UNL     1       1.408   3.311   0.848  0.00  0.00    -0.020 C 
ATOM     33  C   UNL     1       1.398   2.096  -0.120  0.00  0.00    -0.016 C 
ATOM     34  C   UNL     1      -0.041   1.558   0.016  0.00  0.00    -0.051 C 
ATOM     35  H   UNL     1      -1.451   2.663   1.141  0.00  0.00    -0.081 HD
BRANCH  30  37
ATOM     36  C   UNL     1      -1.452   1.421   3.511  0.00  0.00    -0.017 C 
ATOM     37  C   UNL     1      -1.006   0.902   2.143  0.00  0.00    -0.082 C 
ENDBRANCH  30  37
ENDBRANCH  29  34
ENDBRANCH  25  29
ENDBRANCH  24  26
ENDBRANCH   1  24
TORSDOF 7
