REMARK  Name = ZINC38573427
REMARK  8 active torsions:
REMARK  status: ('A' for Active; 'I' for Inactive)
REMARK    1  A    between atoms: C_1  and  C_2
REMARK    2  A    between atoms: C_5  and  O_36
REMARK    3  A    between atoms: C_6  and  C_8
REMARK    4  A    between atoms: C_11  and  C_13
REMARK    5  A    between atoms: N_15  and  C_16
REMARK    6  A    between atoms: C_18  and  C_26
REMARK    7  A    between atoms: N_28  and  C_29
REMARK    8  A    between atoms: C_29  and  C_30
REMARK                            x       y       z     vdW  Elec       q    Type
REMARK                         _______ _______ _______ _____ _____    ______ ____
ROOT
ATOM      1  C   UNL     1       0.075  -3.645   6.157  0.00  0.00    +0.261 C 
ATOM      2  O   UNL     1       0.058  -2.637   6.838  0.00  0.00    -0.269 OA
ATOM      3  N   UNL     1       0.098  -4.857   6.747  0.00  0.00    -0.294 N 
ATOM      4  H   UNL     1       0.112  -5.660   6.203  0.00  0.00    +0.150 HD
ENDROOT
BRANCH   3   5
ATOM      5  C   UNL     1       0.103  -4.961   8.208  0.00  0.00    +0.167 C 
ATOM      6  C   UNL     1      -0.939  -5.953   8.690  0.00  0.00    +0.045 C 
ATOM      7  C   UNL     1      -2.058  -5.495   9.215  0.00  0.00    -0.046 C 
ATOM      8  C   UNL     1      -3.259  -6.005  10.012  0.00  0.00    +0.032 C 
ATOM      9  C   UNL     1      -3.868  -4.782  10.732  0.00  0.00    +0.006 C 
ATOM     10  C   UNL     1      -2.767  -3.687  10.623  0.00  0.00    +0.019 C 
ATOM     11  C   UNL     1      -2.243  -3.974   9.204  0.00  0.00    +0.075 C 
ATOM     12  S   UNL     1      -0.513  -3.404   8.989  0.00  0.00    -0.126 S 
BRANCH   6  13
ATOM     13  C   UNL     1      -0.704  -7.400   8.573  0.00  0.00    +0.243 C 
ATOM     14  O   UNL     1      -1.546  -8.186   8.962  0.00  0.00    -0.270 OA
ATOM     15  N   UNL     1       0.445  -7.855   8.034  0.00  0.00    -0.309 N 
ATOM     16  H   UNL     1       1.117  -7.228   7.724  0.00  0.00    +0.149 HD
BRANCH  15  17
ATOM     17  C   UNL     1       0.679  -9.297   7.918  0.00  0.00    +0.136 C 
BRANCH  17  18
ATOM     18  C   UNL     1       2.047  -9.541   7.278  0.00  0.00    +0.135 C 
ATOM     19  C   UNL     1       2.251 -11.053   7.041  0.00  0.00    +0.035 C 
ATOM     20  C   UNL     1       3.749 -11.244   7.402  0.00  0.00    +0.031 C 
ATOM     21  C   UNL     1       3.911 -10.209   8.543  0.00  0.00    +0.160 C 
ATOM     22  O   UNL     1       3.083  -9.096   8.161  0.00  0.00    -0.375 OA
ENDBRANCH  17  18
ENDBRANCH  15  17
ENDBRANCH   6  13
ENDBRANCH   3   5
BRANCH   1  26
ATOM     23  C   UNL     1       0.052  -2.840   2.447  0.00  0.00    +0.080 C 
ATOM     24  N   UNL     1       0.076  -4.144   2.609  0.00  0.00    -0.153 NA
ATOM     25  N   UNL     1       0.086  -4.520   3.827  0.00  0.00    -0.148 NA
ATOM     26  C   UNL     1       0.070  -3.542   4.695  0.00  0.00    +0.131 C 
ATOM     27  C   UNL     1       0.052  -2.273   3.857  0.00  0.00    +0.120 C 
BRANCH  23  33
ATOM     28  C   UNL     1      -0.018   1.503   0.010  0.00  0.00    +0.044 C 
ATOM     29  C   UNL     1       0.002  -0.004   0.002  0.00  0.00    -0.050 A 
ATOM     30  C   UNL     1       0.006  -0.687  -1.205  0.00  0.00    +0.007 A 
ATOM     31  C   UNL     1       0.024  -2.068  -1.229  0.00  0.00    +0.046 A 
ATOM     32  C   UNL     1       0.040  -2.784  -0.042  0.00  0.00    +0.126 A 
ATOM     33  C   UNL     1       0.036  -2.097   1.185  0.00  0.00    +0.040 A 
ATOM     34  C   UNL     1       0.023  -0.695   1.192  0.00  0.00    +0.016 A 
BRANCH  32  35
ATOM     35  O   UNL     1       0.057  -4.140  -0.064  0.00  0.00    -0.506 OA
ATOM     36  H   UNL     1       0.945  -4.522  -0.075  0.00  0.00    +0.292 HD
ENDBRANCH  32  35
ENDBRANCH  23  33
ENDBRANCH   1  26
TORSDOF 7
