REMARK  Name = ZINC49194398
REMARK  8 active torsions:
REMARK  status: ('A' for Active; 'I' for Inactive)
REMARK    1  A    between atoms: C_1  and  C_2
REMARK    2  A    between atoms: C_2  and  C_3
REMARK    3  A    between atoms: C_3  and  N_4
REMARK    4  A    between atoms: C_5  and  C_7
REMARK    5  A    between atoms: C_7  and  C_9
REMARK    6  A    between atoms: C_7  and  N_10
REMARK    7  A    between atoms: N_10  and  C_11
REMARK    8  A    between atoms: C_14  and  N_21
REMARK                            x       y       z     vdW  Elec       q    Type
REMARK                         _______ _______ _______ _____ _____    ______ ____
ROOT
ATOM      1  C   UNL     1       2.635  -5.862  -3.509  0.00  0.00    +0.052 A 
ATOM      2  C   UNL     1       2.584  -6.663  -2.390  0.00  0.00    +0.027 A 
ATOM      3  C   UNL     1       3.182  -7.919  -2.381  0.00  0.00    +0.025 A 
ATOM      4  C   UNL     1       3.841  -8.393  -3.495  0.00  0.00    +0.034 A 
ATOM      5  C   UNL     1       3.908  -7.596  -4.657  0.00  0.00    +0.021 A 
ATOM      6  C   UNL     1       3.295  -6.319  -4.669  0.00  0.00    +0.069 A 
ATOM      7  N   UNL     1       3.354  -5.564  -5.769  0.00  0.00    -0.359 N 
ATOM      8  C   UNL     1       3.966  -5.981  -6.851  0.00  0.00    +0.083 A 
ATOM      9  C   UNL     1       4.583  -7.229  -6.908  0.00  0.00    +0.018 A 
ATOM     10  C   UNL     1       4.571  -8.046  -5.812  0.00  0.00    +0.013 A 
ATOM     11  H   UNL     1       2.935  -4.689  -5.768  0.00  0.00    +0.165 HD
ENDROOT
BRANCH   4  12
ATOM     12  N   UNL     1       4.438  -9.655  -3.474  0.00  0.00    -0.357 N 
ATOM     13  H   UNL     1       4.389 -10.201  -2.674  0.00  0.00    +0.142 HD
ATOM     14  H   UNL     1       4.900  -9.986  -4.260  0.00  0.00    +0.142 HD
ENDBRANCH   4  12
BRANCH   1  15
ATOM     15  N   UNL     1       2.027  -4.602  -3.498  0.00  0.00    -0.332 N 
ATOM     16  H   UNL     1       2.060  -4.041  -4.289  0.00  0.00    +0.147 HD
BRANCH  15  17
ATOM     17  C   UNL     1       1.341  -4.130  -2.293  0.00  0.00    +0.154 C 
ATOM     18  C   UNL     1      -0.094  -4.659  -2.282  0.00  0.00    +0.038 C 
BRANCH  17  20
ATOM     19  N   UNL     1       0.738  -1.962  -1.265  0.00  0.00    -0.314 N 
ATOM     20  C   UNL     1       1.321  -2.623  -2.285  0.00  0.00    +0.233 C 
ATOM     21  O   UNL     1       1.829  -2.004  -3.196  0.00  0.00    -0.274 OA
ATOM     22  H   UNL     1       0.332  -2.457  -0.536  0.00  0.00    +0.149 HD
BRANCH  19  23
ATOM     23  C   UNL     1       0.718  -0.497  -1.257  0.00  0.00    +0.104 C 
BRANCH  23  25
ATOM     24  C   UNL     1      -0.019   1.526   0.010  0.00  0.00    +0.005 C 
ATOM     25  C   UNL     1       0.002  -0.004   0.002  0.00  0.00    +0.015 C 
ENDBRANCH  23  25
ENDBRANCH  19  23
ENDBRANCH  17  20
ENDBRANCH  15  17
ENDBRANCH   1  15
TORSDOF 6
