REMARK  Name = ZINC09944570
REMARK  11 active torsions:
REMARK  status: ('A' for Active; 'I' for Inactive)
REMARK    1  A    between atoms: C_1  and  C_2
REMARK    2  A    between atoms: C_2  and  C_3
REMARK    3  A    between atoms: C_2  and  C_4
REMARK    4  A    between atoms: C_2  and  C_5
REMARK    5  A    between atoms: C_12  and  C_14
REMARK    6  A    between atoms: C_17  and  S_22
REMARK    7  A    between atoms: N_18  and  C_19
REMARK    8  A    between atoms: C_19  and  C_20
REMARK    9  A    between atoms: S_22  and  C_23
REMARK   10  A    between atoms: C_23  and  C_24
REMARK   11  A    between atoms: N_29  and  C_30
REMARK                            x       y       z     vdW  Elec       q    Type
REMARK                         _______ _______ _______ _____ _____    ______ ____
ROOT
ATOM      1  C   UNL     1       1.244  -0.436  -0.012  0.00  0.00    +0.172 A 
ATOM      2  N   UNL     1       0.002  -0.004   0.002  0.00  0.00    -0.128 NA
ATOM      3  N   UNL     1      -0.015   1.281   0.009  0.00  0.00    -0.122 NA
ATOM      4  C   UNL     1       1.211   1.750  -0.000  0.00  0.00    +0.193 A 
ATOM      5  N   UNL     1       2.057   0.676  -0.014  0.00  0.00    -0.298 N 
ENDROOT
BRANCH   1  12
ATOM      6  C   UNL     1       1.867  -6.603  -0.863  0.00  0.00    -0.001 C 
ATOM      7  C   UNL     1       2.912  -6.679   0.254  0.00  0.00    +0.009 C 
ATOM      8  C   UNL     1       3.791  -5.421   0.193  0.00  0.00    +0.043 C 
ATOM      9  C   UNL     1       2.898  -4.229   0.073  0.00  0.00    -0.006 A 
ATOM     10  C   UNL     1       1.573  -4.213  -0.252  0.00  0.00    -0.036 A 
ATOM     11  C   UNL     1       0.957  -2.969  -0.298  0.00  0.00    +0.023 A 
ATOM     12  C   UNL     1       1.682  -1.841  -0.024  0.00  0.00    +0.057 A 
ATOM     13  S   UNL     1       3.301  -2.519   0.309  0.00  0.00    -0.090 S 
ATOM     14  C   UNL     1       0.838  -5.518  -0.544  0.00  0.00    +0.040 C 
BRANCH   6  16
ATOM     15  C   UNL     1       0.469  -8.293   0.335  0.00  0.00    +0.011 C 
ATOM     16  C   UNL     1       1.159  -7.954  -0.988  0.00  0.00    -0.035 C 
ATOM     17  C   UNL     1       0.115  -7.880  -2.104  0.00  0.00    +0.011 C 
ATOM     18  C   UNL     1       2.185  -9.039  -1.321  0.00  0.00    +0.011 C 
ENDBRANCH   6  16
ENDBRANCH   1  12
BRANCH   5  19
ATOM     19  C   UNL     1       3.522   0.702  -0.027  0.00  0.00    +0.152 C 
BRANCH  19  20
ATOM     20  C   UNL     1       4.011   0.718  -1.453  0.00  0.00    -0.013 C 
ATOM     21  C   UNL     1       4.822   1.664  -1.856  0.00  0.00    +0.005 C 
ENDBRANCH  19  20
ENDBRANCH   5  19
BRANCH   4  22
ATOM     22  S   UNL     1       1.680   3.449   0.004  0.00  0.00    -0.077 S 
BRANCH  22  23
ATOM     23  C   UNL     1       0.046   4.226   0.024  0.00  0.00    +0.173 C 
BRANCH  23  24
ATOM     24  C   UNL     1       0.202   5.725   0.030  0.00  0.00    +0.231 C 
ATOM     25  O   UNL     1       1.310   6.219   0.022  0.00  0.00    -0.274 OA
ATOM     26  N   UNL     1      -0.888   6.516   0.045  0.00  0.00    -0.240 N 
ATOM     27  C   UNL     1      -0.749   7.856   0.051  0.00  0.00    +0.306 C 
ATOM     28  O   UNL     1       0.361   8.352   0.042  0.00  0.00    -0.252 OA
ATOM     29  N   UNL     1      -1.839   8.648   0.065  0.00  0.00    -0.302 N 
ATOM     30  C   UNL     1      -1.687  10.105   0.071  0.00  0.00    +0.129 C 
ATOM     31  H   UNL     1      -1.774   6.121   0.052  0.00  0.00    +0.159 HD
ATOM     32  H   UNL     1      -2.725   8.253   0.072  0.00  0.00    +0.150 HD
ENDBRANCH  23  24
ENDBRANCH  22  23
ENDBRANCH   4  22
TORSDOF 7
