REMARK  Name = ZINC04593936
REMARK  4 active torsions:
REMARK  status: ('A' for Active; 'I' for Inactive)
REMARK    1  A    between atoms: C_4  and  C_7
REMARK    2  A    between atoms: C_7  and  N_8
REMARK    3  A    between atoms: C_13  and  C_29
REMARK    4  A    between atoms: C_29  and  C_30
REMARK                            x       y       z     vdW  Elec       q    Type
REMARK                         _______ _______ _______ _____ _____    ______ ____
ROOT
ATOM      1  N   UNL     1       4.803   0.988   2.558  0.00  0.00    -0.237 N 
ATOM      2  C   UNL     1       5.385   1.358   1.372  0.00  0.00    +0.224 C 
ATOM      3  O   UNL     1       6.566   1.363   1.099  0.00  0.00    -0.275 OA
ATOM      4  C   UNL     1       4.245   1.755   0.488  0.00  0.00    +0.073 C 
ATOM      5  C   UNL     1       4.232   1.473  -0.999  0.00  0.00    -0.046 C 
ATOM      6  C   UNL     1       2.186   0.691  -0.018  0.00  0.00    +0.050 C 
ATOM      7  C   UNL     1       3.233   0.662   1.001  0.00  0.00    +0.088 C 
ATOM      8  C   UNL     1       3.465   0.707   2.422  0.00  0.00    +0.225 C 
ATOM      9  O   UNL     1       2.654   0.534   3.307  0.00  0.00    -0.275 OA
ATOM     10  C   UNL     1       1.282   1.892   0.000  0.00  0.00    -0.028 A 
ATOM     11  C   UNL     1       1.508   3.251   0.007  0.00  0.00    +0.004 A 
ATOM     12  C   UNL     1       0.442   4.132   0.021  0.00  0.00    +0.000 A 
ATOM     13  C   UNL     1      -0.853   3.646   0.029  0.00  0.00    +0.002 A 
ATOM     14  C   UNL     1      -1.085   2.286   0.019  0.00  0.00    +0.023 A 
ATOM     15  C   UNL     1      -0.017   1.392   0.010  0.00  0.00    +0.036 A 
ATOM     16  N   UNL     1       0.002  -0.004   0.002  0.00  0.00    -0.286 N 
ATOM     17  C   UNL     1       1.256  -0.495  -0.014  0.00  0.00    +0.211 C 
ATOM     18  O   UNL     1       1.575  -1.665  -0.022  0.00  0.00    -0.277 OA
ATOM     19  H   UNL     1      -0.795  -0.556   0.007  0.00  0.00    +0.155 HD
ATOM     20  N   UNL     1       3.001   0.691  -1.264  0.00  0.00    +0.395 N 
ATOM     21  H   UNL     1       3.247  -0.272  -1.520  0.00  0.00    -0.083 HD
ATOM     22  H   UNL     1       2.470   1.124  -2.029  0.00  0.00    -0.083 HD
ENDROOT
BRANCH   1  23
ATOM     23  C   UNL     1       5.529   0.901   3.828  0.00  0.00    +0.151 C 
BRANCH  23  27
ATOM     24  C   UNL     1       5.349   4.670   5.830  0.00  0.00    +0.000 A 
ATOM     25  C   UNL     1       4.372   3.720   6.058  0.00  0.00    +0.000 A 
ATOM     26  C   UNL     1       4.430   2.500   5.410  0.00  0.00    +0.005 A 
ATOM     27  C   UNL     1       5.465   2.231   4.534  0.00  0.00    -0.030 A 
ATOM     28  C   UNL     1       6.446   3.180   4.311  0.00  0.00    +0.005 A 
ATOM     29  C   UNL     1       6.385   4.401   4.955  0.00  0.00    +0.000 A 
ENDBRANCH  23  27
ENDBRANCH   1  23
BRANCH   5  30
ATOM     30  C   UNL     1       4.201   2.788  -1.780  0.00  0.00    +0.110 C 
BRANCH  30  31
ATOM     31  C   UNL     1       4.287   2.498  -3.256  0.00  0.00    +0.354 C 
ATOM     32  O   UNL     1       4.365   1.356  -3.644  0.00  0.00    -0.246 OA
ATOM     33  O   UNL     1       4.276   3.507  -4.141  0.00  0.00    -0.246 OA
ENDBRANCH  30  31
ENDBRANCH   5  30
TORSDOF 4
