REMARK  Name = ZINC08764572
REMARK  9 active torsions:
REMARK  status: ('A' for Active; 'I' for Inactive)
REMARK    1  A    between atoms: C_1  and  C_2
REMARK    2  A    between atoms: C_3  and  C_15
REMARK    3  A    between atoms: C_9  and  O_14
REMARK    4  A    between atoms: C_11  and  O_13
REMARK    5  A    between atoms: C_15  and  C_16
REMARK    6  A    between atoms: N_18  and  C_19
REMARK    7  A    between atoms: C_19  and  C_21
REMARK    8  A    between atoms: C_19  and  C_22
REMARK    9  A    between atoms: C_22  and  C_23
REMARK                            x       y       z     vdW  Elec       q    Type
REMARK                         _______ _______ _______ _____ _____    ______ ____
ROOT
ATOM      1  C   UNL     1       4.833   4.292   0.071  0.00  0.00    +0.138 C 
ENDROOT
BRANCH   1   4
ATOM      2  C   UNL     1       4.938   1.416  -0.039  0.00  0.00    +0.045 C 
ATOM      3  C   UNL     1       3.612   2.132  -0.022  0.00  0.00    -0.026 A 
ATOM      4  C   UNL     1       3.559   3.488   0.030  0.00  0.00    +0.049 A 
ATOM      5  C   UNL     1       2.311   4.143   0.044  0.00  0.00    +0.341 A 
ATOM      6  O   UNL     1       2.272   5.359   0.091  0.00  0.00    -0.245 OA
ATOM      7  O   UNL     1       1.163   3.445   0.009  0.00  0.00    -0.422 OA
ATOM      8  C   UNL     1       1.172   2.094  -0.043  0.00  0.00    +0.146 A 
ATOM      9  C   UNL     1       2.397   1.401  -0.059  0.00  0.00    +0.062 A 
ATOM     10  C   UNL     1       2.405  -0.004  -0.113  0.00  0.00    +0.131 A 
ATOM     11  C   UNL     1       1.209  -0.693  -0.149  0.00  0.00    +0.091 A 
ATOM     12  C   UNL     1       0.002  -0.001  -0.133  0.00  0.00    +0.124 A 
ATOM     13  C   UNL     1      -0.017   1.384  -0.080  0.00  0.00    +0.092 A 
BRANCH  12  14
ATOM     14  O   UNL     1      -1.168  -0.689  -0.168  0.00  0.00    -0.507 OA
ATOM     15  H   UNL     1      -1.500  -0.854  -1.061  0.00  0.00    +0.292 HD
ENDBRANCH  12  14
BRANCH  10  16
ATOM     16  O   UNL     1       3.582  -0.679  -0.130  0.00  0.00    -0.506 OA
ATOM     17  H   UNL     1       3.930  -0.841  -1.018  0.00  0.00    +0.292 HD
ENDBRANCH  10  16
ENDBRANCH   1   4
BRANCH   1  18
ATOM     18  C   UNL     1       5.246   4.506   1.504  0.00  0.00    +0.218 C 
ATOM     19  O   UNL     1       4.572   4.050   2.404  0.00  0.00    -0.275 OA
ATOM     20  N   UNL     1       6.364   5.203   1.787  0.00  0.00    -0.312 N 
ATOM     21  H   UNL     1       6.903   5.568   1.067  0.00  0.00    +0.149 HD
BRANCH  20  22
ATOM     22  C   UNL     1       6.766   5.411   3.180  0.00  0.00    +0.074 C 
ATOM     23  C   UNL     1       6.038   6.633   3.744  0.00  0.00    +0.028 C 
BRANCH  22  24
ATOM     24  C   UNL     1       8.277   5.642   3.247  0.00  0.00    +0.059 C 
BRANCH  24  25
ATOM     25  C   UNL     1       8.996   4.393   2.806  0.00  0.00    -0.021 A 
ATOM     26  C   UNL     1       9.469   3.421   3.603  0.00  0.00    +0.087 A 
ATOM     27  N   UNL     1      10.061   2.446   2.847  0.00  0.00    -0.360 N 
ATOM     28  H   UNL     1      10.476   1.643   3.200  0.00  0.00    +0.165 HD
ATOM     29  C   UNL     1       9.982   2.775   1.512  0.00  0.00    +0.047 A 
ATOM     30  C   UNL     1       9.306   4.006   1.428  0.00  0.00    +0.003 A 
ATOM     31  C   UNL     1       9.074   4.589   0.181  0.00  0.00    +0.010 A 
ATOM     32  C   UNL     1       9.502   3.958  -0.953  0.00  0.00    +0.001 A 
ATOM     33  C   UNL     1      10.165   2.741  -0.875  0.00  0.00    +0.002 A 
ATOM     34  C   UNL     1      10.412   2.152   0.346  0.00  0.00    +0.026 A 
ENDBRANCH  24  25
ENDBRANCH  22  24
ENDBRANCH  20  22
ENDBRANCH   1  18
TORSDOF 7
