REMARK  Name = ZINC64333377
REMARK  8 active torsions:
REMARK  status: ('A' for Active; 'I' for Inactive)
REMARK    1  A    between atoms: C_1  and  N_2
REMARK    2  A    between atoms: N_2  and  C_3
REMARK    3  A    between atoms: C_8  and  O_9
REMARK    4  A    between atoms: O_9  and  C_10
REMARK    5  A    between atoms: C_16  and  C_18
REMARK    6  A    between atoms: C_18  and  C_19
REMARK    7  A    between atoms: C_19  and  C_20
REMARK    8  A    between atoms: C_19  and  N_25
REMARK                            x       y       z     vdW  Elec       q    Type
REMARK                         _______ _______ _______ _____ _____    ______ ____
ROOT
ATOM      1  C   UNL     1       0.098   1.210  -0.524  0.00  0.00    +0.138 C 
ATOM      2  N   UNL     1       0.009  -0.189  -0.098  0.00  0.00    -0.271 N 
ATOM      3  C   UNL     1      -0.095  -1.169  -1.017  0.00  0.00    +0.222 C 
ATOM      4  O   UNL     1      -0.169  -2.327  -0.664  0.00  0.00    -0.275 OA
ENDROOT
BRANCH   2   5
ATOM      5  C   UNL     1       0.031  -0.508   1.266  0.00  0.00    +0.079 A 
ATOM      6  C   UNL     1      -1.155  -0.583   1.982  0.00  0.00    +0.027 A 
ATOM      7  C   UNL     1      -1.131  -0.898   3.328  0.00  0.00    +0.002 A 
ATOM      8  C   UNL     1       0.073  -1.140   3.963  0.00  0.00    +0.004 A 
ATOM      9  C   UNL     1       1.259  -1.067   3.257  0.00  0.00    +0.048 A 
ATOM     10  C   UNL     1       1.243  -0.756   1.906  0.00  0.00    +0.150 A 
BRANCH  10  11
ATOM     11  O   UNL     1       2.408  -0.690   1.208  0.00  0.00    -0.454 OA
BRANCH  11  12
ATOM     12  C   UNL     1       3.566  -0.942   1.874  0.00  0.00    +0.129 A 
ATOM     13  C   UNL     1       4.061  -2.236   1.940  0.00  0.00    +0.046 A 
ATOM     14  C   UNL     1       5.238  -2.490   2.616  0.00  0.00    +0.004 A 
ATOM     15  C   UNL     1       5.923  -1.456   3.228  0.00  0.00    +0.000 A 
ATOM     16  C   UNL     1       5.431  -0.165   3.164  0.00  0.00    +0.004 A 
ATOM     17  C   UNL     1       4.257   0.095   2.484  0.00  0.00    +0.046 A 
ENDBRANCH  11  12
ENDBRANCH  10  11
ENDBRANCH   2   5
BRANCH   3  18
ATOM     18  C   UNL     1      -0.119  -0.826  -2.485  0.00  0.00    +0.124 C 
BRANCH  18  19
ATOM     19  C   UNL     1      -0.242  -2.110  -3.307  0.00  0.00    +0.120 C 
BRANCH  19  20
ATOM     20  N   UNL     1      -1.536  -2.741  -3.036  0.00  0.00    -0.292 N 
ATOM     21  C   UNL     1      -1.688  -4.069  -3.213  0.00  0.00    +0.298 C 
ATOM     22  O   UNL     1      -0.752  -4.742  -3.599  0.00  0.00    -0.253 OA
ATOM     23  N   UNL     1      -2.879  -4.649  -2.964  0.00  0.00    -0.313 N 
ATOM     24  H   UNL     1      -2.283  -2.204  -2.728  0.00  0.00    +0.151 HD
ATOM     25  H   UNL     1      -3.626  -4.112  -2.656  0.00  0.00    +0.146 HD
ATOM     26  H   UNL     1      -2.989  -5.605  -3.092  0.00  0.00    +0.146 HD
ENDBRANCH  19  20
BRANCH  19  27
ATOM     27  C   UNL     1      -0.142  -1.779  -4.774  0.00  0.00    +0.010 A 
ATOM     28  C   UNL     1       0.921  -1.899  -5.606  0.00  0.00    +0.013 A 
ATOM     29  C   UNL     1       0.781  -1.530  -6.930  0.00  0.00    +0.008 A 
ATOM     30  C   UNL     1      -0.416  -1.060  -7.359  0.00  0.00    +0.045 A 
ATOM     31  S   UNL     1      -1.397  -1.134  -5.869  0.00  0.00    -0.100 S 
ENDBRANCH  19  27
ENDBRANCH  18  19
ENDBRANCH   3  18
TORSDOF 7
