REMARK  Name = ZINC06301592
REMARK  6 active torsions:
REMARK  status: ('A' for Active; 'I' for Inactive)
REMARK    1  A    between atoms: C_1  and  C_2
REMARK    2  A    between atoms: C_4  and  C_36
REMARK    3  A    between atoms: C_7  and  C_14
REMARK    4  A    between atoms: C_14  and  C_16
REMARK    5  A    between atoms: C_14  and  N_73
REMARK    6  A    between atoms: N_20  and  C_21
REMARK                            x       y       z     vdW  Elec       q    Type
REMARK                         _______ _______ _______ _____ _____    ______ ____
ROOT
ATOM      1  C   UNL     1       4.873   4.287  -0.021  0.00  0.00    +0.039 C 
ENDROOT
BRANCH   1   8
ATOM      2  C   UNL     1      -1.263  -0.781   0.502  0.00  0.00    +0.044 C 
ATOM      3  C   UNL     1       0.031  -0.014   0.423  0.00  0.00    -0.048 A 
ATOM      4  C   UNL     1       1.239  -0.694   0.496  0.00  0.00    +0.007 A 
ATOM      5  C   UNL     1       2.423  -0.017   0.426  0.00  0.00    -0.041 A 
ATOM      6  C   UNL     1       2.419   1.374   0.280  0.00  0.00    +0.002 A 
ATOM      7  C   UNL     1       3.670   2.131   0.201  0.00  0.00    +0.018 A 
ATOM      8  C   UNL     1       3.604   3.478   0.061  0.00  0.00    +0.011 A 
ATOM      9  C   UNL     1       2.352   4.125  -0.008  0.00  0.00    +0.251 A 
ATOM     10  O   UNL     1       2.316   5.337  -0.135  0.00  0.00    -0.268 OA
ATOM     11  N   UNL     1       1.198   3.439   0.063  0.00  0.00    -0.322 N 
ATOM     12  H   UNL     1       0.355   3.915   0.012  0.00  0.00    +0.169 HD
ATOM     13  C   UNL     1       1.196   2.067   0.207  0.00  0.00    +0.050 A 
ATOM     14  C   UNL     1       0.003   1.357   0.280  0.00  0.00    +0.029 A 
ATOM     15  C   UNL     1       3.729  -0.766   0.506  0.00  0.00    +0.044 C 
ENDBRANCH   1   8
BRANCH   1  26
ATOM     16  C   UNL     1       6.088   6.129   0.975  0.00  0.00    -0.077 C 
ATOM     17  C   UNL     1       5.969   7.305   1.946  0.00  0.00    -0.018 C 
ATOM     18  C   UNL     1       5.709   6.771   3.357  0.00  0.00    +0.003 C 
ATOM     19  C   UNL     1       4.438   5.917   3.344  0.00  0.00    -0.044 C 
ATOM     20  C   UNL     1       4.601   4.781   2.333  0.00  0.00    -0.071 C 
ATOM     21  C   UNL     1       3.244   6.787   2.947  0.00  0.00    +0.005 C 
ATOM     22  C   UNL     1       3.085   7.926   3.956  0.00  0.00    +0.000 C 
ATOM     23  C   UNL     1       2.849   7.341   5.351  0.00  0.00    +0.000 C 
ATOM     24  C   UNL     1       4.043   6.471   5.748  0.00  0.00    +0.000 C 
ATOM     25  C   UNL     1       4.203   5.333   4.738  0.00  0.00    +0.005 C 
ATOM     26  N   UNL     1       4.825   5.361   0.992  0.00  0.00    +0.390 N 
ATOM     27  H   UNL     1       4.048   5.994   0.769  0.00  0.00    -0.080 HD
ENDBRANCH   1  26
BRANCH   1  28
ATOM     28  C   UNL     1       4.983   4.911  -1.389  0.00  0.00    +0.143 A 
ATOM     29  N   UNL     1       4.363   5.987  -1.809  0.00  0.00    -0.115 NA
ATOM     30  N   UNL     1       4.718   6.198  -3.030  0.00  0.00    -0.023 NA
ATOM     31  N   UNL     1       5.547   5.285  -3.399  0.00  0.00    -0.044 NA
ATOM     32  N   UNL     1       5.740   4.476  -2.413  0.00  0.00    -0.227 N 
BRANCH  32  33
ATOM     33  C   UNL     1       6.616   3.302  -2.409  0.00  0.00    +0.111 C 
ATOM     34  C   UNL     1       8.062   3.720  -2.745  0.00  0.00    +0.027 C 
ATOM     35  C   UNL     1       8.603   2.555  -3.612  0.00  0.00    +0.002 C 
ATOM     36  C   UNL     1       7.373   2.167  -4.470  0.00  0.00    +0.002 C 
ATOM     37  C   UNL     1       6.178   2.314  -3.505  0.00  0.00    +0.027 C 
ENDBRANCH  32  33
ENDBRANCH   1  28
TORSDOF 4
