REMARK  Name = ZINC27016190
REMARK  8 active torsions:
REMARK  status: ('A' for Active; 'I' for Inactive)
REMARK    1  A    between atoms: C_1  and  N_2
REMARK    2  A    between atoms: N_2  and  C_3
REMARK    3  A    between atoms: N_2  and  S_23
REMARK    4  A    between atoms: C_4  and  N_22
REMARK    5  A    between atoms: N_5  and  C_16
REMARK    6  A    between atoms: C_7  and  N_8
REMARK    7  A    between atoms: N_9  and  C_10
REMARK    8  A    between atoms: S_23  and  C_26
REMARK                            x       y       z     vdW  Elec       q    Type
REMARK                         _______ _______ _______ _____ _____    ______ ____
ROOT
ATOM      1  C   UNL     1       5.116  -0.094  -2.305  0.00  0.00    +0.138 A 
ATOM      2  C   UNL     1       4.635   0.972  -3.003  0.00  0.00    +0.145 A 
ATOM      3  N   UNL     1       5.704   1.659  -3.501  0.00  0.00    -0.215 N 
ATOM      4  N   UNL     1       6.872   0.999  -3.100  0.00  0.00    -0.141 NA
ATOM      5  C   UNL     1       6.528  -0.053  -2.375  0.00  0.00    +0.220 A 
ENDROOT
BRANCH   3   6
ATOM      6  C   UNL     1       5.642   2.821  -4.279  0.00  0.00    +0.068 A 
ATOM      7  C   UNL     1       4.612   2.993  -5.194  0.00  0.00    +0.028 A 
ATOM      8  C   UNL     1       4.552   4.143  -5.956  0.00  0.00    +0.002 A 
ATOM      9  C   UNL     1       5.522   5.119  -5.816  0.00  0.00    +0.000 A 
ATOM     10  C   UNL     1       6.552   4.949  -4.909  0.00  0.00    +0.002 A 
ATOM     11  C   UNL     1       6.615   3.803  -4.141  0.00  0.00    +0.028 A 
ENDBRANCH   3   6
BRANCH   2  12
ATOM     12  N   UNL     1       3.289   1.302  -3.177  0.00  0.00    -0.341 N 
ATOM     13  H   UNL     1       3.013   2.191  -3.764  0.00  0.00    +0.144 HD
ATOM     14  H   UNL     1       2.506   0.674  -2.728  0.00  0.00    +0.144 HD
ENDBRANCH   2  12
BRANCH   1  16
ATOM     15  C   UNL     1       3.907  -2.271  -2.332  0.00  0.00    +0.158 C 
ATOM     16  N   UNL     1       4.345  -1.062  -1.630  0.00  0.00    -0.199 N 
BRANCH  16  17
ATOM     17  S   UNL     1       3.934  -0.832  -0.042  0.00  0.00    +0.075 S 
ATOM     18  O   UNL     1       4.902   0.054   0.504  0.00  0.00    -0.150 OA
ATOM     19  O   UNL     1       3.686  -2.120   0.504  0.00  0.00    -0.150 OA
BRANCH  17  20
ATOM     20  C   UNL     1       2.396   0.029  -0.022  0.00  0.00    +0.109 A 
ATOM     21  C   UNL     1       1.208  -0.679  -0.014  0.00  0.00    +0.029 A 
ATOM     22  C   UNL     1       0.002  -0.004   0.002  0.00  0.00    +0.002 A 
ATOM     23  C   UNL     1      -0.017   1.378   0.010  0.00  0.00    +0.000 A 
ATOM     24  C   UNL     1       1.171   2.086   0.002  0.00  0.00    +0.002 A 
ATOM     25  C   UNL     1       2.377   1.411  -0.014  0.00  0.00    +0.029 A 
ENDBRANCH  17  20
ENDBRANCH  16  17
ENDBRANCH   1  16
BRANCH   5  26
ATOM     26  N   UNL     1       7.385  -0.943  -1.799  0.00  0.00    -0.125 NA
ATOM     27  N   UNL     1       8.659  -0.795  -1.937  0.00  0.00    -0.148 NA
BRANCH  27  28
ATOM     28  C   UNL     1       9.518  -1.688  -1.359  0.00  0.00    +0.086 A 
ATOM     29  C   UNL     1       9.020  -2.759  -0.614  0.00  0.00    +0.029 A 
ATOM     30  C   UNL     1       9.892  -3.658  -0.037  0.00  0.00    +0.002 A 
ATOM     31  C   UNL     1      11.258  -3.496  -0.188  0.00  0.00    +0.000 A 
ATOM     32  C   UNL     1      11.759  -2.434  -0.921  0.00  0.00    +0.002 A 
ATOM     33  C   UNL     1      10.898  -1.530  -1.507  0.00  0.00    +0.029 A 
ENDBRANCH  27  28
ENDBRANCH   5  26
TORSDOF 7
