REMARK  Name = ZINC08723392
REMARK  11 active torsions:
REMARK  status: ('A' for Active; 'I' for Inactive)
REMARK    1  A    between atoms: C_1  and  C_2
REMARK    2  A    between atoms: N_7  and  C_8
REMARK    3  A    between atoms: C_8  and  C_10
REMARK    4  A    between atoms: C_8  and  C_21
REMARK    5  A    between atoms: C_19  and  O_20
REMARK    6  A    between atoms: C_24  and  O_31
REMARK    7  A    between atoms: C_25  and  O_29
REMARK    8  A    between atoms: C_26  and  O_27
REMARK    9  A    between atoms: O_27  and  C_28
REMARK   10  A    between atoms: O_29  and  C_30
REMARK   11  A    between atoms: O_31  and  C_32
REMARK                            x       y       z     vdW  Elec       q    Type
REMARK                         _______ _______ _______ _____ _____    ______ ____
ROOT
ATOM      1  C   UNL     1      -2.437   3.866  -0.083  0.00  0.00    +0.139 C 
ENDROOT
BRANCH   1   8
ATOM      2  C   UNL     1      -1.597   4.690  -5.072  0.00  0.00    +0.044 C 
ATOM      3  C   UNL     1      -2.571   3.859  -4.277  0.00  0.00    -0.046 A 
ATOM      4  C   UNL     1      -3.502   3.052  -4.917  0.00  0.00    +0.021 A 
ATOM      5  C   UNL     1      -4.380   2.302  -4.160  0.00  0.00    +0.084 A 
ATOM      6  C   UNL     1      -3.471   3.103  -2.195  0.00  0.00    +0.097 A 
ATOM      7  C   UNL     1      -2.557   3.884  -2.895  0.00  0.00    +0.045 A 
ATOM      8  N   UNL     1      -3.469   3.118  -0.805  0.00  0.00    -0.319 N 
ATOM      9  H   UNL     1      -4.150   2.632  -0.314  0.00  0.00    +0.148 HD
ATOM     10  N   UNL     1      -4.391   2.297  -2.800  0.00  0.00    -0.350 N 
ATOM     11  H   UNL     1      -5.051   1.722  -2.262  0.00  0.00    +0.166 HD
ENDBRANCH   1   8
BRANCH   1  12
ATOM     12  C   UNL     1      -1.171   3.050  -0.026  0.00  0.00    +0.021 A 
ATOM     13  C   UNL     1      -1.250   1.660  -0.037  0.00  0.00    +0.010 A 
ATOM     14  C   UNL     1      -0.126   0.895   0.018  0.00  0.00    +0.010 A 
ATOM     15  C   UNL     1       1.135   1.512   0.076  0.00  0.00    +0.004 A 
ATOM     16  C   UNL     1       2.320   0.754   0.128  0.00  0.00    +0.011 A 
ATOM     17  C   UNL     1       3.510   1.422   0.184  0.00  0.00    +0.020 A 
ATOM     18  C   UNL     1       3.526   2.815   0.188  0.00  0.00    +0.111 A 
ATOM     19  N   UNL     1       2.420   3.517   0.138  0.00  0.00    -0.251 NA
ATOM     20  C   UNL     1       1.223   2.925   0.082  0.00  0.00    +0.113 A 
ATOM     21  C   UNL     1       0.036   3.686   0.030  0.00  0.00    +0.148 A 
BRANCH  21  22
ATOM     22  O   UNL     1       0.094   5.043   0.035  0.00  0.00    -0.504 OA
ATOM     23  H   UNL     1       0.151   5.438  -0.846  0.00  0.00    +0.292 HD
ENDBRANCH  21  22
ENDBRANCH   1  12
BRANCH   1  24
ATOM     24  C   UNL     1      -2.913   4.153   1.318  0.00  0.00    +0.023 A 
ATOM     25  C   UNL     1      -3.749   3.258   1.960  0.00  0.00    +0.013 A 
ATOM     26  C   UNL     1      -4.185   3.514   3.247  0.00  0.00    +0.050 A 
ATOM     27  C   UNL     1      -3.792   4.675   3.895  0.00  0.00    +0.165 A 
ATOM     28  C   UNL     1      -2.956   5.580   3.252  0.00  0.00    +0.204 A 
ATOM     29  C   UNL     1      -2.516   5.316   1.960  0.00  0.00    +0.170 A 
BRANCH  29  30
ATOM     30  O   UNL     1      -1.698   6.198   1.326  0.00  0.00    -0.491 OA
ATOM     31  C   UNL     1      -2.325   7.253   0.593  0.00  0.00    +0.277 C 
ENDBRANCH  29  30
BRANCH  28  32
ATOM     32  O   UNL     1      -2.570   6.721   3.885  0.00  0.00    -0.488 OA
ATOM     33  C   UNL     1      -3.471   7.828   3.835  0.00  0.00    +0.277 C 
ENDBRANCH  28  32
BRANCH  27  34
ATOM     34  O   UNL     1      -4.226   4.929   5.159  0.00  0.00    -0.491 OA
ATOM     35  C   UNL     1      -5.083   3.955   5.758  0.00  0.00    +0.277 C 
ENDBRANCH  27  34
ENDBRANCH   1  24
TORSDOF 7
