REMARK  Name = ZINC35452858
REMARK  5 active torsions:
REMARK  status: ('A' for Active; 'I' for Inactive)
REMARK    1  A    between atoms: C_1  and  C_2
REMARK    2  A    between atoms: C_7  and  N_12
REMARK    3  A    between atoms: C_9  and  C_11
REMARK    4  A    between atoms: N_12  and  C_13
REMARK    5  A    between atoms: C_18  and  N_19
REMARK                            x       y       z     vdW  Elec       q    Type
REMARK                         _______ _______ _______ _____ _____    ______ ____
ROOT
ATOM      1  C   UNL     1       0.629   0.194   4.900  0.00  0.00    +0.050 A 
ATOM      2  C   UNL     1      -0.150   1.339   4.978  0.00  0.00    +0.051 A 
ATOM      3  C   UNL     1      -0.251   2.024   6.178  0.00  0.00    +0.078 A 
ATOM      4  C   UNL     1       0.427   1.565   7.305  0.00  0.00    +0.144 A 
ATOM      5  C   UNL     1       1.205   0.423   7.229  0.00  0.00    +0.072 A 
ATOM      6  C   UNL     1       1.304  -0.268   6.029  0.00  0.00    +0.049 A 
ATOM      7  O   UNL     1       0.319   2.251   8.476  0.00  0.00    -0.481 OA
ATOM      8  C   UNL     1       0.169   3.670   8.378  0.00  0.00    +0.325 C 
ATOM      9  C   UNL     1      -0.873   3.999   7.339  0.00  0.00    +0.255 C 
ATOM     10  O   UNL     1      -1.561   4.990   7.459  0.00  0.00    -0.272 OA
ATOM     11  N   UNL     1      -1.037   3.184   6.274  0.00  0.00    -0.280 N 
ATOM     12  H   UNL     1      -1.687   3.397   5.587  0.00  0.00    +0.155 HD
ENDROOT
BRANCH   6  13
ATOM     13  N   UNL     1       2.087  -1.429   5.952  0.00  0.00    -0.356 N 
ATOM     14  H   UNL     1       2.159  -1.910   5.113  0.00  0.00    +0.142 HD
ATOM     15  H   UNL     1       2.556  -1.750   6.738  0.00  0.00    +0.142 HD
ENDBRANCH   6  13
BRANCH   1  16
ATOM     16  N   UNL     1       0.735  -0.503   3.687  0.00  0.00    -0.339 N 
ATOM     17  H   UNL     1       1.276  -1.306   3.634  0.00  0.00    +0.146 HD
BRANCH  16  23
ATOM     18  C   UNL     1      -0.019   1.526   0.010  0.00  0.00    +0.008 C 
ATOM     19  C   UNL     1       0.002  -0.004   0.002  0.00  0.00    -0.009 C 
ATOM     20  C   UNL     1      -1.433  -0.534   0.013  0.00  0.00    +0.003 C 
ATOM     21  C   UNL     1      -2.149  -0.040   1.272  0.00  0.00    +0.002 C 
ATOM     22  C   UNL     1      -1.409  -0.547   2.511  0.00  0.00    +0.022 C 
ATOM     23  C   UNL     1       0.026  -0.018   2.500  0.00  0.00    +0.074 C 
ATOM     24  C   UNL     1       0.742  -0.511   1.242  0.00  0.00    +0.009 C 
ATOM     25  C   UNL     1       2.178   0.019   1.231  0.00  0.00    +0.009 C 
ENDBRANCH  16  23
ENDBRANCH   1  16
TORSDOF 3
