REMARK  Name = ZINC24789091
REMARK  12 active torsions:
REMARK  status: ('A' for Active; 'I' for Inactive)
REMARK    1  A    between atoms: C_1  and  C_2
REMARK    2  A    between atoms: C_3  and  C_30
REMARK    3  A    between atoms: N_4  and  C_25
REMARK    4  A    between atoms: C_5  and  S_7
REMARK    5  A    between atoms: S_7  and  C_8
REMARK    6  A    between atoms: C_8  and  C_9
REMARK    7  A    between atoms: C_9  and  C_11
REMARK    8  A    between atoms: C_12  and  N_24
REMARK    9  A    between atoms: N_13  and  C_20
REMARK   10  A    between atoms: C_20  and  C_21
REMARK   11  A    between atoms: C_21  and  C_22
REMARK   12  A    between atoms: C_21  and  C_23
REMARK                            x       y       z     vdW  Elec       q    Type
REMARK                         _______ _______ _______ _____ _____    ______ ____
ROOT
ATOM      1  C   UNL     1      -6.332   2.703   2.015  0.00  0.00    +0.182 C 
ATOM      2  O   UNL     1      -6.650   3.099   3.119  0.00  0.00    -0.291 OA
ENDROOT
BRANCH   1   3
ATOM      3  C   UNL     1      -7.312   2.557   1.010  0.00  0.00    +0.120 A 
ATOM      4  C   UNL     1      -8.676   2.743   1.293  0.00  0.00    +0.116 A 
ATOM      5  N   UNL     1      -9.586   2.595   0.286  0.00  0.00    -0.281 N 
ATOM      6  C   UNL     1      -9.203   2.266  -0.958  0.00  0.00    +0.331 A 
ATOM      7  O   UNL     1     -10.052   2.142  -1.818  0.00  0.00    -0.246 OA
ATOM      8  N   UNL     1      -7.916   2.070  -1.287  0.00  0.00    -0.274 N 
ATOM      9  H   UNL     1      -7.646   1.802  -2.319  0.00  0.00    +0.173 HD
ATOM     10  C   UNL     1      -6.939   2.197  -0.365  0.00  0.00    +0.266 A 
ATOM     11  O   UNL     1      -5.773   2.019  -0.666  0.00  0.00    -0.267 OA
BRANCH   4  12
ATOM     12  N   UNL     1      -9.082   3.071   2.549  0.00  0.00    -0.344 N 
ATOM     13  H   UNL     1     -10.152   3.215   2.761  0.00  0.00    +0.144 HD
ATOM     14  H   UNL     1      -8.341   3.192   3.353  0.00  0.00    +0.144 HD
ENDBRANCH   4  12
BRANCH   5  15
ATOM     15  C   UNL     1     -11.010   2.793   0.570  0.00  0.00    +0.131 C 
BRANCH  15  16
ATOM     16  C   UNL     1     -11.633   1.463   0.999  0.00  0.00    +0.003 C 
ATOM     17  C   UNL     1     -11.015   1.014   2.324  0.00  0.00    +0.009 C 
ATOM     18  C   UNL     1     -13.143   1.641   1.175  0.00  0.00    +0.009 C 
ENDBRANCH  15  16
ENDBRANCH   5  15
ENDBRANCH   1   3
BRANCH   1  19
ATOM     19  C   UNL     1      -4.893   2.369   1.719  0.00  0.00    +0.157 C 
BRANCH  19  20
ATOM     20  S   UNL     1      -3.890   2.659   3.198  0.00  0.00    -0.080 S 
BRANCH  20  25
ATOM     21  C   UNL     1      -0.022   1.028   0.026  0.00  0.00    +0.067 C 
ATOM     22  C   UNL     1      -0.725   1.528   1.262  0.00  0.00    +0.060 A 
ATOM     23  C   UNL     1      -0.144   1.796   2.443  0.00  0.00    +0.039 A 
ATOM     24  N   UNL     1      -1.139   2.226   3.292  0.00  0.00    -0.320 N 
ATOM     25  C   UNL     1      -2.303   2.202   2.585  0.00  0.00    +0.170 A 
ATOM     26  N   UNL     1      -2.039   1.787   1.368  0.00  0.00    -0.227 NA
ATOM     27  C   UNL     1       1.319   1.653   2.776  0.00  0.00    +0.065 C 
BRANCH  24  28
ATOM     28  C   UNL     1      -0.977   2.631   4.690  0.00  0.00    +0.089 C 
ATOM     29  C   UNL     1      -1.869   1.761   5.600  0.00  0.00    +0.025 C 
ATOM     30  C   UNL     1      -2.372   2.742   6.689  0.00  0.00    +0.002 C 
ATOM     31  C   UNL     1      -2.607   4.048   5.891  0.00  0.00    +0.002 C 
ATOM     32  C   UNL     1      -1.446   4.085   4.875  0.00  0.00    +0.025 C 
ENDBRANCH  24  28
ENDBRANCH  20  25
ENDBRANCH  19  20
ENDBRANCH   1  19
TORSDOF 8
