REMARK  Name = ZINC39682558
REMARK  6 active torsions:
REMARK  status: ('A' for Active; 'I' for Inactive)
REMARK    1  A    between atoms: C_4  and  C_7
REMARK    2  A    between atoms: C_7  and  C_9
REMARK    3  A    between atoms: C_7  and  N_13
REMARK    4  A    between atoms: C_9  and  C_10
REMARK    5  A    between atoms: C_14  and  C_16
REMARK    6  A    between atoms: C_27  and  C_29
REMARK                            x       y       z     vdW  Elec       q    Type
REMARK                         _______ _______ _______ _____ _____    ______ ____
ROOT
ATOM      1  C   UNL     1       4.403  -4.455   3.089  0.00  0.00    +0.100 C 
ATOM      2  C   UNL     1       3.356  -3.741   3.972  0.00  0.00    +0.121 C 
ATOM      3  N   UNL     1       3.754  -4.065   5.362  0.00  0.00    -0.296 N 
ATOM      4  C   UNL     1       5.235  -3.999   5.347  0.00  0.00    +0.115 C 
ATOM      5  C   UNL     1       5.635  -4.622   3.995  0.00  0.00    -0.004 C 
ATOM      6  C   UNL     1       6.829  -3.878   3.404  0.00  0.00    -0.010 C 
ATOM      7  C   UNL     1       8.056  -4.107   4.291  0.00  0.00    -0.082 C 
ATOM      8  N   UNL     1       8.342  -5.545   4.373  0.00  0.00    +0.379 N 
ATOM      9  C   UNL     1       7.227  -6.240   5.027  0.00  0.00    -0.082 C 
ATOM     10  C   UNL     1       5.964  -6.101   4.172  0.00  0.00    -0.010 C 
ATOM     11  C   UNL     1       2.951  -4.355   6.405  0.00  0.00    +0.248 C 
ATOM     12  O   UNL     1       3.427  -4.512   7.514  0.00  0.00    -0.270 OA
ATOM     13  H   UNL     1       8.468  -5.915   3.443  0.00  0.00    -0.086 HD
ATOM     14  H   UNL     1       9.186  -5.689   4.907  0.00  0.00    -0.086 HD
ENDROOT
BRANCH  11  15
ATOM     15  C   UNL     1       1.502  -4.482   6.204  0.00  0.00    +0.052 A 
ATOM     16  C   UNL     1       0.850  -3.705   5.300  0.00  0.00    +0.059 A 
ATOM     17  S   UNL     1      -0.759  -4.169   5.391  0.00  0.00    -0.096 S 
ATOM     18  C   UNL     1      -0.653  -5.424   6.637  0.00  0.00    +0.020 A 
ATOM     19  C   UNL     1       0.716  -5.455   6.966  0.00  0.00    +0.001 A 
ATOM     20  C   UNL     1       1.123  -6.378   7.947  0.00  0.00    +0.010 A 
ATOM     21  C   UNL     1       0.207  -7.209   8.543  0.00  0.00    +0.001 A 
ATOM     22  C   UNL     1      -1.136  -7.162   8.197  0.00  0.00    +0.001 A 
ATOM     23  C   UNL     1      -1.566  -6.259   7.245  0.00  0.00    +0.015 A 
ENDBRANCH  11  15
BRANCH   1  25
ATOM     24  N   UNL     1       5.114  -4.195   0.734  0.00  0.00    -0.308 N 
ATOM     25  C   UNL     1       4.744  -3.609   1.890  0.00  0.00    +0.219 C 
ATOM     26  O   UNL     1       4.685  -2.400   1.965  0.00  0.00    -0.275 OA
ATOM     27  H   UNL     1       5.230  -5.157   0.694  0.00  0.00    +0.149 HD
BRANCH  24  28
ATOM     28  C   UNL     1       5.339  -3.380  -0.462  0.00  0.00    +0.114 C 
BRANCH  28  32
ATOM     29  C   UNL     1       4.499  -5.700  -3.948  0.00  0.00    +0.000 A 
ATOM     30  C   UNL     1       4.115  -4.373  -3.892  0.00  0.00    +0.000 A 
ATOM     31  C   UNL     1       4.386  -3.623  -2.764  0.00  0.00    +0.005 A 
ATOM     32  C   UNL     1       5.042  -4.199  -1.691  0.00  0.00    -0.027 A 
ATOM     33  C   UNL     1       5.425  -5.526  -1.747  0.00  0.00    +0.005 A 
ATOM     34  C   UNL     1       5.155  -6.276  -2.876  0.00  0.00    +0.000 A 
ENDBRANCH  28  32
BRANCH  28  35
ATOM     35  C   UNL     1       6.797  -2.918  -0.496  0.00  0.00    +0.152 C 
BRANCH  35  36
ATOM     36  C   UNL     1       6.992  -1.956  -1.640  0.00  0.00    +0.358 C 
ATOM     37  O   UNL     1       6.031  -1.571  -2.284  0.00  0.00    -0.246 OA
ATOM     38  O   UNL     1       8.111  -1.562  -1.921  0.00  0.00    -0.246 OA
ENDBRANCH  35  36
ENDBRANCH  28  35
ENDBRANCH  24  28
ENDBRANCH   1  25
TORSDOF 6
