REMARK  Name = ZINC06734015
REMARK  7 active torsions:
REMARK  status: ('A' for Active; 'I' for Inactive)
REMARK    1  A    between atoms: C_1  and  C_2
REMARK    2  A    between atoms: C_2  and  C_4
REMARK    3  A    between atoms: C_2  and  N_10
REMARK    4  A    between atoms: C_11  and  C_13
REMARK    5  A    between atoms: C_13  and  C_14
REMARK    6  A    between atoms: C_14  and  C_16
REMARK    7  A    between atoms: C_14  and  C_25
REMARK                            x       y       z     vdW  Elec       q    Type
REMARK                         _______ _______ _______ _____ _____    ______ ____
ROOT
ATOM      1  C   UNL     1      -3.951  -1.243   2.633  0.00  0.00    +0.060 C 
ENDROOT
BRANCH   1   2
ATOM      2  C   UNL     1      -5.403  -1.647   2.636  0.00  0.00    -0.015 A 
ATOM      3  C   UNL     1      -5.915  -2.789   2.150  0.00  0.00    +0.087 A 
ATOM      4  N   UNL     1      -7.271  -2.805   2.329  0.00  0.00    -0.360 N 
ATOM      5  H   UNL     1      -7.860  -3.527   2.058  0.00  0.00    +0.165 HD
ATOM      6  C   UNL     1      -7.676  -1.644   2.949  0.00  0.00    +0.047 A 
ATOM      7  C   UNL     1      -6.522  -0.871   3.174  0.00  0.00    +0.003 A 
ATOM      8  C   UNL     1      -6.628   0.372   3.801  0.00  0.00    +0.010 A 
ATOM      9  C   UNL     1      -7.854   0.830   4.197  0.00  0.00    +0.001 A 
ATOM     10  C   UNL     1      -8.994   0.069   3.981  0.00  0.00    +0.002 A 
ATOM     11  C   UNL     1      -8.913  -1.157   3.355  0.00  0.00    +0.026 A 
ENDBRANCH   1   2
BRANCH   1  12
ATOM     12  C   UNL     1      -3.146  -2.258   3.403  0.00  0.00    -0.036 A 
ATOM     13  C   UNL     1      -3.122  -3.577   2.991  0.00  0.00    +0.008 A 
ATOM     14  C   UNL     1      -2.385  -4.511   3.694  0.00  0.00    +0.050 A 
ATOM     15  C   UNL     1      -1.667  -4.127   4.815  0.00  0.00    +0.166 A 
ATOM     16  C   UNL     1      -1.691  -2.798   5.231  0.00  0.00    +0.167 A 
ATOM     17  C   UNL     1      -2.428  -1.866   4.518  0.00  0.00    +0.053 A 
ATOM     18  O   UNL     1      -0.914  -2.676   6.346  0.00  0.00    -0.453 OA
ATOM     19  C   UNL     1      -0.744  -4.016   6.845  0.00  0.00    +0.466 C 
ATOM     20  O   UNL     1      -0.875  -4.838   5.670  0.00  0.00    -0.453 OA
ENDBRANCH   1  12
BRANCH   1  21
ATOM     21  C   UNL     1      -3.442  -1.177   1.191  0.00  0.00    +0.108 C 
BRANCH  21  23
ATOM     22  N   UNL     1      -1.372  -0.511   0.012  0.00  0.00    -0.309 N 
ATOM     23  C   UNL     1      -2.029  -0.655   1.181  0.00  0.00    +0.214 C 
ATOM     24  O   UNL     1      -1.481  -0.365   2.224  0.00  0.00    -0.276 OA
ATOM     25  H   UNL     1      -1.810  -0.743  -0.822  0.00  0.00    +0.149 HD
BRANCH  22  27
ATOM     26  C   UNL     1      -0.019   1.526   0.010  0.00  0.00    +0.033 C 
ATOM     27  C   UNL     1       0.002  -0.004   0.002  0.00  0.00    +0.100 C 
BRANCH  27  28
ATOM     28  C   UNL     1       0.707  -0.490  -1.238  0.00  0.00    -0.027 A 
ATOM     29  C   UNL     1       0.038  -0.522  -2.447  0.00  0.00    +0.005 A 
ATOM     30  C   UNL     1       0.685  -0.967  -3.584  0.00  0.00    +0.000 A 
ATOM     31  C   UNL     1       2.002  -1.381  -3.513  0.00  0.00    +0.000 A 
ATOM     32  C   UNL     1       2.672  -1.349  -2.304  0.00  0.00    +0.000 A 
ATOM     33  C   UNL     1       2.026  -0.899  -1.167  0.00  0.00    +0.005 A 
ENDBRANCH  27  28
ENDBRANCH  22  27
ENDBRANCH  21  23
ENDBRANCH   1  21
TORSDOF 6
