REMARK  Name = ZINC20885602
REMARK  6 active torsions:
REMARK  status: ('A' for Active; 'I' for Inactive)
REMARK    1  A    between atoms: C_1  and  O_2
REMARK    2  A    between atoms: O_2  and  C_3
REMARK    3  A    between atoms: C_5  and  C_13
REMARK    4  A    between atoms: C_7  and  N_10
REMARK    5  A    between atoms: C_8  and  O_9
REMARK    6  A    between atoms: C_18  and  C_23
REMARK                            x       y       z     vdW  Elec       q    Type
REMARK                         _______ _______ _______ _____ _____    ______ ____
ROOT
ATOM      1  C   UNL     1       3.671   2.193  -0.021  0.00  0.00    +0.136 C 
ATOM      2  C   UNL     1       4.066   2.451  -1.456  0.00  0.00    +0.036 C 
ATOM      3  C   UNL     1       4.043   3.641  -2.078  0.00  0.00    +0.017 C 
ATOM      4  C   UNL     1       4.431   3.749  -3.544  0.00  0.00    +0.059 C 
ATOM      5  C   UNL     1       5.516   2.724  -3.871  0.00  0.00    +0.032 C 
ATOM      6  C   UNL     1       4.947   1.332  -3.575  0.00  0.00    +0.088 C 
ATOM      7  C   UNL     1       4.494   1.293  -2.147  0.00  0.00    +0.163 C 
ATOM      8  O   UNL     1       4.492   0.228  -1.562  0.00  0.00    -0.292 OA
ATOM      9  N   UNL     1       3.674   4.813  -1.502  0.00  0.00    -0.316 N 
ATOM     10  C   UNL     1       2.538   4.989  -0.721  0.00  0.00    +0.052 A 
ATOM     11  C   UNL     1       1.522   5.858  -1.081  0.00  0.00    +0.025 A 
ATOM     12  C   UNL     1       0.468   6.068  -0.208  0.00  0.00    +0.002 A 
ATOM     13  C   UNL     1       0.430   5.415   1.010  0.00  0.00    +0.002 A 
ATOM     14  C   UNL     1       1.435   4.530   1.362  0.00  0.00    +0.025 A 
ATOM     15  C   UNL     1       2.483   4.304   0.484  0.00  0.00    +0.049 A 
ATOM     16  N   UNL     1       3.493   3.389   0.775  0.00  0.00    -0.331 N 
ATOM     17  H   UNL     1       4.294   5.712  -1.639  0.00  0.00    +0.152 HD
ATOM     18  H   UNL     1       4.161   3.589   1.626  0.00  0.00    +0.147 HD
ENDROOT
BRANCH   5  19
ATOM     19  C   UNL     1       5.892   2.824  -5.327  0.00  0.00    -0.043 A 
ATOM     20  C   UNL     1       4.930   2.643  -6.303  0.00  0.00    +0.005 A 
ATOM     21  C   UNL     1       5.273   2.740  -7.638  0.00  0.00    +0.020 A 
ATOM     22  C   UNL     1       6.582   3.007  -7.998  0.00  0.00    +0.041 A 
ATOM     23  C   UNL     1       7.545   3.183  -7.021  0.00  0.00    +0.020 A 
ATOM     24  C   UNL     1       7.200   3.091  -5.686  0.00  0.00    +0.005 A 
ATOM     25 CL   UNL     1       7.014   3.122  -9.676  0.00  0.00    -0.084 Cl
ENDBRANCH   5  19
BRANCH   1  28
ATOM     26  C   UNL     1       1.167  -0.591   0.484  0.00  0.00    +0.164 A 
ATOM     27  C   UNL     1       2.354   0.124   0.476  0.00  0.00    +0.055 A 
ATOM     28  C   UNL     1       2.379   1.417  -0.013  0.00  0.00    -0.017 A 
ATOM     29  C   UNL     1       1.222   2.000  -0.494  0.00  0.00    +0.042 A 
ATOM     30  C   UNL     1       0.034   1.292  -0.489  0.00  0.00    +0.171 A 
ATOM     31  C   UNL     1       0.002  -0.004  -0.001  0.00  0.00    +0.189 A 
BRANCH  30  32
ATOM     32  N   UNL     1      -1.202   1.917  -1.011  0.00  0.00    +0.060 N 
ATOM     33  O   UNL     1      -1.174   3.057  -1.440  0.00  0.00    -0.126 OA
ATOM     34  O   UNL     1      -2.248   1.292  -1.011  0.00  0.00    -0.126 OA
ENDBRANCH  30  32
BRANCH  26  36
ATOM     35  C   UNL     1       2.375  -2.400   1.445  0.00  0.00    +0.277 C 
ATOM     36  O   UNL     1       1.141  -1.863   0.964  0.00  0.00    -0.491 OA
ENDBRANCH  26  36
BRANCH  31  37
ATOM     37  O   UNL     1      -1.165  -0.702   0.006  0.00  0.00    -0.502 OA
ATOM     38  H   UNL     1      -2.086  -0.237  -0.378  0.00  0.00    +0.292 HD
ENDBRANCH  31  37
ENDBRANCH   1  28
TORSDOF 5
