REMARK  Name = ZINC58467333
REMARK  8 active torsions:
REMARK  status: ('A' for Active; 'I' for Inactive)
REMARK    1  A    between atoms: C_4  and  C_7
REMARK    2  A    between atoms: C_7  and  C_8
REMARK    3  A    between atoms: C_8  and  C_9
REMARK    4  A    between atoms: C_9  and  N_10
REMARK    5  A    between atoms: N_13  and  C_14
REMARK    6  A    between atoms: C_14  and  C_15
REMARK    7  A    between atoms: C_15  and  C_17
REMARK    8  A    between atoms: C_15  and  N_22
REMARK                            x       y       z     vdW  Elec       q    Type
REMARK                         _______ _______ _______ _____ _____    ______ ____
ROOT
ATOM      1  N   UNL     1       5.506  -2.291   3.077  0.00  0.00    -0.299 N 
ATOM      2  C   UNL     1       6.745  -2.809   3.192  0.00  0.00    +0.300 C 
ATOM      3  O   UNL     1       7.375  -3.105   2.195  0.00  0.00    -0.253 OA
ATOM      4  N   UNL     1       7.286  -2.998   4.412  0.00  0.00    -0.301 N 
ATOM      5  H   UNL     1       5.004  -2.055   3.873  0.00  0.00    +0.150 HD
ATOM      6  H   UNL     1       6.784  -2.761   5.207  0.00  0.00    +0.150 HD
ENDROOT
BRANCH   1   7
ATOM      7  C   UNL     1       4.918  -2.086   1.751  0.00  0.00    +0.106 C 
BRANCH   7   8
ATOM      8  C   UNL     1       3.516  -1.492   1.902  0.00  0.00    +0.023 C 
BRANCH   8   9
ATOM      9  C   UNL     1       2.902  -1.277   0.517  0.00  0.00    +0.036 C 
BRANCH   9  13
ATOM     10  C   UNL     1      -1.012   0.382   0.934  0.00  0.00    +0.000 A 
ATOM     11  C   UNL     1       0.085   1.216   0.833  0.00  0.00    +0.000 A 
ATOM     12  C   UNL     1       1.352   0.679   0.698  0.00  0.00    +0.003 A 
ATOM     13  C   UNL     1       1.521  -0.692   0.665  0.00  0.00    -0.047 A 
ATOM     14  C   UNL     1       0.424  -1.527   0.767  0.00  0.00    +0.003 A 
ATOM     15  C   UNL     1      -0.843  -0.990   0.901  0.00  0.00    +0.000 A 
ENDBRANCH   9  13
ENDBRANCH   8   9
ENDBRANCH   7   8
ENDBRANCH   1   7
BRANCH   4  16
ATOM     16  C   UNL     1       8.633  -3.560   4.537  0.00  0.00    +0.098 C 
BRANCH  16  17
ATOM     17  C   UNL     1       9.057  -3.548   6.007  0.00  0.00    +0.016 C 
BRANCH  17  18
ATOM     18  N   UNL     1       8.925  -2.187   6.544  0.00  0.00    +0.387 N 
ATOM     19  C   UNL     1       9.791  -1.277   5.784  0.00  0.00    -0.078 C 
ATOM     20  C   UNL     1       9.596   0.155   6.286  0.00  0.00    -0.019 C 
ATOM     21  C   UNL     1       9.960   0.224   7.772  0.00  0.00    -0.004 C 
ATOM     22  C   UNL     1       9.102  -0.783   8.544  0.00  0.00    -0.019 C 
ATOM     23  C   UNL     1       9.315  -2.180   7.959  0.00  0.00    -0.078 C 
ATOM     24  H   UNL     1       7.966  -1.885   6.459  0.00  0.00    -0.081 HD
ENDBRANCH  17  18
BRANCH  17  25
ATOM     25  C   UNL     1       8.175  -4.485   6.791  0.00  0.00    +0.093 A 
ATOM     26  C   UNL     1       8.497  -5.734   7.173  0.00  0.00    +0.043 A 
ATOM     27  C   UNL     1       7.385  -6.246   7.881  0.00  0.00    +0.041 A 
ATOM     28  C   UNL     1       6.450  -5.279   7.889  0.00  0.00    +0.195 A 
ATOM     29  O   UNL     1       6.936  -4.212   7.233  0.00  0.00    -0.469 OA
ENDBRANCH  17  25
ENDBRANCH  16  17
ENDBRANCH   4  16
TORSDOF 8
