REMARK  Name = ZINC36039536
REMARK  12 active torsions:
REMARK  status: ('A' for Active; 'I' for Inactive)
REMARK    1  A    between atoms: C_1  and  C_2
REMARK    2  A    between atoms: C_2  and  C_3
REMARK    3  A    between atoms: C_2  and  C_4
REMARK    4  A    between atoms: C_7  and  N_10
REMARK    5  A    between atoms: C_12  and  C_27
REMARK    6  A    between atoms: N_15  and  C_16
REMARK    7  A    between atoms: C_16  and  C_18
REMARK    8  A    between atoms: C_18  and  N_19
REMARK    9  A    between atoms: N_19  and  C_20
REMARK   10  A    between atoms: C_20  and  C_21
REMARK   11  A    between atoms: C_30  and  O_33
REMARK   12  A    between atoms: O_33  and  C_34
REMARK                            x       y       z     vdW  Elec       q    Type
REMARK                         _______ _______ _______ _____ _____    ______ ____
ROOT
ATOM      1  N   UNL     1       2.747  -1.885   4.598  0.00  0.00    -0.287 N 
ATOM      2  C   UNL     1       4.057  -1.603   4.931  0.00  0.00    +0.120 A 
ATOM      3  C   UNL     1       4.338  -2.231   6.087  0.00  0.00    +0.066 A 
ATOM      4  N   UNL     1       3.197  -2.914   6.489  0.00  0.00    -0.326 N 
ATOM      5  C   UNL     1       2.227  -2.687   5.566  0.00  0.00    +0.205 A 
ATOM      6  N   UNL     1       0.984  -3.168   5.600  0.00  0.00    -0.148 NA
ATOM      7  H   UNL     1       3.107  -3.455   7.290  0.00  0.00    +0.169 HD
ENDROOT
BRANCH   1  11
ATOM      8  C   UNL     1       0.731  -0.503   1.223  0.00  0.00    -0.045 A 
ATOM      9  C   UNL     1       2.050  -0.147   1.433  0.00  0.00    +0.006 A 
ATOM     10  C   UNL     1       2.721  -0.603   2.550  0.00  0.00    +0.026 A 
ATOM     11  C   UNL     1       2.069  -1.420   3.464  0.00  0.00    +0.049 A 
ATOM     12  C   UNL     1       0.744  -1.776   3.251  0.00  0.00    +0.026 A 
ATOM     13  C   UNL     1       0.077  -1.312   2.134  0.00  0.00    +0.006 A 
BRANCH   8  15
ATOM     14  C   UNL     1      -0.019   1.526   0.010  0.00  0.00    +0.012 C 
ATOM     15  C   UNL     1       0.002  -0.004   0.002  0.00  0.00    +0.013 C 
ATOM     16  C   UNL     1       0.718  -0.497  -1.257  0.00  0.00    +0.012 C 
ENDBRANCH   8  15
ENDBRANCH   1  11
BRANCH   3  17
ATOM     17  C   UNL     1       5.632  -2.199   6.804  0.00  0.00    +0.000 A 
ATOM     18  C   UNL     1       6.699  -1.464   6.287  0.00  0.00    +0.013 A 
ATOM     19  C   UNL     1       7.904  -1.437   6.958  0.00  0.00    +0.046 A 
ATOM     20  C   UNL     1       8.055  -2.139   8.146  0.00  0.00    +0.120 A 
ATOM     21  C   UNL     1       6.995  -2.873   8.662  0.00  0.00    +0.046 A 
ATOM     22  C   UNL     1       5.786  -2.900   8.001  0.00  0.00    +0.013 A 
BRANCH  20  23
ATOM     23  O   UNL     1       9.244  -2.110   8.804  0.00  0.00    -0.495 OA
ATOM     24  C   UNL     1       9.331  -2.856  10.020  0.00  0.00    +0.277 C 
ENDBRANCH  20  23
ENDBRANCH   3  17
BRANCH   6  25
ATOM     25  C   UNL     1       0.601  -3.944   6.607  0.00  0.00    +0.222 C 
ATOM     26  O   UNL     1       1.383  -4.216   7.497  0.00  0.00    -0.276 OA
BRANCH  25  27
ATOM     27  C   UNL     1      -0.804  -4.488   6.646  0.00  0.00    +0.017 C 
BRANCH  27  28
ATOM     28  N   UNL     1      -0.978  -5.311   7.850  0.00  0.00    +0.386 N 
ATOM     29  H   UNL     1      -0.321  -6.077   7.831  0.00  0.00    -0.085 HD
ATOM     30  H   UNL     1      -0.813  -4.747   8.670  0.00  0.00    -0.085 HD
BRANCH  28  31
ATOM     31  C   UNL     1      -2.347  -5.841   7.888  0.00  0.00    -0.050 C 
BRANCH  31  32
ATOM     32  C   UNL     1      -2.528  -6.699   9.142  0.00  0.00    +0.101 C 
ATOM     33  C   UNL     1      -3.957  -7.297   9.184  0.00  0.00    +0.032 C 
ATOM     34  C   UNL     1      -3.725  -8.551  10.070  0.00  0.00    +0.030 C 
ATOM     35  C   UNL     1      -2.297  -8.977   9.669  0.00  0.00    +0.160 C 
ATOM     36  O   UNL     1      -1.646  -7.832   9.103  0.00  0.00    -0.378 OA
ENDBRANCH  31  32
ENDBRANCH  28  31
ENDBRANCH  27  28
ENDBRANCH  25  27
ENDBRANCH   6  25
TORSDOF 9
