REMARK  Name = ZINC01497751
REMARK  8 active torsions:
REMARK  status: ('A' for Active; 'I' for Inactive)
REMARK    1  A    between atoms: C_1  and  C_2
REMARK    2  A    between atoms: C_2  and  C_3
REMARK    3  A    between atoms: C_3  and  C_5
REMARK    4  A    between atoms: C_3  and  N_20
REMARK    5  A    between atoms: N_7  and  N_8
REMARK    6  A    between atoms: C_9  and  C_10
REMARK    7  A    between atoms: C_12  and  N_17
REMARK    8  A    between atoms: N_20  and  C_21
REMARK                            x       y       z     vdW  Elec       q    Type
REMARK                         _______ _______ _______ _____ _____    ______ ____
ROOT
ATOM      1  C   UNL     1      -1.445  -1.710   0.374  0.00  0.00    +0.251 C 
ATOM      2  O   UNL     1      -2.073  -2.370  -0.426  0.00  0.00    -0.272 OA
ATOM      3  N   UNL     1      -0.850  -2.311   1.423  0.00  0.00    -0.228 N 
ATOM      4  H   UNL     1      -0.347  -1.783   2.064  0.00  0.00    +0.175 HD
ENDROOT
BRANCH   3   5
ATOM      5  N   UNL     1      -0.956  -3.698   1.589  0.00  0.00    -0.311 N 
ATOM      6  C   UNL     1      -0.363  -4.296   2.632  0.00  0.00    +0.111 C 
ATOM      7  H   UNL     1      -1.458  -4.226   0.948  0.00  0.00    +0.184 HD
BRANCH   6   8
ATOM      8  C   UNL     1      -0.562  -5.661   2.861  0.00  0.00    +0.041 A 
ATOM      9  C   UNL     1      -0.039  -6.282   4.016  0.00  0.00    +0.046 A 
ATOM     10  C   UNL     1      -0.244  -7.610   4.221  0.00  0.00    +0.127 A 
ATOM     11  C   UNL     1      -0.961  -8.384   3.314  0.00  0.00    +0.036 A 
ATOM     12  C   UNL     1      -1.491  -7.847   2.181  0.00  0.00    +0.054 A 
ATOM     13  C   UNL     1      -1.323  -6.478   1.909  0.00  0.00    +0.188 A 
ATOM     14  O   UNL     1      -1.797  -5.980   0.897  0.00  0.00    -0.287 OA
BRANCH  10  15
ATOM     15  N   UNL     1       0.310  -8.248   5.437  0.00  0.00    +0.056 N 
ATOM     16  O   UNL     1       0.936  -7.589   6.234  0.00  0.00    -0.126 OA
ATOM     17  O   UNL     1       0.137  -9.429   5.633  0.00  0.00    -0.126 OA
ENDBRANCH  10  15
ENDBRANCH   6   8
ENDBRANCH   3   5
BRANCH   1  18
ATOM     18  C   UNL     1      -1.331  -0.218   0.197  0.00  0.00    +0.158 C 
BRANCH  18  20
ATOM     19  C   UNL     1       0.269   1.692   0.005  0.00  0.00    +0.006 C 
ATOM     20  C   UNL     1       0.143   0.168   0.056  0.00  0.00    +0.028 C 
ENDBRANCH  18  20
BRANCH  18  21
ATOM     21  N   UNL     1      -2.059   0.188  -1.008  0.00  0.00    -0.333 N 
ATOM     22  H   UNL     1      -1.584   0.303  -1.846  0.00  0.00    +0.147 HD
BRANCH  21  23
ATOM     23  C   UNL     1      -3.438   0.408  -0.951  0.00  0.00    +0.028 A 
ATOM     24  C   UNL     1      -4.106   0.320   0.264  0.00  0.00    +0.024 A 
ATOM     25  C   UNL     1      -5.469   0.538   0.318  0.00  0.00    +0.017 A 
ATOM     26  C   UNL     1      -6.168   0.843  -0.837  0.00  0.00    +0.018 A 
ATOM     27  C   UNL     1      -5.505   0.931  -2.048  0.00  0.00    +0.017 A 
ATOM     28  C   UNL     1      -4.141   0.720  -2.107  0.00  0.00    +0.024 A 
ATOM     29 BR   UNL     1      -8.034   1.140  -0.759  0.00  0.00    -0.050 Br
ENDBRANCH  21  23
ENDBRANCH  18  21
ENDBRANCH   1  18
TORSDOF 7
