REMARK  Name = ZINC49489771
REMARK  8 active torsions:
REMARK  status: ('A' for Active; 'I' for Inactive)
REMARK    1  A    between atoms: C_1  and  N_2
REMARK    2  A    between atoms: N_2  and  C_3
REMARK    3  A    between atoms: N_2  and  C_4
REMARK    4  A    between atoms: C_4  and  C_6
REMARK    5  A    between atoms: C_4  and  C_27
REMARK    6  A    between atoms: C_6  and  N_7
REMARK    7  A    between atoms: C_8  and  C_10
REMARK    8  A    between atoms: N_12  and  C_13
REMARK                            x       y       z     vdW  Elec       q    Type
REMARK                         _______ _______ _______ _____ _____    ______ ____
ROOT
ATOM      1  C   UNL     1      -0.960  -4.555   2.655  0.00  0.00    +0.303 C 
ATOM      2  O   UNL     1      -0.305  -3.910   3.447  0.00  0.00    -0.265 OA
ATOM      3  N   UNL     1      -1.195  -5.863   2.882  0.00  0.00    -0.278 N 
ATOM      4  H   UNL     1      -1.654  -6.396   2.215  0.00  0.00    +0.155 HD
ENDROOT
BRANCH   3   5
ATOM      5  C   UNL     1      -0.776  -6.450   4.080  0.00  0.00    +0.034 A 
ATOM      6  C   UNL     1      -0.800  -5.719   5.259  0.00  0.00    +0.028 A 
ATOM      7  C   UNL     1      -0.394  -6.299   6.448  0.00  0.00    -0.024 A 
ATOM      8  C   UNL     1       0.033  -7.620   6.461  0.00  0.00    +0.043 A 
ATOM      9  C   UNL     1       0.074  -8.347   5.276  0.00  0.00    -0.023 A 
ATOM     10  C   UNL     1      -0.341  -7.769   4.093  0.00  0.00    +0.028 A 
ATOM     11  C   UNL     1       0.586  -9.764   5.270  0.00  0.00    +0.046 C 
ATOM     12  C   UNL     1       0.233 -10.452   6.587  0.00  0.00    +0.101 C 
ATOM     13  C   UNL     1       0.595  -9.558   7.742  0.00  0.00    +0.220 C 
ATOM     14  O   UNL     1       1.036 -10.044   8.761  0.00  0.00    -0.275 OA
ATOM     15  N   UNL     1       0.435  -8.226   7.657  0.00  0.00    -0.271 N 
ATOM     16  C   UNL     1       0.686  -7.386   8.837  0.00  0.00    +0.114 C 
ATOM     17  C   UNL     1      -0.459  -6.370   8.940  0.00  0.00    +0.024 C 
ATOM     18  C   UNL     1      -0.428  -5.470   7.705  0.00  0.00    +0.038 C 
ENDBRANCH   3   5
BRANCH   1  20
ATOM     19  N   UNL     1      -1.271  -2.593   1.201  0.00  0.00    -0.309 N 
ATOM     20  C   UNL     1      -1.506  -3.901   1.429  0.00  0.00    +0.299 C 
ATOM     21  O   UNL     1      -2.161  -4.546   0.637  0.00  0.00    -0.265 OA
ATOM     22  H   UNL     1      -0.748  -2.077   1.834  0.00  0.00    +0.149 HD
BRANCH  19  23
ATOM     23  C   UNL     1      -1.807  -1.951  -0.002  0.00  0.00    +0.097 C 
BRANCH  23  24
ATOM     24  C   UNL     1      -1.507  -0.451   0.044  0.00  0.00    +0.016 C 
BRANCH  24  25
ATOM     25  C   UNL     1      -0.018  -0.234  -0.035  0.00  0.00    +0.093 A 
ATOM     26  C   UNL     1       0.668   0.118  -1.137  0.00  0.00    +0.043 A 
ATOM     27  C   UNL     1       2.028   0.210  -0.761  0.00  0.00    +0.041 A 
ATOM     28  C   UNL     1       2.091  -0.090   0.549  0.00  0.00    +0.195 A 
ATOM     29  O   UNL     1       0.848  -0.353   0.985  0.00  0.00    -0.469 OA
ENDBRANCH  24  25
BRANCH  24  31
ATOM     30  C   UNL     1      -1.828   1.568   1.299  0.00  0.00    -0.096 C 
ATOM     31  N   UNL     1      -2.018   0.112   1.301  0.00  0.00    +0.384 N 
ATOM     32  C   UNL     1      -3.449  -0.195   1.429  0.00  0.00    -0.096 C 
ATOM     33  H   UNL     1      -1.517  -0.292   2.079  0.00  0.00    -0.082 HD
ENDBRANCH  24  31
ENDBRANCH  23  24
ENDBRANCH  19  23
ENDBRANCH   1  20
TORSDOF 6
