REMARK  Name = ZINC63271211
REMARK  8 active torsions:
REMARK  status: ('A' for Active; 'I' for Inactive)
REMARK    1  A    between atoms: C_1  and  C_2
REMARK    2  A    between atoms: C_2  and  C_3
REMARK    3  A    between atoms: C_2  and  C_4
REMARK    4  A    between atoms: C_4  and  C_5
REMARK    5  A    between atoms: C_5  and  N_6
REMARK    6  A    between atoms: C_7  and  C_9
REMARK    7  A    between atoms: C_9  and  C_10
REMARK    8  A    between atoms: C_10  and  N_11
REMARK                            x       y       z     vdW  Elec       q    Type
REMARK                         _______ _______ _______ _____ _____    ______ ____
ROOT
ATOM      1  N   UNL     1      -7.811  -1.032  -3.603  0.00  0.00    -0.299 N 
ATOM      2  C   UNL     1      -8.626  -0.794  -4.651  0.00  0.00    +0.302 C 
ATOM      3  O   UNL     1      -8.251  -0.083  -5.563  0.00  0.00    -0.253 OA
ATOM      4  N   UNL     1      -9.855  -1.345  -4.687  0.00  0.00    -0.283 N 
ATOM      5  C   UNL     1     -10.345  -2.102  -3.531  0.00  0.00    +0.114 C 
ATOM      6  C   UNL     1     -10.711  -3.531  -3.972  0.00  0.00    +0.052 C 
ATOM      7  C   UNL     1     -11.503  -3.400  -5.249  0.00  0.00    -0.036 C 
ATOM      8  C   UNL     1     -12.683  -3.893  -5.605  0.00  0.00    -0.001 A 
ATOM      9  C   UNL     1     -13.596  -4.831  -4.933  0.00  0.00    +0.010 A 
ATOM     10  C   UNL     1     -14.755  -5.111  -5.585  0.00  0.00    +0.001 A 
ATOM     11  C   UNL     1     -15.093  -4.558  -6.825  0.00  0.00    +0.002 A 
ATOM     12  C   UNL     1     -14.310  -3.694  -7.519  0.00  0.00    +0.026 A 
ATOM     13  C   UNL     1     -13.060  -3.330  -6.938  0.00  0.00    +0.043 A 
ATOM     14  N   UNL     1     -12.119  -2.553  -7.386  0.00  0.00    -0.376 N 
ATOM     15  C   UNL     1     -11.009  -2.575  -6.432  0.00  0.00    +0.124 C 
ATOM     16  C   UNL     1     -10.694  -1.174  -5.884  0.00  0.00    +0.138 C 
ATOM     17  H   UNL     1      -8.136  -1.538  -2.842  0.00  0.00    +0.150 HD
ATOM     18  H   UNL     1     -12.147  -2.046  -8.212  0.00  0.00    +0.160 HD
ENDROOT
BRANCH   1  19
ATOM     19  C   UNL     1      -6.437  -0.526  -3.614  0.00  0.00    +0.115 C 
BRANCH  19  20
ATOM     20  C   UNL     1      -5.734  -0.931  -2.317  0.00  0.00    +0.114 C 
BRANCH  20  22
ATOM     21  N   UNL     1      -3.505  -0.648  -1.282  0.00  0.00    -0.315 N 
ATOM     22  C   UNL     1      -4.319  -0.410  -2.329  0.00  0.00    +0.215 C 
ATOM     23  O   UNL     1      -3.914   0.223  -3.281  0.00  0.00    -0.276 OA
ATOM     24  H   UNL     1      -3.829  -1.155  -0.520  0.00  0.00    +0.149 HD
BRANCH  21  25
ATOM     25  C   UNL     1      -2.131  -0.142  -1.293  0.00  0.00    +0.104 C 
BRANCH  25  26
ATOM     26  C   UNL     1      -1.427  -0.547   0.004  0.00  0.00    +0.022 C 
BRANCH  26  28
ATOM     27  C   UNL     1      -0.011   1.511   0.004  0.00  0.00    +0.007 C 
ATOM     28  C   UNL     1       0.009  -0.018  -0.007  0.00  0.00    -0.016 C 
ATOM     29  C   UNL     1       0.750  -0.528   1.230  0.00  0.00    +0.007 C 
ENDBRANCH  26  28
ENDBRANCH  25  26
ENDBRANCH  21  25
ENDBRANCH  20  22
ENDBRANCH  19  20
ENDBRANCH   1  19
TORSDOF 6
