REMARK  Name = ZINC03012089
REMARK  11 active torsions:
REMARK  status: ('A' for Active; 'I' for Inactive)
REMARK    1  A    between atoms: C_1  and  C_2
REMARK    2  A    between atoms: C_2  and  O_3
REMARK    3  A    between atoms: O_3  and  C_4
REMARK    4  A    between atoms: C_4  and  C_6
REMARK    5  A    between atoms: C_12  and  C_14
REMARK    6  A    between atoms: C_19  and  C_35
REMARK    7  A    between atoms: C_22  and  C_25
REMARK    8  A    between atoms: C_28  and  O_33
REMARK    9  A    between atoms: C_29  and  O_31
REMARK   10  A    between atoms: O_31  and  C_32
REMARK   11  A    between atoms: O_33  and  C_34
REMARK                            x       y       z     vdW  Elec       q    Type
REMARK                         _______ _______ _______ _____ _____    ______ ____
ROOT
ATOM      1  C   UNL     1      -5.421  -6.270  -1.842  0.00  0.00    +0.149 A 
ATOM      2  C   UNL     1      -5.933  -7.225  -2.749  0.00  0.00    +0.078 A 
ATOM      3  C   UNL     1      -5.542  -8.442  -2.323  0.00  0.00    +0.119 A 
ATOM      4  N   UNL     1      -4.807  -8.278  -1.183  0.00  0.00    -0.238 N 
ATOM      5  N   UNL     1      -4.741  -6.912  -0.909  0.00  0.00    -0.164 NA
ATOM      6  C   UNL     1      -4.216  -9.387  -0.431  0.00  0.00    +0.215 C 
ATOM      7  C   UNL     1      -4.932 -10.686  -0.817  0.00  0.00    +0.063 C 
ATOM      8  C   UNL     1      -4.990 -10.817  -2.343  0.00  0.00    +0.104 C 
ATOM      9  N   UNL     1      -5.792  -9.700  -2.880  0.00  0.00    -0.322 N 
ATOM     10  H   UNL     1      -6.453  -9.831  -3.577  0.00  0.00    +0.148 HD
ENDROOT
BRANCH   1  17
ATOM     11  C   UNL     1      -3.377  -2.474   0.615  0.00  0.00    +0.101 C 
ATOM     12  C   UNL     1      -3.850  -1.978  -0.753  0.00  0.00    +0.033 C 
ATOM     13  C   UNL     1      -5.240  -2.552  -1.046  0.00  0.00    +0.109 C 
ATOM     14  N   UNL     1      -5.185  -4.015  -0.921  0.00  0.00    -0.296 N 
ATOM     15  C   UNL     1      -4.660  -4.598   0.321  0.00  0.00    +0.109 C 
ATOM     16  C   UNL     1      -3.276  -4.001   0.600  0.00  0.00    +0.033 C 
ATOM     17  C   UNL     1      -5.608  -4.807  -1.926  0.00  0.00    +0.267 C 
ATOM     18  O   UNL     1      -6.143  -4.317  -2.901  0.00  0.00    -0.268 OA
BRANCH  11  19
ATOM     19  C   UNL     1      -2.024  -1.885   0.922  0.00  0.00    +0.310 C 
ATOM     20  O   UNL     1      -1.077  -2.611   1.109  0.00  0.00    -0.251 OA
BRANCH  19  21
ATOM     21  O   UNL     1      -1.872  -0.553   0.988  0.00  0.00    -0.465 OA
BRANCH  21  23
ATOM     22  C   UNL     1      -0.584   1.466   1.316  0.00  0.00    +0.048 C 
ATOM     23  C   UNL     1      -0.562  -0.064   1.283  0.00  0.00    +0.229 C 
ENDBRANCH  21  23
ENDBRANCH  19  21
ENDBRANCH  11  19
ENDBRANCH   1  17
BRANCH   8  24
ATOM     24  C   UNL     1      -5.630 -12.129  -2.715  0.00  0.00    -0.024 A 
ATOM     25  C   UNL     1      -7.007 -12.255  -2.693  0.00  0.00    +0.009 A 
ATOM     26  C   UNL     1      -7.599 -13.457  -3.034  0.00  0.00    +0.050 A 
ATOM     27  C   UNL     1      -6.813 -14.539  -3.398  0.00  0.00    +0.162 A 
ATOM     28  C   UNL     1      -5.427 -14.411  -3.420  0.00  0.00    +0.162 A 
ATOM     29  C   UNL     1      -4.840 -13.202  -3.083  0.00  0.00    +0.054 A 
BRANCH  28  30
ATOM     30  O   UNL     1      -4.651 -15.470  -3.777  0.00  0.00    -0.491 OA
ATOM     31  C   UNL     1      -3.237 -15.266  -3.777  0.00  0.00    +0.277 C 
ENDBRANCH  28  30
BRANCH  27  32
ATOM     32  O   UNL     1      -7.394 -15.722  -3.733  0.00  0.00    -0.491 OA
ATOM     33  C   UNL     1      -8.821 -15.779  -3.687  0.00  0.00    +0.277 C 
ENDBRANCH  27  32
ENDBRANCH   8  24
BRANCH   6  34
ATOM     34  C   UNL     1      -4.381  -9.135   1.069  0.00  0.00    +0.412 C 
ATOM     35  F   UNL     1      -5.742  -9.036   1.378  0.00  0.00    -0.168 F 
ATOM     36  F   UNL     1      -3.816 -10.195   1.786  0.00  0.00    -0.168 F 
ATOM     37  F   UNL     1      -3.736  -7.942   1.415  0.00  0.00    -0.168 F 
ENDBRANCH   6  34
TORSDOF 8
