REMARK  Name = ZINC36506224
REMARK  13 active torsions:
REMARK  status: ('A' for Active; 'I' for Inactive)
REMARK    1  A    between atoms: C_1  and  C_2
REMARK    2  A    between atoms: C_2  and  C_3
REMARK    3  A    between atoms: C_3  and  C_4
REMARK    4  A    between atoms: C_4  and  N_5
REMARK    5  A    between atoms: C_6  and  C_8
REMARK    6  A    between atoms: C_8  and  C_10
REMARK    7  A    between atoms: C_8  and  N_19
REMARK    8  A    between atoms: C_11  and  O_18
REMARK    9  A    between atoms: C_13  and  O_17
REMARK   10  A    between atoms: C_15  and  O_16
REMARK   11  A    between atoms: N_19  and  C_20
REMARK   12  A    between atoms: C_20  and  C_21
REMARK   13  A    between atoms: C_26  and  C_28
REMARK                            x       y       z     vdW  Elec       q    Type
REMARK                         _______ _______ _______ _____ _____    ______ ____
ROOT
ATOM      1  C   UNL     1      -3.803  -4.492   0.266  0.00  0.00    +0.200 C 
ENDROOT
BRANCH   1   2
ATOM      2  C   UNL     1      -3.995  -3.972   1.667  0.00  0.00    +0.065 A 
ATOM      3  C   UNL     1      -3.427  -4.643   2.740  0.00  0.00    +0.129 A 
ATOM      4  C   UNL     1      -3.604  -4.164   4.030  0.00  0.00    +0.091 A 
ATOM      5  C   UNL     1      -4.348  -3.014   4.246  0.00  0.00    +0.124 A 
ATOM      6  C   UNL     1      -4.915  -2.343   3.174  0.00  0.00    +0.091 A 
ATOM      7  C   UNL     1      -4.735  -2.819   1.884  0.00  0.00    +0.129 A 
BRANCH   7   8
ATOM      8  O   UNL     1      -5.287  -2.159   0.832  0.00  0.00    -0.506 OA
ATOM      9  H   UNL     1      -6.180  -2.453   0.607  0.00  0.00    +0.292 HD
ENDBRANCH   7   8
BRANCH   5  10
ATOM     10  O   UNL     1      -4.522  -2.545   5.510  0.00  0.00    -0.507 OA
ATOM     11  H   UNL     1      -3.841  -1.921   5.795  0.00  0.00    +0.292 HD
ENDBRANCH   5  10
BRANCH   3  12
ATOM     12  O   UNL     1      -2.698  -5.769   2.528  0.00  0.00    -0.506 OA
ATOM     13  H   UNL     1      -1.745  -5.615   2.465  0.00  0.00    +0.292 HD
ENDBRANCH   3  12
ENDBRANCH   1   2
BRANCH   1  15
ATOM     14  N   UNL     1      -1.478  -3.666   0.088  0.00  0.00    -0.313 N 
ATOM     15  C   UNL     1      -2.334  -4.704   0.006  0.00  0.00    +0.238 C 
ATOM     16  O   UNL     1      -1.921  -5.809  -0.277  0.00  0.00    -0.273 OA
ATOM     17  H   UNL     1      -1.808  -2.782   0.315  0.00  0.00    +0.149 HD
BRANCH  14  18
ATOM     18  C   UNL     1      -0.050  -3.872  -0.165  0.00  0.00    +0.104 C 
BRANCH  18  19
ATOM     19  C   UNL     1       0.693  -2.543  -0.008  0.00  0.00    +0.018 C 
BRANCH  19  21
ATOM     20  C   UNL     1       2.927  -1.430  -0.115  0.00  0.00    +0.004 C 
ATOM     21  C   UNL     1       2.184  -2.758  -0.272  0.00  0.00    -0.002 C 
ENDBRANCH  19  21
ENDBRANCH  18  19
ENDBRANCH  14  18
ENDBRANCH   1  15
BRANCH   1  22
ATOM     22  N   UNL     1      -4.514  -5.764   0.116  0.00  0.00    -0.274 N 
ATOM     23  C   UNL     1      -4.338  -6.507  -0.995  0.00  0.00    +0.248 C 
ATOM     24  O   UNL     1      -5.023  -7.495  -1.180  0.00  0.00    -0.270 OA
BRANCH  23  25
ATOM     25  C   UNL     1      -3.314  -6.122  -1.987  0.00  0.00    +0.037 A 
ATOM     26  C   UNL     1      -2.850  -4.806  -2.040  0.00  0.00    +0.016 A 
ATOM     27  C   UNL     1      -1.895  -4.451  -2.968  0.00  0.00    +0.039 A 
ATOM     28  C   UNL     1      -1.394  -5.399  -3.848  0.00  0.00    +0.123 A 
ATOM     29  C   UNL     1      -1.851  -6.707  -3.799  0.00  0.00    +0.039 A 
ATOM     30  C   UNL     1      -2.802  -7.074  -2.871  0.00  0.00    +0.016 A 
ATOM     31  F   UNL     1      -0.458  -5.046  -4.756  0.00  0.00    -0.205 F 
ENDBRANCH  23  25
BRANCH  22  32
ATOM     32  C   UNL     1      -5.415  -6.229   1.173  0.00  0.00    +0.183 C 
BRANCH  32  33
ATOM     33  C   UNL     1      -6.834  -5.860   0.822  0.00  0.00    +0.122 A 
ATOM     34  C   UNL     1      -7.726  -6.660   0.211  0.00  0.00    +0.046 A 
ATOM     35  C   UNL     1      -8.921  -5.915   0.079  0.00  0.00    +0.041 A 
ATOM     36  C   UNL     1      -8.687  -4.705   0.617  0.00  0.00    +0.195 A 
ATOM     37  O   UNL     1      -7.423  -4.679   1.071  0.00  0.00    -0.466 OA
ENDBRANCH  32  33
ENDBRANCH  22  32
ENDBRANCH   1  22
TORSDOF 12
