REMARK  Name = ZINC49128018
REMARK  5 active torsions:
REMARK  status: ('A' for Active; 'I' for Inactive)
REMARK    1  A    between atoms: C_1  and  C_2
REMARK    2  A    between atoms: C_2  and  C_4
REMARK    3  A    between atoms: C_2  and  N_10
REMARK    4  A    between atoms: N_10  and  C_11
REMARK    5  A    between atoms: C_16  and  N_17
REMARK                            x       y       z     vdW  Elec       q    Type
REMARK                         _______ _______ _______ _____ _____    ______ ____
ROOT
ATOM      1  C   UNL     1       2.108  -0.604   1.173  0.00  0.00    +0.049 A 
ATOM      2  C   UNL     1       2.819  -0.249   0.026  0.00  0.00    +0.027 A 
ATOM      3  C   UNL     1       4.176  -0.350  -0.020  0.00  0.00    +0.030 A 
ATOM      4  C   UNL     1       4.886  -0.817   1.099  0.00  0.00    +0.073 A 
ATOM      5  C   UNL     1       4.175  -1.180   2.270  0.00  0.00    +0.023 A 
ATOM      6  C   UNL     1       2.772  -1.063   2.298  0.00  0.00    +0.055 A 
ATOM      7  C   UNL     1       4.892  -1.647   3.386  0.00  0.00    +0.013 A 
ATOM      8  C   UNL     1       6.253  -1.730   3.291  0.00  0.00    +0.020 A 
ATOM      9  C   UNL     1       6.890  -1.358   2.111  0.00  0.00    +0.111 A 
ATOM     10  N   UNL     1       6.220  -0.922   1.071  0.00  0.00    -0.255 NA
ENDROOT
BRANCH   6  11
ATOM     11  N   UNL     1       2.057  -1.413   3.446  0.00  0.00    -0.356 N 
ATOM     12  H   UNL     1       1.091  -1.334   3.458  0.00  0.00    +0.142 HD
ATOM     13  H   UNL     1       2.528  -1.734   4.231  0.00  0.00    +0.142 HD
ENDBRANCH   6  11
BRANCH   1  14
ATOM     14  N   UNL     1       0.711  -0.489   1.189  0.00  0.00    -0.335 N 
ATOM     15  H   UNL     1       0.213  -0.731   1.986  0.00  0.00    +0.147 HD
BRANCH  14  17
ATOM     16  C   UNL     1      -0.019   1.526   0.010  0.00  0.00    +0.033 C 
ATOM     17  C   UNL     1       0.002  -0.004   0.002  0.00  0.00    +0.104 C 
BRANCH  17  18
ATOM     18  C   UNL     1      -1.412  -0.526   0.013  0.00  0.00    +0.011 A 
ATOM     19  C   UNL     1      -2.157  -0.992  -1.019  0.00  0.00    +0.014 A 
ATOM     20  C   UNL     1      -3.447  -1.424  -0.772  0.00  0.00    +0.028 A 
ATOM     21  C   UNL     1      -3.928  -1.369   0.495  0.00  0.00    +0.078 A 
ATOM     22  S   UNL     1      -2.536  -0.697   1.389  0.00  0.00    -0.080 S 
ATOM     23 CL   UNL     1      -5.489  -1.836   1.093  0.00  0.00    -0.076 Cl
ENDBRANCH  17  18
ENDBRANCH  14  17
ENDBRANCH   1  14
TORSDOF 4
