REMARK  Name = ZINC00142053
REMARK  3 active torsions:
REMARK  status: ('A' for Active; 'I' for Inactive)
REMARK    1  A    between atoms: C_3  and  C_9
REMARK    2  A    between atoms: C_12  and  C_14
REMARK    3  A    between atoms: N_15  and  O_16
REMARK                            x       y       z     vdW  Elec       q    Type
REMARK                         _______ _______ _______ _____ _____    ______ ____
ROOT
ATOM      1  C   UNL     1       3.654   2.165  -0.022  0.00  0.00    +0.138 A 
ATOM      2  C   UNL     1       4.714   1.953   0.811  0.00  0.00    +0.050 A 
ATOM      3  C   UNL     1       5.702   2.882   0.463  0.00  0.00    +0.051 A 
ATOM      4  C   UNL     1       5.204   3.624  -0.572  0.00  0.00    +0.150 A 
ATOM      5  O   UNL     1       3.964   3.174  -0.856  0.00  0.00    -0.454 OA
ENDROOT
BRANCH   1   8
ATOM      6  C   UNL     1      -0.017   1.382   0.010  0.00  0.00    +0.039 A 
ATOM      7  C   UNL     1       1.166   2.091   0.002  0.00  0.00    +0.017 A 
ATOM      8  C   UNL     1       2.385   1.411  -0.013  0.00  0.00    +0.053 A 
ATOM      9  C   UNL     1       2.399   0.012  -0.021  0.00  0.00    +0.137 A 
ATOM     10  C   UNL     1       1.208  -0.686  -0.013  0.00  0.00    +0.077 A 
ATOM     11  C   UNL     1       0.002  -0.004   0.002  0.00  0.00    +0.126 A 
ATOM     12  F   UNL     1      -1.160  -0.693   0.010  0.00  0.00    -0.205 F 
ATOM     13  F   UNL     1       3.575  -0.653  -0.036  0.00  0.00    -0.205 F 
ENDBRANCH   1   8
BRANCH   4  14
ATOM     14  C   UNL     1       5.899   4.717  -1.257  0.00  0.00    +0.199 C 
ATOM     15  N   UNL     1       5.315   5.348  -2.230  0.00  0.00    -0.092 NA
BRANCH  15  16
ATOM     16  O   UNL     1       5.987   6.404  -2.892  0.00  0.00    -0.409 OA
ATOM     17  H   UNL     1       5.473   6.813  -3.602  0.00  0.00    +0.328 HD
ENDBRANCH  15  16
ENDBRANCH   4  14
TORSDOF 3
