REMARK  Name = CHEMBL1169881
REMARK  9 active torsions:
REMARK  status: ('A' for Active; 'I' for Inactive)
REMARK    1  A    between atoms: C_1  and  C_2
REMARK    2  A    between atoms: C_5  and  C_19
REMARK    3  A    between atoms: C_7  and  C_8
REMARK    4  A    between atoms: C_9  and  C_10
REMARK    5  A    between atoms: N_21  and  C_22
REMARK    6  A    between atoms: C_25  and  O_32
REMARK    7  A    between atoms: C_26  and  C_28
REMARK    8  A    between atoms: O_32  and  C_33
REMARK    9  A    between atoms: N_36  and  C_39
REMARK                            x       y       z     vdW  Elec       q    Type
REMARK                         _______ _______ _______ _____ _____    ______ ____
ROOT
ATOM      1  C   UNL     1       1.681  -4.371  -0.185  0.00  0.00    +0.248 C 
ATOM      2  O   UNL     1       2.219  -5.077   0.646  0.00  0.00    -0.270 OA
ATOM      3  N   UNL     1       0.906  -4.924  -1.139  0.00  0.00    -0.281 N 
ATOM      4  H   UNL     1       0.423  -4.357  -1.760  0.00  0.00    +0.155 HD
ENDROOT
BRANCH   1   9
ATOM      5  C   UNL     1       2.423   1.347  -0.074  0.00  0.00    +0.045 C 
ATOM      6  C   UNL     1       2.232  -0.148  -0.100  0.00  0.00    -0.035 A 
ATOM      7  C   UNL     1       1.441  -0.725  -1.073  0.00  0.00    +0.005 A 
ATOM      8  C   UNL     1       1.260  -2.094  -1.104  0.00  0.00    +0.013 A 
ATOM      9  C   UNL     1       1.878  -2.906  -0.150  0.00  0.00    +0.038 A 
ATOM     10  C   UNL     1       2.678  -2.333   0.836  0.00  0.00    +0.030 A 
ATOM     11  C   UNL     1       2.861  -0.949   0.859  0.00  0.00    +0.029 A 
BRANCH  11  12
ATOM     12  C   UNL     1       3.687  -0.351   1.865  0.00  0.00    -0.059 C 
ATOM     13  C   UNL     1       4.364   0.139   2.690  0.00  0.00    -0.041 C 
BRANCH  13  14
ATOM     14  C   UNL     1       5.189   0.737   3.695  0.00  0.00    +0.117 A 
ATOM     15  C   UNL     1       5.455   2.085   3.853  0.00  0.00    +0.148 A 
ATOM     16  N   UNL     1       6.261   2.230   4.899  0.00  0.00    -0.235 NA
ATOM     17  C   UNL     1       6.530   1.040   5.426  0.00  0.00    +0.138 A 
ATOM     18  N   UNL     1       5.870   0.083   4.701  0.00  0.00    -0.293 N 
ATOM     19  C   UNL     1       5.972  -1.234   5.037  0.00  0.00    +0.094 A 
ATOM     20  C   UNL     1       6.722  -1.619   6.093  0.00  0.00    +0.018 A 
ATOM     21  C   UNL     1       7.407  -0.662   6.858  0.00  0.00    +0.005 A 
ATOM     22  C   UNL     1       7.320   0.655   6.525  0.00  0.00    +0.047 A 
ENDBRANCH  13  14
ENDBRANCH  11  12
ENDBRANCH   1   9
BRANCH   3  23
ATOM     23  C   UNL     1       0.800  -6.317  -1.234  0.00  0.00    +0.034 A 
ATOM     24  C   UNL     1       0.797  -7.093  -0.083  0.00  0.00    +0.027 A 
ATOM     25  C   UNL     1       0.692  -8.467  -0.177  0.00  0.00    +0.048 A 
ATOM     26  C   UNL     1       0.588  -9.071  -1.422  0.00  0.00    +0.133 A 
ATOM     27  C   UNL     1       0.591  -8.296  -2.572  0.00  0.00    +0.098 A 
ATOM     28  C   UNL     1       0.690  -6.922  -2.479  0.00  0.00    +0.039 A 
BRANCH  27  29
ATOM     29  C   UNL     1       0.479  -8.953  -3.924  0.00  0.00    +0.421 C 
ATOM     30  F   UNL     1       0.504  -7.974  -4.923  0.00  0.00    -0.166 F 
ATOM     31  F   UNL     1       1.553  -9.832  -4.106  0.00  0.00    -0.166 F 
ATOM     32  F   UNL     1      -0.723  -9.665  -3.998  0.00  0.00    -0.166 F 
ENDBRANCH  27  29
BRANCH  26  33
ATOM     33  O   UNL     1       0.485 -10.424  -1.514  0.00  0.00    -0.488 OA
BRANCH  33  34
ATOM     34  C   UNL     1       0.372 -11.151  -0.289  0.00  0.00    +0.170 C 
ATOM     35  C   UNL     1       1.770 -11.428   0.272  0.00  0.00    +0.026 C 
ATOM     36  C   UNL     1       1.645 -12.275   1.541  0.00  0.00    -0.076 C 
ATOM     37  N   UNL     1       0.984 -13.545   1.222  0.00  0.00    +0.378 N 
ATOM     38  C   UNL     1      -0.383 -13.291   0.751  0.00  0.00    -0.076 C 
ATOM     39  C   UNL     1      -0.337 -12.483  -0.548  0.00  0.00    +0.026 C 
ATOM     40  C   UNL     1       0.936 -14.386   2.426  0.00  0.00    -0.096 C 
ATOM     41  H   UNL     1       1.503 -14.023   0.501  0.00  0.00    -0.082 HD
ENDBRANCH  33  34
ENDBRANCH  26  33
ENDBRANCH   3  23
TORSDOF 7
