REMARK  Name = CHEMBL1170747
REMARK  4 active torsions:
REMARK  status: ('A' for Active; 'I' for Inactive)
REMARK    1  A    between atoms: C_3  and  C_9
REMARK    2  A    between atoms: C_6  and  C_7
REMARK    3  A    between atoms: C_7  and  N_8
REMARK    4  A    between atoms: C_12  and  C_18
REMARK                            x       y       z     vdW  Elec       q    Type
REMARK                         _______ _______ _______ _____ _____    ______ ____
ROOT
ATOM      1  C   UNL     1       3.660   2.164  -0.022  0.00  0.00    +0.088 A 
ATOM      2  C   UNL     1       4.841   1.487  -0.042  0.00  0.00    +0.121 A 
ATOM      3  N   UNL     1       6.017   2.180  -0.050  0.00  0.00    -0.296 N 
ATOM      4  C   UNL     1       7.332   1.808  -0.069  0.00  0.00    +0.076 A 
ATOM      5  C   UNL     1       8.070   2.959  -0.067  0.00  0.00    +0.140 A 
ATOM      6  N   UNL     1       7.236   3.996  -0.048  0.00  0.00    -0.234 NA
ATOM      7  C   UNL     1       5.987   3.556  -0.037  0.00  0.00    +0.156 A 
ATOM      8  C   UNL     1       4.739   4.210  -0.017  0.00  0.00    +0.158 A 
ATOM      9  N   UNL     1       3.633   3.507  -0.015  0.00  0.00    -0.250 NA
ENDROOT
BRANCH   1  12
ATOM     10  C   UNL     1      -0.017   1.379   0.010  0.00  0.00    +0.002 A 
ATOM     11  C   UNL     1       1.167   2.088   0.002  0.00  0.00    +0.010 A 
ATOM     12  C   UNL     1       2.384   1.407  -0.013  0.00  0.00    +0.002 A 
ATOM     13  C   UNL     1       2.397   0.014  -0.021  0.00  0.00    +0.010 A 
ATOM     14  C   UNL     1       1.206  -0.685  -0.013  0.00  0.00    +0.002 A 
ATOM     15  C   UNL     1       0.002  -0.004   0.002  0.00  0.00    -0.065 A 
BRANCH  15  16
ATOM     16  C   UNL     1      -1.294  -0.772   0.010  0.00  0.00    -0.051 C 
BRANCH  16  17
ATOM     17  N   UNL     1      -1.729  -1.015  -1.372  0.00  0.00    +0.381 N 
ATOM     18  H   UNL     1      -2.597  -1.529  -1.367  0.00  0.00    -0.090 HD
ATOM     19  H   UNL     1      -1.864  -0.132  -1.842  0.00  0.00    -0.090 HD
ATOM     20  H   UNL     1      -1.024  -1.549  -1.857  0.00  0.00    -0.090 HD
ENDBRANCH  16  17
ENDBRANCH  15  16
ENDBRANCH   1  12
BRANCH   4  21
ATOM     21  C   UNL     1       7.857   0.424  -0.087  0.00  0.00    +0.038 A 
ATOM     22  C   UNL     1       9.174   0.059  -0.100  0.00  0.00    +0.115 A 
ATOM     23  N   UNL     1       9.223  -1.289  -0.115  0.00  0.00    -0.284 N 
ATOM     24  H   UNL     1      10.029  -1.829  -0.125  0.00  0.00    +0.188 HD
ATOM     25  N   UNL     1       7.910  -1.775  -0.111  0.00  0.00    -0.182 NA
ATOM     26  C   UNL     1       7.089  -0.759  -0.088  0.00  0.00    +0.144 A 
ENDBRANCH   4  21
TORSDOF 4
