REMARK  Name = CHEMBL1173201
REMARK  9 active torsions:
REMARK  status: ('A' for Active; 'I' for Inactive)
REMARK    1  A    between atoms: C_1  and  C_2
REMARK    2  A    between atoms: C_5  and  C_19
REMARK    3  A    between atoms: C_7  and  C_8
REMARK    4  A    between atoms: C_9  and  C_10
REMARK    5  A    between atoms: N_21  and  C_22
REMARK    6  A    between atoms: C_25  and  C_32
REMARK    7  A    between atoms: C_26  and  C_28
REMARK    8  A    between atoms: C_32  and  N_33
REMARK    9  A    between atoms: N_36  and  C_39
REMARK                            x       y       z     vdW  Elec       q    Type
REMARK                         _______ _______ _______ _____ _____    ______ ____
ROOT
ATOM      1  C   UNL     1       0.020  -4.285  -0.029  0.00  0.00    +0.248 C 
ATOM      2  O   UNL     1       0.612  -4.862   0.862  0.00  0.00    -0.270 OA
ATOM      3  N   UNL     1      -0.496  -4.984  -1.059  0.00  0.00    -0.281 N 
ATOM      4  H   UNL     1      -1.033  -4.534  -1.730  0.00  0.00    +0.155 HD
ENDROOT
BRANCH   1   9
ATOM      5  C   UNL     1      -0.599   1.446   0.122  0.00  0.00    +0.044 C 
ATOM      6  C   UNL     1      -0.434  -0.051   0.086  0.00  0.00    -0.043 A 
ATOM      7  C   UNL     1      -0.959  -0.777  -0.965  0.00  0.00    +0.004 A 
ATOM      8  C   UNL     1      -0.813  -2.149  -1.006  0.00  0.00    +0.013 A 
ATOM      9  C   UNL     1      -0.133  -2.815   0.018  0.00  0.00    +0.038 A 
ATOM     10  C   UNL     1       0.399  -2.091   1.082  0.00  0.00    +0.021 A 
ATOM     11  C   UNL     1       0.254  -0.703   1.115  0.00  0.00    -0.021 A 
BRANCH  11  12
ATOM     12  C   UNL     1       0.818   0.072   2.232  0.00  0.00    +0.010 C 
ATOM     13  C   UNL     1       1.481  -0.558   3.223  0.00  0.00    +0.030 C 
BRANCH  13  14
ATOM     14  C   UNL     1       2.042   0.213   4.334  0.00  0.00    +0.086 A 
ATOM     15  C   UNL     1       2.749  -0.287   5.415  0.00  0.00    +0.141 A 
ATOM     16  N   UNL     1       3.083   0.730   6.199  0.00  0.00    -0.234 NA
ATOM     17  C   UNL     1       2.627   1.863   5.678  0.00  0.00    +0.155 A 
ATOM     18  N   UNL     1       1.975   1.574   4.506  0.00  0.00    -0.213 N 
ATOM     19  N   UNL     1       1.401   2.601   3.751  0.00  0.00    -0.173 NA
ATOM     20  C   UNL     1       1.482   3.844   4.147  0.00  0.00    +0.133 A 
ATOM     21  C   UNL     1       2.143   4.178   5.336  0.00  0.00    +0.025 A 
ATOM     22  C   UNL     1       2.706   3.202   6.103  0.00  0.00    +0.050 A 
ENDBRANCH  13  14
ENDBRANCH  11  12
ENDBRANCH   1   9
BRANCH   3  23
ATOM     23  C   UNL     1      -0.256  -6.358  -1.161  0.00  0.00    +0.034 A 
ATOM     24  C   UNL     1      -0.183  -7.139  -0.015  0.00  0.00    +0.023 A 
ATOM     25  C   UNL     1       0.054  -8.495  -0.119  0.00  0.00    +0.004 A 
ATOM     26  C   UNL     1       0.217  -9.076  -1.363  0.00  0.00    -0.052 A 
ATOM     27  C   UNL     1       0.145  -8.302  -2.506  0.00  0.00    +0.058 A 
ATOM     28  C   UNL     1      -0.097  -6.946  -2.409  0.00  0.00    +0.036 A 
BRANCH  27  29
ATOM     29  C   UNL     1       0.325  -8.940  -3.860  0.00  0.00    +0.418 C 
ATOM     30  F   UNL     1       0.091  -7.988  -4.858  0.00  0.00    -0.166 F 
ATOM     31  F   UNL     1       1.631  -9.427  -3.977  0.00  0.00    -0.166 F 
ATOM     32  F   UNL     1      -0.581  -9.996  -4.001  0.00  0.00    -0.166 F 
ENDBRANCH  27  29
BRANCH  26  33
ATOM     33  C   UNL     1       0.475 -10.557  -1.473  0.00  0.00    -0.042 C 
BRANCH  33  34
ATOM     34  N   UNL     1       1.030 -11.053  -0.206  0.00  0.00    +0.384 N 
ATOM     35  C   UNL     1       2.362 -10.473   0.006  0.00  0.00    -0.063 C 
ATOM     36  C   UNL     1       2.932 -10.974   1.334  0.00  0.00    +0.065 C 
ATOM     37  N   UNL     1       3.017 -12.441   1.305  0.00  0.00    -0.309 NA
ATOM     38  C   UNL     1       1.694 -13.036   1.069  0.00  0.00    +0.065 C 
ATOM     39  C   UNL     1       1.134 -12.517  -0.258  0.00  0.00    -0.063 C 
ATOM     40  C   UNL     1       3.613 -12.959   2.544  0.00  0.00    +0.104 C 
ATOM     41  H   UNL     1       0.422 -10.786   0.554  0.00  0.00    -0.081 HD
ENDBRANCH  33  34
ENDBRANCH  26  33
ENDBRANCH   3  23
TORSDOF 7
