REMARK  Name = CHEMBL1088240
REMARK  12 active torsions:
REMARK  status: ('A' for Active; 'I' for Inactive)
REMARK    1  A    between atoms: C_1  and  N_2
REMARK    2  A    between atoms: N_5  and  C_8
REMARK    3  A    between atoms: C_8  and  C_9
REMARK    4  A    between atoms: C_9  and  C_10
REMARK    5  A    between atoms: C_11  and  C_12
REMARK    6  A    between atoms: C_17  and  O_18
REMARK    7  A    between atoms: O_18  and  C_19
REMARK    8  A    between atoms: C_20  and  N_26
REMARK    9  A    between atoms: C_21  and  C_24
REMARK   10  A    between atoms: N_26  and  C_27
REMARK   11  A    between atoms: C_29  and  O_35
REMARK   12  A    between atoms: O_35  and  C_36
REMARK                            x       y       z     vdW  Elec       q    Type
REMARK                         _______ _______ _______ _____ _____    ______ ____
ROOT
ATOM      1  C   UNL     1       0.001 -11.056  -0.696  0.00  0.00    +0.018 A 
ATOM      2  C   UNL     1      -0.870 -10.769   0.344  0.00  0.00    +0.040 A 
ATOM      3  C   UNL     1      -0.564 -11.198   1.642  0.00  0.00    +0.074 A 
ATOM      4  C   UNL     1       0.634 -11.919   1.869  0.00  0.00    +0.026 A 
ATOM      5  C   UNL     1       1.500 -12.198   0.802  0.00  0.00    +0.058 A 
ATOM      6  C   UNL     1       1.186 -11.778  -0.458  0.00  0.00    +0.128 A 
ATOM      7  C   UNL     1       0.937 -12.350   3.183  0.00  0.00    +0.060 A 
ATOM      8  C   UNL     1       0.025 -12.036   4.202  0.00  0.00    +0.091 A 
ATOM      9  C   UNL     1      -1.139 -11.316   3.885  0.00  0.00    +0.132 A 
ATOM     10  N   UNL     1      -1.395 -10.931   2.661  0.00  0.00    -0.254 NA
ENDROOT
BRANCH   1  12
ATOM     11  C   UNL     1      -1.435  -9.924  -2.295  0.00  0.00    -0.025 C 
ATOM     12  C   UNL     1      -0.320 -10.605  -2.065  0.00  0.00    +0.007 C 
BRANCH  11  13
ATOM     13  C   UNL     1      -1.763  -9.464  -3.693  0.00  0.00    +0.042 C 
BRANCH  13  14
ATOM     14  C   UNL     1      -3.150  -9.976  -4.086  0.00  0.00    +0.088 C 
BRANCH  14  19
ATOM     15  C   UNL     1      -4.611  -9.415  -9.499  0.00  0.00    -0.096 C 
ATOM     16  N   UNL     1      -4.304  -9.915  -8.152  0.00  0.00    +0.379 N 
ATOM     17  C   UNL     1      -5.183  -9.259  -7.175  0.00  0.00    -0.064 C 
ATOM     18  C   UNL     1      -4.877  -9.794  -5.774  0.00  0.00    +0.066 C 
ATOM     19  N   UNL     1      -3.469  -9.527  -5.448  0.00  0.00    -0.306 NA
ATOM     20  C   UNL     1      -2.577 -10.157  -6.432  0.00  0.00    +0.066 C 
ATOM     21  C   UNL     1      -2.902  -9.620  -7.828  0.00  0.00    -0.064 C 
ATOM     22  H   UNL     1      -4.454 -10.913  -8.122  0.00  0.00    -0.082 HD
ENDBRANCH  14  19
ENDBRANCH  13  14
ENDBRANCH  11  13
ENDBRANCH   1  12
BRANCH   6  23
ATOM     23  O   UNL     1       2.026 -12.055  -1.489  0.00  0.00    -0.495 OA
ATOM     24  C   UNL     1       3.211 -12.791  -1.181  0.00  0.00    +0.277 C 
ENDBRANCH   6  23
BRANCH   8  25
ATOM     25  C   UNL     1       0.278 -12.445   5.550  0.00  0.00    +0.103 C 
ATOM     26  N   UNL     1       0.478 -12.770   6.620  0.00  0.00    -0.191 NA
ENDBRANCH   8  25
BRANCH   7  27
ATOM     27  N   UNL     1       2.092 -13.056   3.453  0.00  0.00    -0.312 N 
ATOM     28  H   UNL     1       2.875 -12.594   3.792  0.00  0.00    +0.152 HD
BRANCH  27  29
ATOM     29  C   UNL     1       2.134 -14.437   3.238  0.00  0.00    +0.053 A 
ATOM     30  C   UNL     1       1.057 -15.080   2.644  0.00  0.00    +0.071 A 
ATOM     31  C   UNL     1       1.102 -16.449   2.432  0.00  0.00    +0.140 A 
ATOM     32  C   UNL     1       2.223 -17.174   2.814  0.00  0.00    +0.084 A 
ATOM     33  C   UNL     1       3.295 -16.532   3.407  0.00  0.00    +0.045 A 
ATOM     34  C   UNL     1       3.256 -15.166   3.614  0.00  0.00    +0.064 A 
ATOM     35 CL   UNL     1       4.606 -14.362   4.351  0.00  0.00    -0.082 Cl
ATOM     36 CL   UNL     1       2.278 -18.889   2.550  0.00  0.00    -0.080 Cl
BRANCH  31  37
ATOM     37  O   UNL     1       0.048 -17.082   1.850  0.00  0.00    -0.494 OA
ATOM     38  C   UNL     1      -1.019 -16.260   1.374  0.00  0.00    +0.277 C 
ENDBRANCH  31  37
ENDBRANCH  27  29
ENDBRANCH   7  27
TORSDOF 9
