REMARK  Name = CHEMBL1172397
REMARK  8 active torsions:
REMARK  status: ('A' for Active; 'I' for Inactive)
REMARK    1  A    between atoms: C_1  and  C_2
REMARK    2  A    between atoms: C_5  and  C_20
REMARK    3  A    between atoms: C_7  and  C_8
REMARK    4  A    between atoms: C_9  and  C_10
REMARK    5  A    between atoms: C_18  and  N_19
REMARK    6  A    between atoms: N_22  and  C_23
REMARK    7  A    between atoms: C_25  and  C_34
REMARK    8  A    between atoms: C_27  and  N_29
REMARK                            x       y       z     vdW  Elec       q    Type
REMARK                         _______ _______ _______ _____ _____    ______ ____
ROOT
ATOM      1  C   UNL     1      -0.049   1.502   0.010  0.00  0.00    +0.045 C 
ATOM      2  C   UNL     1      -0.020  -0.004   0.002  0.00  0.00    -0.035 A 
ATOM      3  C   UNL     1      -0.018  -0.687  -1.198  0.00  0.00    +0.005 A 
ATOM      4  C   UNL     1       0.008  -2.067  -1.215  0.00  0.00    +0.013 A 
ATOM      5  C   UNL     1       0.033  -2.785  -0.016  0.00  0.00    +0.038 A 
ATOM      6  C   UNL     1       0.032  -2.105   1.199  0.00  0.00    +0.030 A 
ATOM      7  C   UNL     1       0.011  -0.709   1.210  0.00  0.00    +0.029 A 
ENDROOT
BRANCH   5   8
ATOM      8  C   UNL     1       0.059  -4.263  -0.038  0.00  0.00    +0.248 C 
ATOM      9  O   UNL     1       0.081  -4.886   1.006  0.00  0.00    -0.270 OA
ATOM     10  N   UNL     1       0.060  -4.920  -1.215  0.00  0.00    -0.281 N 
ATOM     11  H   UNL     1      -0.025  -4.426  -2.046  0.00  0.00    +0.155 HD
BRANCH  10  12
ATOM     12  C   UNL     1       0.183  -6.312  -1.238  0.00  0.00    +0.036 A 
ATOM     13  C   UNL     1       0.887  -6.931  -2.264  0.00  0.00    +0.035 A 
ATOM     14  C   UNL     1       1.009  -8.307  -2.287  0.00  0.00    +0.059 A 
ATOM     15  C   UNL     1       0.430  -9.072  -1.292  0.00  0.00    +0.038 A 
ATOM     16  C   UNL     1      -0.275  -8.459  -0.265  0.00  0.00    +0.050 A 
ATOM     17  C   UNL     1      -0.394  -7.078  -0.235  0.00  0.00    +0.049 A 
BRANCH  16  18
ATOM     18  N   UNL     1      -0.861  -9.236   0.744  0.00  0.00    -0.306 N 
ATOM     19  C   UNL     1      -1.587  -8.774   1.812  0.00  0.00    +0.112 A 
ATOM     20  C   UNL     1      -1.959  -9.852   2.527  0.00  0.00    +0.130 A 
ATOM     21  N   UNL     1      -1.478 -10.945   1.918  0.00  0.00    -0.244 NA
ATOM     22  C   UNL     1      -0.823 -10.590   0.846  0.00  0.00    +0.204 A 
ENDBRANCH  16  18
BRANCH  14  23
ATOM     23  C   UNL     1       1.773  -8.975  -3.401  0.00  0.00    +0.418 C 
ATOM     24  F   UNL     1       2.261  -8.003  -4.281  0.00  0.00    -0.166 F 
ATOM     25  F   UNL     1       2.844  -9.698  -2.864  0.00  0.00    -0.166 F 
ATOM     26  F   UNL     1       0.924  -9.846  -4.093  0.00  0.00    -0.166 F 
ENDBRANCH  14  23
ENDBRANCH  10  12
ENDBRANCH   5   8
BRANCH   7  27
ATOM     27  C   UNL     1       0.016  -0.000   2.454  0.00  0.00    -0.059 C 
ATOM     28  C   UNL     1       0.019   0.581   3.475  0.00  0.00    -0.041 C 
BRANCH  28  29
ATOM     29  C   UNL     1       0.023   1.290   4.719  0.00  0.00    +0.117 A 
ATOM     30  C   UNL     1      -0.007   2.662   4.890  0.00  0.00    +0.148 A 
ATOM     31  N   UNL     1       0.010   2.918   6.192  0.00  0.00    -0.233 NA
ATOM     32  C   UNL     1       0.049   1.778   6.873  0.00  0.00    +0.159 A 
ATOM     33  N   UNL     1       0.052   0.738   5.983  0.00  0.00    -0.291 N 
ATOM     34  C   UNL     1       0.083  -0.554   6.423  0.00  0.00    +0.094 A 
ATOM     35  C   UNL     1       0.107  -0.833   7.744  0.00  0.00    +0.020 A 
ATOM     36  C   UNL     1       0.100   0.206   8.687  0.00  0.00    +0.028 A 
ATOM     37  C   UNL     1       0.079   1.506   8.260  0.00  0.00    +0.068 A 
BRANCH  37  38
ATOM     38  N   UNL     1       0.070   2.553   9.185  0.00  0.00    -0.355 N 
ATOM     39  H   UNL     1       0.042   3.472   8.876  0.00  0.00    +0.142 HD
ATOM     40  H   UNL     1       0.090   2.360  10.135  0.00  0.00    +0.142 HD
ENDBRANCH  37  38
ENDBRANCH  28  29
ENDBRANCH   7  27
TORSDOF 7
