REMARK  Name = CHEMBL211508
REMARK  7 active torsions:
REMARK  status: ('A' for Active; 'I' for Inactive)
REMARK    1  A    between atoms: C_1  and  O_2
REMARK    2  A    between atoms: O_2  and  C_3
REMARK    3  A    between atoms: C_8  and  O_9
REMARK    4  A    between atoms: O_9  and  C_10
REMARK    5  A    between atoms: C_16  and  C_20
REMARK    6  A    between atoms: C_26  and  N_30
REMARK    7  A    between atoms: C_33  and  N_36
REMARK                            x       y       z     vdW  Elec       q    Type
REMARK                         _______ _______ _______ _____ _____    ______ ____
ROOT
ATOM      1  C   UNL     1      -1.445  -7.036  -3.160  0.00  0.00    +0.160 A 
ATOM      2  N   UNL     1      -1.833  -8.024  -4.025  0.00  0.00    -0.337 N 
ATOM      3  H   UNL     1      -1.715  -8.979  -3.899  0.00  0.00    +0.167 HD
ATOM      4  C   UNL     1      -2.425  -7.406  -5.112  0.00  0.00    +0.067 A 
ATOM      5  C   UNL     1      -3.000  -7.873  -6.286  0.00  0.00    +0.029 A 
ATOM      6  C   UNL     1      -3.519  -6.982  -7.200  0.00  0.00    +0.025 A 
ATOM      7  C   UNL     1      -3.469  -5.611  -6.955  0.00  0.00    +0.032 A 
ATOM      8  C   UNL     1      -2.900  -5.129  -5.791  0.00  0.00    +0.053 A 
ATOM      9  C   UNL     1      -2.372  -6.025  -4.856  0.00  0.00    +0.091 A 
ATOM     10  N   UNL     1      -1.770  -5.864  -3.652  0.00  0.00    -0.226 NA
ENDROOT
BRANCH   1  17
ATOM     11  C   UNL     1       0.074  -4.117   0.161  0.00  0.00    +0.129 A 
ATOM     12  C   UNL     1       0.662  -4.790   1.231  0.00  0.00    +0.048 A 
ATOM     13  C   UNL     1       0.747  -6.152   1.237  0.00  0.00    +0.031 A 
ATOM     14  C   UNL     1       0.245  -6.887   0.165  0.00  0.00    +0.067 A 
ATOM     15  C   UNL     1      -0.349  -6.217  -0.918  0.00  0.00    +0.034 A 
ATOM     16  C   UNL     1      -0.436  -4.823  -0.909  0.00  0.00    +0.058 A 
ATOM     17  C   UNL     1      -0.770  -7.256  -1.866  0.00  0.00    +0.135 A 
ATOM     18  N   UNL     1      -0.437  -8.418  -1.352  0.00  0.00    -0.170 NA
ATOM     19  N   UNL     1       0.184  -8.231  -0.114  0.00  0.00    -0.276 N 
ATOM     20  H   UNL     1       0.520  -8.938   0.459  0.00  0.00    +0.189 HD
BRANCH  11  21
ATOM     21  O   UNL     1      -0.001  -2.760   0.174  0.00  0.00    -0.452 OA
BRANCH  21  27
ATOM     22  C   UNL     1       1.081  -0.668  -0.191  0.00  0.00    +0.162 A 
ATOM     23  C   UNL     1       2.239   0.046  -0.454  0.00  0.00    +0.049 A 
ATOM     24  C   UNL     1       3.439  -0.619  -0.623  0.00  0.00    +0.004 A 
ATOM     25  C   UNL     1       3.487  -1.998  -0.529  0.00  0.00    +0.004 A 
ATOM     26  C   UNL     1       2.336  -2.717  -0.266  0.00  0.00    +0.050 A 
ATOM     27  C   UNL     1       1.131  -2.055  -0.090  0.00  0.00    +0.170 A 
BRANCH  22  29
ATOM     28  C   UNL     1      -0.075   1.410  -0.142  0.00  0.00    +0.277 C 
ATOM     29  O   UNL     1      -0.100  -0.014  -0.025  0.00  0.00    -0.491 OA
ENDBRANCH  22  29
ENDBRANCH  21  27
ENDBRANCH  11  21
ENDBRANCH   1  17
BRANCH   7  30
ATOM     30  N   UNL     1      -3.999  -4.716  -7.892  0.00  0.00    -0.330 N 
ATOM     31  C   UNL     1      -3.835  -3.267  -7.718  0.00  0.00    +0.103 C 
ATOM     32  C   UNL     1      -3.216  -2.684  -8.993  0.00  0.00    +0.004 C 
ATOM     33  C   UNL     1      -4.073  -3.081 -10.198  0.00  0.00    -0.066 C 
ATOM     34  C   UNL     1      -4.100  -4.605 -10.327  0.00  0.00    +0.004 C 
ATOM     35  C   UNL     1      -4.723  -5.210  -9.071  0.00  0.00    +0.103 C 
BRANCH  33  36
ATOM     36  N   UNL     1      -3.501  -2.497 -11.418  0.00  0.00    +0.382 N 
ATOM     37  C   UNL     1      -3.468  -1.035 -11.290  0.00  0.00    -0.078 C 
ATOM     38  C   UNL     1      -2.799  -0.425 -12.525  0.00  0.00    -0.019 C 
ATOM     39  C   UNL     1      -3.596  -0.813 -13.774  0.00  0.00    -0.004 C 
ATOM     40  C   UNL     1      -3.687  -2.339 -13.857  0.00  0.00    -0.019 C 
ATOM     41  C   UNL     1      -4.323  -2.877 -12.573  0.00  0.00    -0.078 C 
ATOM     42  H   UNL     1      -2.561  -2.842 -11.547  0.00  0.00    -0.081 HD
ENDBRANCH  33  36
ENDBRANCH   7  30
TORSDOF 6
