REMARK  Name = CHEMBL169467
REMARK  10 active torsions:
REMARK  status: ('A' for Active; 'I' for Inactive)
REMARK    1  A    between atoms: C_1  and  O_2
REMARK    2  A    between atoms: O_2  and  C_3
REMARK    3  A    between atoms: C_6  and  C_9
REMARK    4  A    between atoms: C_9  and  C_10
REMARK    5  A    between atoms: C_10  and  C_11
REMARK    6  A    between atoms: C_10  and  N_13
REMARK    7  A    between atoms: C_11  and  O_12
REMARK    8  A    between atoms: C_15  and  C_23
REMARK    9  A    between atoms: C_21  and  N_22
REMARK   10  A    between atoms: C_27  and  O_29
REMARK                            x       y       z     vdW  Elec       q    Type
REMARK                         _______ _______ _______ _____ _____    ______ ____
ROOT
ATOM      1  N   UNL     1       4.662  -3.263  -5.248  0.00  0.00    -0.326 N 
ATOM      2  C   UNL     1       4.336  -4.439  -5.866  0.00  0.00    +0.097 A 
ATOM      3  C   UNL     1       5.158  -4.640  -6.926  0.00  0.00    +0.012 A 
ATOM      4  C   UNL     1       6.070  -3.490  -6.970  0.00  0.00    +0.066 A 
ATOM      5  C   UNL     1       5.705  -2.659  -5.897  0.00  0.00    +0.147 A 
ATOM      6  N   UNL     1       6.382  -1.527  -5.710  0.00  0.00    -0.218 NA
ATOM      7  C   UNL     1       7.368  -1.193  -6.515  0.00  0.00    +0.225 A 
ATOM      8  N   UNL     1       7.739  -1.943  -7.537  0.00  0.00    -0.220 NA
ATOM      9  C   UNL     1       7.130  -3.096  -7.798  0.00  0.00    +0.129 A 
ENDROOT
BRANCH   3  10
ATOM     10  C   UNL     1       5.139  -5.793  -7.857  0.00  0.00    -0.012 A 
ATOM     11  C   UNL     1       5.135  -5.580  -9.235  0.00  0.00    +0.009 A 
ATOM     12  C   UNL     1       5.117  -6.656 -10.099  0.00  0.00    +0.004 A 
ATOM     13  C   UNL     1       5.103  -7.946  -9.603  0.00  0.00    +0.045 A 
ATOM     14  C   UNL     1       5.106  -8.168  -8.233  0.00  0.00    +0.117 A 
ATOM     15  C   UNL     1       5.130  -7.094  -7.357  0.00  0.00    +0.054 A 
BRANCH  14  16
ATOM     16  O   UNL     1       5.091  -9.438  -7.750  0.00  0.00    -0.507 OA
ATOM     17  H   UNL     1       5.970  -9.817  -7.613  0.00  0.00    +0.292 HD
ENDBRANCH  14  16
ENDBRANCH   3  10
BRANCH   9  18
ATOM     18  N   UNL     1       7.521  -3.878  -8.870  0.00  0.00    -0.343 N 
ATOM     19  H   UNL     1       7.061  -4.711  -9.056  0.00  0.00    +0.144 HD
ATOM     20  H   UNL     1       8.256  -3.594  -9.435  0.00  0.00    +0.144 HD
ENDBRANCH   9  18
BRANCH   1  21
ATOM     21  C   UNL     1       3.986  -2.723  -4.066  0.00  0.00    +0.118 C 
BRANCH  21  22
ATOM     22  C   UNL     1       2.505  -2.503  -4.381  0.00  0.00    +0.062 C 
BRANCH  22  26
ATOM     23  C   UNL     1       0.606  -0.607  -1.056  0.00  0.00    +0.120 A 
ATOM     24  C   UNL     1       1.173   0.161  -2.062  0.00  0.00    +0.046 A 
ATOM     25  C   UNL     1       1.786  -0.455  -3.136  0.00  0.00    +0.007 A 
ATOM     26  C   UNL     1       1.835  -1.835  -3.209  0.00  0.00    -0.045 A 
ATOM     27  C   UNL     1       1.270  -2.602  -2.207  0.00  0.00    +0.007 A 
ATOM     28  C   UNL     1       0.661  -1.992  -1.128  0.00  0.00    +0.046 A 
BRANCH  23  30
ATOM     29  C   UNL     1      -0.017   1.425   0.010  0.00  0.00    +0.277 C 
ATOM     30  O   UNL     1       0.002  -0.004   0.002  0.00  0.00    -0.495 OA
ENDBRANCH  23  30
ENDBRANCH  22  26
ENDBRANCH  21  22
BRANCH  21  31
ATOM     31  C   UNL     1       4.119  -3.711  -2.906  0.00  0.00    +0.181 C 
BRANCH  31  32
ATOM     32  O   UNL     1       5.494  -3.828  -2.535  0.00  0.00    -0.393 OA
ATOM     33  H   UNL     1       5.654  -4.440  -1.804  0.00  0.00    +0.209 HD
ENDBRANCH  31  32
ENDBRANCH  21  31
ENDBRANCH   1  21
TORSDOF 9
