REMARK  Name = CHEMBL209753
REMARK  7 active torsions:
REMARK  status: ('A' for Active; 'I' for Inactive)
REMARK    1  A    between atoms: C_4  and  C_7
REMARK    2  A    between atoms: C_7  and  N_8
REMARK    3  A    between atoms: C_11  and  N_14
REMARK    4  A    between atoms: N_14  and  C_15
REMARK    5  A    between atoms: C_21  and  C_25
REMARK    6  A    between atoms: C_31  and  N_35
REMARK    7  A    between atoms: C_38  and  N_41
REMARK                            x       y       z     vdW  Elec       q    Type
REMARK                         _______ _______ _______ _____ _____    ______ ____
ROOT
ATOM      1  C   UNL     1       7.686  -1.496   5.255  0.00  0.00    +0.028 A 
ATOM      2  C   UNL     1       8.679  -1.513   4.266  0.00  0.00    +0.025 A 
ATOM      3  C   UNL     1       9.973  -1.796   4.559  0.00  0.00    +0.032 A 
ATOM      4  C   UNL     1      10.341  -2.081   5.890  0.00  0.00    +0.093 A 
ATOM      5  C   UNL     1       9.297  -2.062   6.926  0.00  0.00    +0.032 A 
ATOM      6  C   UNL     1       7.979  -1.758   6.564  0.00  0.00    +0.035 A 
ATOM      7  C   UNL     1       9.974  -2.380   8.110  0.00  0.00    +0.109 A 
ATOM      8  N   UNL     1      11.279  -2.560   7.767  0.00  0.00    -0.273 N 
ATOM      9  N   UNL     1      11.467  -2.388   6.508  0.00  0.00    -0.173 NA
ATOM     10  H   UNL     1      11.980  -2.791   8.396  0.00  0.00    +0.189 HD
ENDROOT
BRANCH   7  11
ATOM     11  C   UNL     1       9.393  -2.494   9.452  0.00  0.00    +0.158 A 
ATOM     12  N   UNL     1      10.092  -2.803  10.592  0.00  0.00    -0.337 N 
ATOM     13  H   UNL     1      11.043  -2.982  10.654  0.00  0.00    +0.167 HD
ATOM     14  C   UNL     1       9.184  -2.811  11.637  0.00  0.00    +0.067 A 
ATOM     15  C   UNL     1       9.292  -3.051  12.999  0.00  0.00    +0.029 A 
ATOM     16  C   UNL     1       8.173  -2.983  13.802  0.00  0.00    +0.025 A 
ATOM     17  C   UNL     1       6.930  -2.674  13.253  0.00  0.00    +0.032 A 
ATOM     18  C   UNL     1       6.804  -2.432  11.898  0.00  0.00    +0.053 A 
ATOM     19  C   UNL     1       7.933  -2.498  11.074  0.00  0.00    +0.091 A 
ATOM     20  N   UNL     1       8.124  -2.312   9.746  0.00  0.00    -0.226 NA
BRANCH  17  21
ATOM     21  N   UNL     1       5.802  -2.608  14.079  0.00  0.00    -0.330 N 
ATOM     22  C   UNL     1       4.507  -2.166  13.543  0.00  0.00    +0.103 C 
ATOM     23  C   UNL     1       3.452  -3.229  13.867  0.00  0.00    +0.004 C 
ATOM     24  C   UNL     1       3.450  -3.498  15.373  0.00  0.00    -0.066 C 
ATOM     25  C   UNL     1       4.820  -4.033  15.799  0.00  0.00    +0.004 C 
ATOM     26  C   UNL     1       5.889  -2.985  15.496  0.00  0.00    +0.103 C 
BRANCH  24  27
ATOM     27  N   UNL     1       2.416  -4.492  15.692  0.00  0.00    +0.382 N 
ATOM     28  C   UNL     1       1.104  -3.982  15.276  0.00  0.00    -0.078 C 
ATOM     29  C   UNL     1       0.035  -5.046  15.531  0.00  0.00    -0.019 C 
ATOM     30  C   UNL     1       0.004  -5.383  17.025  0.00  0.00    -0.004 C 
ATOM     31  C   UNL     1       1.397  -5.844  17.463  0.00  0.00    -0.019 C 
ATOM     32  C   UNL     1       2.416  -4.750  17.137  0.00  0.00    -0.078 C 
ATOM     33  H   UNL     1       2.613  -5.350  15.198  0.00  0.00    -0.081 HD
ENDBRANCH  24  27
ENDBRANCH  17  21
ENDBRANCH   7  11
BRANCH   1  34
ATOM     34  N   UNL     1       6.370  -1.198   4.895  0.00  0.00    -0.341 N 
ATOM     35  H   UNL     1       5.675  -1.180   5.572  0.00  0.00    +0.146 HD
BRANCH  34  39
ATOM     36  N   UNL     1       4.131  -1.112   1.325  0.00  0.00    +0.382 N 
ATOM     37  C   UNL     1       4.393   0.179   1.971  0.00  0.00    -0.077 C 
ATOM     38  C   UNL     1       4.778  -0.047   3.435  0.00  0.00    +0.003 C 
ATOM     39  C   UNL     1       6.038  -0.914   3.497  0.00  0.00    +0.067 C 
ATOM     40  C   UNL     1       5.778  -2.229   2.755  0.00  0.00    +0.003 C 
ATOM     41  C   UNL     1       5.356  -1.922   1.317  0.00  0.00    -0.077 C 
ATOM     42  H   UNL     1       3.410  -1.601   1.833  0.00  0.00    -0.081 HD
BRANCH  36  43
ATOM     43  C   UNL     1       3.687  -0.886  -0.057  0.00  0.00    -0.043 C 
BRANCH  43  47
ATOM     44  C   UNL     1      -0.058   1.169  -0.031  0.00  0.00    +0.000 A 
ATOM     45  C   UNL     1       1.123   1.886  -0.047  0.00  0.00    +0.000 A 
ATOM     46  C   UNL     1       2.335   1.221  -0.056  0.00  0.00    +0.002 A 
ATOM     47  C   UNL     1       2.365  -0.161  -0.047  0.00  0.00    -0.064 A 
ATOM     48  C   UNL     1       1.184  -0.878  -0.029  0.00  0.00    +0.002 A 
ATOM     49  C   UNL     1      -0.028  -0.213  -0.023  0.00  0.00    +0.000 A 
ENDBRANCH  43  47
ENDBRANCH  36  43
ENDBRANCH  34  39
ENDBRANCH   1  34
TORSDOF 7
