REMARK  Name = CHEMBL454119
REMARK  9 active torsions:
REMARK  status: ('A' for Active; 'I' for Inactive)
REMARK    1  A    between atoms: C_1  and  C_2
REMARK    2  A    between atoms: C_2  and  C_3
REMARK    3  A    between atoms: C_3  and  C_4
REMARK    4  A    between atoms: C_4  and  N_5
REMARK    5  A    between atoms: N_10  and  C_17
REMARK    6  A    between atoms: C_13  and  S_15
REMARK    7  A    between atoms: S_15  and  C_16
REMARK    8  A    between atoms: C_17  and  C_18
REMARK    9  A    between atoms: C_18  and  C_19
REMARK                            x       y       z     vdW  Elec       q    Type
REMARK                         _______ _______ _______ _____ _____    ______ ____
ROOT
ATOM      1  N   UNL     1      -2.787  -2.571   0.015  0.00  0.00    -0.328 N 
ATOM      2  C   UNL     1      -3.021  -3.932   0.010  0.00  0.00    +0.134 A 
ATOM      3  C   UNL     1      -4.337  -4.437   0.014  0.00  0.00    +0.078 A 
ATOM      4  C   UNL     1      -5.622  -3.853   0.023  0.00  0.00    +0.148 A 
ATOM      5  N   UNL     1      -6.509  -4.807   0.022  0.00  0.00    -0.177 NA
ATOM      6  N   UNL     1      -5.864  -6.050   0.013  0.00  0.00    -0.245 N 
ATOM      7  C   UNL     1      -4.519  -5.833   0.008  0.00  0.00    +0.164 A 
ATOM      8  N   UNL     1      -3.445  -6.622  -0.001  0.00  0.00    -0.202 NA
ATOM      9  C   UNL     1      -2.228  -6.104  -0.005  0.00  0.00    +0.192 A 
ATOM     10  N   UNL     1      -2.012  -4.793  -0.004  0.00  0.00    -0.206 NA
ATOM     11  H   UNL     1      -3.533  -1.950   0.025  0.00  0.00    +0.147 HD
ENDROOT
BRANCH   9  12
ATOM     12  S   UNL     1      -0.843  -7.193  -0.017  0.00  0.00    -0.089 S 
ATOM     13  C   UNL     1       0.590  -6.080  -0.018  0.00  0.00    +0.093 C 
ENDBRANCH   9  12
BRANCH   1  14
ATOM     14  C   UNL     1      -1.413  -2.063   0.004  0.00  0.00    +0.103 C 
BRANCH  14  15
ATOM     15  C   UNL     1      -1.433  -0.534   0.013  0.00  0.00    +0.018 C 
BRANCH  15  17
ATOM     16  C   UNL     1      -0.019   1.526   0.010  0.00  0.00    +0.004 C 
ATOM     17  C   UNL     1       0.002  -0.004   0.002  0.00  0.00    -0.002 C 
ENDBRANCH  15  17
ENDBRANCH  14  15
ENDBRANCH   1  14
BRANCH   6  18
ATOM     18  C   UNL     1      -6.523  -7.359   0.010  0.00  0.00    +0.169 C 
BRANCH  18  19
ATOM     19  C   UNL     1      -6.759  -7.807  -1.433  0.00  0.00    +0.132 C 
ATOM     20 CL   UNL     1      -5.172  -8.070  -2.248  0.00  0.00    -0.115 Cl
BRANCH  19  21
ATOM     21  C   UNL     1      -7.545  -9.093  -1.438  0.00  0.00    -0.028 A 
ATOM     22  C   UNL     1      -6.992 -10.242  -0.904  0.00  0.00    +0.008 A 
ATOM     23  C   UNL     1      -7.712 -11.422  -0.907  0.00  0.00    +0.038 A 
ATOM     24  C   UNL     1      -8.988 -11.453  -1.445  0.00  0.00    +0.123 A 
ATOM     25  C   UNL     1      -9.540 -10.301  -1.979  0.00  0.00    +0.038 A 
ATOM     26  C   UNL     1      -8.820  -9.121  -1.970  0.00  0.00    +0.008 A 
ATOM     27  F   UNL     1      -9.692 -12.605  -1.449  0.00  0.00    -0.205 F 
ENDBRANCH  19  21
ENDBRANCH  18  19
ENDBRANCH   6  18
TORSDOF 7
