REMARK  Name = CHEMBL211154
REMARK  6 active torsions:
REMARK  status: ('A' for Active; 'I' for Inactive)
REMARK    1  A    between atoms: C_3  and  C_6
REMARK    2  A    between atoms: C_6  and  N_7
REMARK    3  A    between atoms: N_7  and  C_8
REMARK    4  A    between atoms: C_14  and  C_18
REMARK    5  A    between atoms: C_24  and  N_28
REMARK    6  A    between atoms: C_31  and  N_34
REMARK                            x       y       z     vdW  Elec       q    Type
REMARK                         _______ _______ _______ _____ _____    ______ ____
ROOT
ATOM      1  C   UNL     1       7.706   0.462   5.656  0.00  0.00    +0.158 A 
ATOM      2  N   UNL     1       8.549   0.457   6.738  0.00  0.00    -0.337 N 
ATOM      3  H   UNL     1       9.519   0.448   6.713  0.00  0.00    +0.167 HD
ATOM      4  C   UNL     1       7.756   0.468   7.873  0.00  0.00    +0.067 A 
ATOM      5  C   UNL     1       8.029   0.469   9.234  0.00  0.00    +0.029 A 
ATOM      6  C   UNL     1       6.993   0.481  10.143  0.00  0.00    +0.025 A 
ATOM      7  C   UNL     1       5.670   0.492   9.706  0.00  0.00    +0.032 A 
ATOM      8  C   UNL     1       5.381   0.491   8.354  0.00  0.00    +0.053 A 
ATOM      9  C   UNL     1       6.424   0.479   7.422  0.00  0.00    +0.091 A 
ATOM     10  N   UNL     1       6.457   0.480   6.068  0.00  0.00    -0.226 NA
ENDROOT
BRANCH   1  17
ATOM     11  C   UNL     1       5.475   0.486   1.588  0.00  0.00    +0.028 A 
ATOM     12  C   UNL     1       6.361   0.473   0.503  0.00  0.00    +0.025 A 
ATOM     13  C   UNL     1       7.706   0.456   0.679  0.00  0.00    +0.032 A 
ATOM     14  C   UNL     1       8.239   0.451   1.985  0.00  0.00    +0.093 A 
ATOM     15  C   UNL     1       7.306   0.465   3.123  0.00  0.00    +0.032 A 
ATOM     16  C   UNL     1       5.927   0.487   2.878  0.00  0.00    +0.035 A 
ATOM     17  C   UNL     1       8.133   0.455   4.253  0.00  0.00    +0.109 A 
ATOM     18  N   UNL     1       9.413   0.437   3.788  0.00  0.00    -0.273 N 
ATOM     19  N   UNL     1       9.452   0.435   2.505  0.00  0.00    -0.173 NA
ATOM     20  H   UNL     1      10.198   0.427   4.358  0.00  0.00    +0.189 HD
BRANCH  11  21
ATOM     21  N   UNL     1       4.099   0.504   1.346  0.00  0.00    -0.337 N 
ATOM     22  H   UNL     1       3.476   0.516   2.090  0.00  0.00    +0.147 HD
BRANCH  21  23
ATOM     23  C   UNL     1       3.597   0.503  -0.030  0.00  0.00    +0.176 C 
BRANCH  23  26
ATOM     24  C   UNL     1      -0.025   1.185   0.002  0.00  0.00    +0.041 A 
ATOM     25  C   UNL     1       1.319   1.625  -0.013  0.00  0.00    +0.046 A 
ATOM     26  C   UNL     1       2.090   0.524  -0.015  0.00  0.00    +0.122 A 
ATOM     27  O   UNL     1       1.290  -0.555  -0.002  0.00  0.00    -0.466 OA
ATOM     28  C   UNL     1       0.006  -0.160   0.009  0.00  0.00    +0.195 A 
ENDBRANCH  23  26
ENDBRANCH  21  23
ENDBRANCH  11  21
ENDBRANCH   1  17
BRANCH   7  29
ATOM     29  N   UNL     1       4.628   0.503  10.640  0.00  0.00    -0.330 N 
ATOM     30  C   UNL     1       3.232   0.637  10.203  0.00  0.00    +0.103 C 
ATOM     31  C   UNL     1       2.417  -0.518  10.794  0.00  0.00    +0.004 C 
ATOM     32  C   UNL     1       2.601  -0.541  12.313  0.00  0.00    -0.066 C 
ATOM     33  C   UNL     1       4.077  -0.769  12.647  0.00  0.00    +0.004 C 
ATOM     34  C   UNL     1       4.909   0.377  12.076  0.00  0.00    +0.103 C 
BRANCH  32  35
ATOM     35  N   UNL     1       1.795  -1.627  12.887  0.00  0.00    +0.382 N 
ATOM     36  C   UNL     1       0.381  -1.410  12.560  0.00  0.00    -0.078 C 
ATOM     37  C   UNL     1      -0.453  -2.580  13.086  0.00  0.00    -0.019 C 
ATOM     38  C   UNL     1      -0.288  -2.675  14.606  0.00  0.00    -0.004 C 
ATOM     39  C   UNL     1       1.199  -2.826  14.939  0.00  0.00    -0.019 C 
ATOM     40  C   UNL     1       1.972  -1.647  14.345  0.00  0.00    -0.078 C 
ATOM     41  H   UNL     1       2.096  -2.508  12.501  0.00  0.00    -0.081 HD
ENDBRANCH  32  35
ENDBRANCH   7  29
TORSDOF 6
