REMARK  Name = CHEMBL355019
REMARK  8 active torsions:
REMARK  status: ('A' for Active; 'I' for Inactive)
REMARK    1  A    between atoms: C_1  and  O_2
REMARK    2  A    between atoms: O_2  and  C_3
REMARK    3  A    between atoms: C_3  and  C_5
REMARK    4  A    between atoms: C_5  and  N_6
REMARK    5  A    between atoms: C_9  and  N_11
REMARK    6  A    between atoms: C_13  and  C_21
REMARK    7  A    between atoms: C_19  and  N_20
REMARK    8  A    between atoms: C_25  and  O_27
REMARK                            x       y       z     vdW  Elec       q    Type
REMARK                         _______ _______ _______ _____ _____    ______ ____
ROOT
ATOM      1  N   UNL     1       3.209  -5.581   2.931  0.00  0.00    -0.330 N 
ATOM      2  C   UNL     1       3.717  -5.812   1.682  0.00  0.00    +0.097 A 
ATOM      3  C   UNL     1       4.235  -7.064   1.625  0.00  0.00    +0.012 A 
ATOM      4  C   UNL     1       4.031  -7.661   2.951  0.00  0.00    +0.066 A 
ATOM      5  C   UNL     1       3.389  -6.680   3.727  0.00  0.00    +0.147 A 
ATOM      6  N   UNL     1       3.089  -6.967   4.994  0.00  0.00    -0.218 NA
ATOM      7  C   UNL     1       3.391  -8.140   5.507  0.00  0.00    +0.225 A 
ATOM      8  N   UNL     1       3.998  -9.086   4.814  0.00  0.00    -0.220 NA
ATOM      9  C   UNL     1       4.329  -8.897   3.539  0.00  0.00    +0.129 A 
ENDROOT
BRANCH   1  13
ATOM     10  N   UNL     1       1.400  -2.529   2.299  0.00  0.00    +0.388 N 
ATOM     11  C   UNL     1       2.845  -2.204   2.180  0.00  0.00    -0.076 C 
ATOM     12  C   UNL     1       3.540  -3.148   3.184  0.00  0.00    +0.005 C 
ATOM     13  C   UNL     1       2.570  -4.334   3.357  0.00  0.00    +0.070 C 
ATOM     14  C   UNL     1       1.369  -4.007   2.443  0.00  0.00    -0.053 C 
ATOM     15  H   UNL     1       1.004  -2.086   3.115  0.00  0.00    -0.081 HD
BRANCH  10  16
ATOM     16  C   UNL     1       0.679  -2.115   1.088  0.00  0.00    +0.044 C 
BRANCH  16  17
ATOM     17  C   UNL     1       0.618  -0.611   1.029  0.00  0.00    +0.290 C 
ATOM     18  O   UNL     1       1.124   0.049   1.905  0.00  0.00    -0.253 OA
BRANCH  17  20
ATOM     19  C   UNL     1      -0.017   1.425   0.010  0.00  0.00    +0.280 C 
ATOM     20  O   UNL     1       0.002  -0.004   0.002  0.00  0.00    -0.469 OA
ENDBRANCH  17  20
ENDBRANCH  16  17
ENDBRANCH  10  16
ENDBRANCH   1  13
BRANCH   3  21
ATOM     21  C   UNL     1       4.879  -7.705   0.454  0.00  0.00    -0.012 A 
ATOM     22  C   UNL     1       6.119  -8.329   0.592  0.00  0.00    +0.009 A 
ATOM     23  C   UNL     1       6.717  -8.924  -0.500  0.00  0.00    +0.004 A 
ATOM     24  C   UNL     1       6.090  -8.905  -1.732  0.00  0.00    +0.045 A 
ATOM     25  C   UNL     1       4.856  -8.285  -1.879  0.00  0.00    +0.117 A 
ATOM     26  C   UNL     1       4.246  -7.690  -0.787  0.00  0.00    +0.054 A 
BRANCH  25  27
ATOM     27  O   UNL     1       4.245  -8.268  -3.092  0.00  0.00    -0.507 OA
ATOM     28  H   UNL     1       3.663  -9.024  -3.250  0.00  0.00    +0.292 HD
ENDBRANCH  25  27
ENDBRANCH   3  21
BRANCH   9  29
ATOM     29  N   UNL     1       4.965  -9.891   2.817  0.00  0.00    -0.343 N 
ATOM     30  H   UNL     1       5.211  -9.736   1.892  0.00  0.00    +0.144 HD
ATOM     31  H   UNL     1       5.165 -10.742   3.236  0.00  0.00    +0.144 HD
ENDBRANCH   9  29
TORSDOF 7
