REMARK  Name = CHEMBL378299
REMARK  3 active torsions:
REMARK  status: ('A' for Active; 'I' for Inactive)
REMARK    1  A    between atoms: C_7  and  C_11
REMARK    2  A    between atoms: C_17  and  N_21
REMARK    3  A    between atoms: C_24  and  N_27
REMARK                            x       y       z     vdW  Elec       q    Type
REMARK                         _______ _______ _______ _____ _____    ______ ____
ROOT
ATOM      1  C   UNL     1      -4.337   3.138   0.037  0.00  0.00    +0.160 A 
ATOM      2  N   UNL     1      -5.661   3.483   0.076  0.00  0.00    -0.337 N 
ATOM      3  H   UNL     1      -6.415   2.873   0.092  0.00  0.00    +0.167 HD
ATOM      4  C   UNL     1      -5.723   4.866   0.088  0.00  0.00    +0.067 A 
ATOM      5  C   UNL     1      -6.766   5.780   0.123  0.00  0.00    +0.029 A 
ATOM      6  C   UNL     1      -6.498   7.132   0.125  0.00  0.00    +0.025 A 
ATOM      7  C   UNL     1      -5.181   7.589   0.092  0.00  0.00    +0.032 A 
ATOM      8  C   UNL     1      -4.131   6.692   0.057  0.00  0.00    +0.053 A 
ATOM      9  C   UNL     1      -4.392   5.318   0.055  0.00  0.00    +0.091 A 
ATOM     10  N   UNL     1      -3.596   4.221   0.030  0.00  0.00    -0.226 NA
ENDROOT
BRANCH   1  17
ATOM     11  C   UNL     1      -0.018   1.385  -0.079  0.00  0.00    +0.001 A 
ATOM     12  C   UNL     1       0.000  -0.004  -0.090  0.00  0.00    +0.002 A 
ATOM     13  C   UNL     1      -1.174  -0.721  -0.069  0.00  0.00    +0.028 A 
ATOM     14  C   UNL     1      -2.394  -0.049  -0.035  0.00  0.00    +0.066 A 
ATOM     15  C   UNL     1      -2.407   1.358  -0.023  0.00  0.00    +0.030 A 
ATOM     16  C   UNL     1      -1.203   2.064  -0.040  0.00  0.00    +0.012 A 
ATOM     17  C   UNL     1      -3.820   1.756   0.013  0.00  0.00    +0.135 A 
ATOM     18  N   UNL     1      -4.540   0.657   0.021  0.00  0.00    -0.170 NA
ATOM     19  H   UNL     1      -3.999  -1.385  -0.009  0.00  0.00    +0.189 HD
ATOM     20  N   UNL     1      -3.702  -0.462  -0.008  0.00  0.00    -0.276 N 
ENDBRANCH   1  17
BRANCH   7  21
ATOM     21  N   UNL     1      -4.922   8.964   0.094  0.00  0.00    -0.330 N 
ATOM     22  C   UNL     1      -3.544   9.466   0.182  0.00  0.00    +0.103 C 
ATOM     23  C   UNL     1      -3.296  10.430  -0.982  0.00  0.00    +0.004 C 
ATOM     24  C   UNL     1      -4.366  11.525  -0.970  0.00  0.00    -0.066 C 
ATOM     25  C   UNL     1      -5.747  10.892  -1.153  0.00  0.00    +0.004 C 
ATOM     26  C   UNL     1      -6.023   9.933   0.003  0.00  0.00    +0.103 C 
BRANCH  24  27
ATOM     27  N   UNL     1      -4.111  12.470  -2.065  0.00  0.00    +0.382 N 
ATOM     28  C   UNL     1      -2.783  13.071  -1.893  0.00  0.00    -0.078 C 
ATOM     29  C   UNL     1      -2.479  13.995  -3.074  0.00  0.00    -0.019 C 
ATOM     30  C   UNL     1      -3.537  15.100  -3.135  0.00  0.00    -0.004 C 
ATOM     31  C   UNL     1      -4.925  14.461  -3.240  0.00  0.00    -0.019 C 
ATOM     32  C   UNL     1      -5.138  13.519  -2.053  0.00  0.00    -0.078 C 
ATOM     33  H   UNL     1      -4.144  11.979  -2.946  0.00  0.00    -0.081 HD
ENDBRANCH  24  27
ENDBRANCH   7  21
TORSDOF 3
