REMARK  Name = CHEMBL1214141
REMARK  8 active torsions:
REMARK  status: ('A' for Active; 'I' for Inactive)
REMARK    1  A    between atoms: C_1  and  C_2
REMARK    2  A    between atoms: C_5  and  N_28
REMARK    3  A    between atoms: C_7  and  N_8
REMARK    4  A    between atoms: N_16  and  C_19
REMARK    5  A    between atoms: N_20  and  C_21
REMARK    6  A    between atoms: C_24  and  C_27
REMARK    7  A    between atoms: C_29  and  C_31
REMARK    8  A    between atoms: C_35  and  C_37
REMARK                            x       y       z     vdW  Elec       q    Type
REMARK                         _______ _______ _______ _____ _____    ______ ____
ROOT
ATOM      1  C   UNL     1      -0.619   2.043   0.187  0.00  0.00    +0.045 C 
ATOM      2  C   UNL     1      -0.352   0.570   0.355  0.00  0.00    -0.029 A 
ATOM      3  C   UNL     1      -0.263  -0.247  -0.756  0.00  0.00    +0.007 A 
ATOM      4  C   UNL     1      -0.018  -1.598  -0.607  0.00  0.00    +0.024 A 
ATOM      5  C   UNL     1       0.140  -2.140   0.663  0.00  0.00    +0.035 A 
ATOM      6  C   UNL     1       0.051  -1.323   1.781  0.00  0.00    +0.047 A 
ATOM      7  C   UNL     1      -0.189   0.035   1.627  0.00  0.00    +0.043 A 
ENDROOT
BRANCH   7   8
ATOM      8  N   UNL     1      -0.273   0.863   2.751  0.00  0.00    -0.250 N 
ATOM      9  C   UNL     1      -1.567   1.082   3.423  0.00  0.00    +0.155 C 
ATOM     10  C   UNL     1      -1.559   1.991   4.627  0.00  0.00    +0.029 A 
ATOM     11  C   UNL     1      -2.699   2.274   5.340  0.00  0.00    +0.123 A 
ATOM     12  N   UNL     1      -2.609   3.084   6.388  0.00  0.00    -0.222 NA
ATOM     13  C   UNL     1      -1.446   3.609   6.742  0.00  0.00    +0.221 A 
ATOM     14  N   UNL     1      -0.327   3.357   6.077  0.00  0.00    -0.199 NA
ATOM     15  C   UNL     1      -0.344   2.556   5.019  0.00  0.00    +0.138 A 
ATOM     16  N   UNL     1       0.808   2.275   4.306  0.00  0.00    -0.242 N 
ATOM     17  C   UNL     1       0.826   1.467   3.237  0.00  0.00    +0.314 C 
ATOM     18  O   UNL     1       1.888   1.274   2.677  0.00  0.00    -0.252 OA
ATOM     19  C   UNL     1       2.067   2.884   4.743  0.00  0.00    +0.141 C 
ATOM     20  N   UNL     1      -1.396   4.449   7.843  0.00  0.00    -0.282 N 
ATOM     21  H   UNL     1      -0.570   4.904   8.069  0.00  0.00    +0.155 HD
BRANCH  20  22
ATOM     22  C   UNL     1      -2.538   4.641   8.628  0.00  0.00    +0.052 A 
ATOM     23  C   UNL     1      -3.435   3.596   8.838  0.00  0.00    +0.026 A 
ATOM     24  C   UNL     1      -4.551   3.834   9.623  0.00  0.00    +0.025 A 
ATOM     25  C   UNL     1      -4.736   5.091  10.168  0.00  0.00    +0.038 A 
ATOM     26  N   UNL     1      -3.868   6.059   9.951  0.00  0.00    -0.258 NA
ATOM     27  C   UNL     1      -2.790   5.873   9.215  0.00  0.00    +0.134 A 
ATOM     28  C   UNL     1      -5.948   5.359  11.023  0.00  0.00    +0.065 C 
ENDBRANCH  20  22
ENDBRANCH   7   8
BRANCH   5  29
ATOM     29  N   UNL     1       0.387  -3.508   0.814  0.00  0.00    -0.281 N 
ATOM     30  C   UNL     1       1.188  -3.943   1.807  0.00  0.00    +0.248 C 
ATOM     31  O   UNL     1       1.774  -3.142   2.509  0.00  0.00    -0.270 OA
ATOM     32  H   UNL     1      -0.018  -4.145   0.204  0.00  0.00    +0.155 HD
BRANCH  30  33
ATOM     33  C   UNL     1       1.354  -5.393   2.042  0.00  0.00    +0.038 A 
ATOM     34  C   UNL     1       0.686  -6.315   1.234  0.00  0.00    +0.013 A 
ATOM     35  C   UNL     1       0.846  -7.666   1.458  0.00  0.00    +0.001 A 
ATOM     36  C   UNL     1       1.665  -8.109   2.482  0.00  0.00    +0.012 A 
ATOM     37  C   UNL     1       2.329  -7.201   3.287  0.00  0.00    +0.056 A 
ATOM     38  C   UNL     1       2.183  -5.846   3.069  0.00  0.00    +0.025 A 
BRANCH  37  39
ATOM     39  C   UNL     1       3.218  -7.692   4.400  0.00  0.00    +0.417 C 
ATOM     40  F   UNL     1       3.211  -9.091   4.420  0.00  0.00    -0.166 F 
ATOM     41  F   UNL     1       4.523  -7.235   4.190  0.00  0.00    -0.166 F 
ATOM     42  F   UNL     1       2.745  -7.206   5.623  0.00  0.00    -0.166 F 
ENDBRANCH  37  39
ENDBRANCH  30  33
ENDBRANCH   5  29
TORSDOF 5
