REMARK  Name = CHEMBL476515
REMARK  2 active torsions:
REMARK  status: ('A' for Active; 'I' for Inactive)
REMARK    1  A    between atoms: C_3  and  C_6
REMARK    2  A    between atoms: C_12  and  C_14
REMARK                            x       y       z     vdW  Elec       q    Type
REMARK                         _______ _______ _______ _____ _____    ______ ____
ROOT
ATOM      1  C   UNL     1       3.724   1.669  -0.025  0.00  0.00    +0.256 C 
ATOM      2  O   UNL     1       4.008   2.853  -0.022  0.00  0.00    -0.269 OA
ATOM      3  N   UNL     1       4.702   0.742  -0.039  0.00  0.00    -0.260 N 
ATOM      4  C   UNL     1       6.032   1.137  -0.051  0.00  0.00    +0.165 A 
ATOM      5  N   UNL     1       6.521   2.360  -0.044  0.00  0.00    -0.232 NA
ATOM      6  C   UNL     1       7.819   2.577  -0.056  0.00  0.00    +0.129 A 
ATOM      7  C   UNL     1       8.628   1.471  -0.077  0.00  0.00    +0.041 A 
ATOM      8  S   UNL     1       7.408   0.168  -0.069  0.00  0.00    -0.052 S 
ATOM      9  H   UNL     1       4.476  -0.201  -0.042  0.00  0.00    +0.157 HD
ENDROOT
BRANCH   7  10
ATOM     10  C   UNL     1      10.104   1.382  -0.096  0.00  0.00    -0.010 A 
ATOM     11  C   UNL     1      10.876   2.545  -0.088  0.00  0.00    +0.010 A 
ATOM     12  C   UNL     1      12.252   2.455  -0.105  0.00  0.00    +0.020 A 
ATOM     13  C   UNL     1      12.868   1.215  -0.130  0.00  0.00    +0.041 A 
ATOM     14  C   UNL     1      12.107   0.058  -0.139  0.00  0.00    +0.020 A 
ATOM     15  C   UNL     1      10.730   0.135  -0.116  0.00  0.00    +0.010 A 
ATOM     16 CL   UNL     1      14.601   1.111  -0.152  0.00  0.00    -0.084 Cl
ENDBRANCH   7  10
BRANCH   1  19
ATOM     17  C   UNL     1      -0.016   1.352   0.009  0.00  0.00    +0.008 A 
ATOM     18  C   UNL     1       1.175   2.036   0.002  0.00  0.00    +0.021 A 
ATOM     19  C   UNL     1       2.320   1.253  -0.013  0.00  0.00    +0.074 A 
ATOM     20  S   UNL     1       1.636  -0.394  -0.016  0.00  0.00    -0.092 S 
ATOM     21  C   UNL     1       0.002  -0.004   0.002  0.00  0.00    +0.046 A 
ENDBRANCH   1  19
TORSDOF 2
