REMARK  Name = CHEMBL364955
REMARK  9 active torsions:
REMARK  status: ('A' for Active; 'I' for Inactive)
REMARK    1  A    between atoms: C_1  and  N_2
REMARK    2  A    between atoms: N_5  and  C_8
REMARK    3  A    between atoms: C_8  and  C_9
REMARK    4  A    between atoms: C_12  and  C_15
REMARK    5  A    between atoms: C_20  and  N_26
REMARK    6  A    between atoms: C_21  and  C_24
REMARK    7  A    between atoms: N_26  and  C_27
REMARK    8  A    between atoms: C_29  and  O_35
REMARK    9  A    between atoms: O_35  and  C_36
REMARK                            x       y       z     vdW  Elec       q    Type
REMARK                         _______ _______ _______ _____ _____    ______ ____
ROOT
ATOM      1  C   UNL     1       1.137  -9.968   7.913  0.00  0.00    +0.022 A 
ATOM      2  C   UNL     1       0.541  -8.913   8.531  0.00  0.00    +0.044 A 
ATOM      3  C   UNL     1       1.327  -7.885   9.079  0.00  0.00    +0.080 A 
ATOM      4  C   UNL     1       2.721  -8.047   8.933  0.00  0.00    +0.060 A 
ATOM      5  S   UNL     1       2.873  -9.588   8.067  0.00  0.00    -0.085 S 
ATOM      6  C   UNL     1       3.623  -7.118   9.421  0.00  0.00    +0.066 A 
ATOM      7  C   UNL     1       3.105  -5.983  10.081  0.00  0.00    +0.092 A 
ATOM      8  C   UNL     1       1.713  -5.870  10.201  0.00  0.00    +0.132 A 
ATOM      9  N   UNL     1       0.900  -6.771   9.725  0.00  0.00    -0.253 NA
ENDROOT
BRANCH   1  13
ATOM     10  C   UNL     1      -0.687 -13.341   6.085  0.00  0.00    -0.033 A 
ATOM     11  C   UNL     1       0.684 -13.170   6.003  0.00  0.00    +0.005 A 
ATOM     12  C   UNL     1       1.282 -12.076   6.594  0.00  0.00    +0.009 A 
ATOM     13  C   UNL     1       0.502 -11.142   7.276  0.00  0.00    -0.011 A 
ATOM     14  C   UNL     1      -0.880 -11.320   7.354  0.00  0.00    +0.009 A 
ATOM     15  C   UNL     1      -1.467 -12.415   6.755  0.00  0.00    +0.005 A 
BRANCH  10  16
ATOM     16  C   UNL     1      -1.334 -14.537   5.436  0.00  0.00    +0.119 C 
BRANCH  16  21
ATOM     17  C   UNL     1      -2.130 -14.273  -0.136  0.00  0.00    -0.096 C 
ATOM     18  N   UNL     1      -1.740 -14.648   1.230  0.00  0.00    +0.379 N 
ATOM     19  C   UNL     1      -2.945 -14.849   2.045  0.00  0.00    -0.064 C 
ATOM     20  C   UNL     1      -2.539 -15.259   3.463  0.00  0.00    +0.066 C 
ATOM     21  N   UNL     1      -1.698 -14.207   4.052  0.00  0.00    -0.302 NA
ATOM     22  C   UNL     1      -0.500 -13.977   3.232  0.00  0.00    +0.066 C 
ATOM     23  C   UNL     1      -0.922 -13.578   1.817  0.00  0.00    -0.064 C 
ATOM     24  H   UNL     1      -1.205 -15.503   1.204  0.00  0.00    -0.082 HD
ENDBRANCH  16  21
ENDBRANCH  10  16
ENDBRANCH   1  13
BRANCH   7  25
ATOM     25  C   UNL     1       3.975  -4.979  10.614  0.00  0.00    +0.103 C 
ATOM     26  N   UNL     1       4.665  -4.181  11.036  0.00  0.00    -0.191 NA
ENDBRANCH   7  25
BRANCH   6  27
ATOM     27  N   UNL     1       4.989  -7.296   9.267  0.00  0.00    -0.311 N 
ATOM     28  H   UNL     1       5.483  -7.834   9.905  0.00  0.00    +0.152 HD
BRANCH  27  29
ATOM     29  C   UNL     1       5.655  -6.699   8.192  0.00  0.00    +0.054 A 
ATOM     30  C   UNL     1       4.974  -5.835   7.345  0.00  0.00    +0.071 A 
ATOM     31  C   UNL     1       5.637  -5.245   6.282  0.00  0.00    +0.140 A 
ATOM     32  C   UNL     1       6.981  -5.518   6.064  0.00  0.00    +0.084 A 
ATOM     33  C   UNL     1       7.659  -6.379   6.907  0.00  0.00    +0.045 A 
ATOM     34  C   UNL     1       7.002  -6.965   7.973  0.00  0.00    +0.064 A 
ATOM     35 CL   UNL     1       7.858  -8.040   9.035  0.00  0.00    -0.082 Cl
ATOM     36 CL   UNL     1       7.811  -4.778   4.731  0.00  0.00    -0.080 Cl
BRANCH  31  37
ATOM     37  O   UNL     1       4.972  -4.399   5.451  0.00  0.00    -0.494 OA
ATOM     38  C   UNL     1       3.581  -4.195   5.710  0.00  0.00    +0.277 C 
ENDBRANCH  31  37
ENDBRANCH  27  29
ENDBRANCH   6  27
TORSDOF 7
