REMARK  Name = CHEMBL1171281
REMARK  9 active torsions:
REMARK  status: ('A' for Active; 'I' for Inactive)
REMARK    1  A    between atoms: C_1  and  C_2
REMARK    2  A    between atoms: C_5  and  N_19
REMARK    3  A    between atoms: C_7  and  C_8
REMARK    4  A    between atoms: C_9  and  C_10
REMARK    5  A    between atoms: C_20  and  C_22
REMARK    6  A    between atoms: C_25  and  C_32
REMARK    7  A    between atoms: C_26  and  C_28
REMARK    8  A    between atoms: C_32  and  N_33
REMARK    9  A    between atoms: N_36  and  C_39
REMARK                            x       y       z     vdW  Elec       q    Type
REMARK                         _______ _______ _______ _____ _____    ______ ____
ROOT
ATOM      1  N   UNL     1      -0.266  -4.071  -0.416  0.00  0.00    -0.281 N 
ATOM      2  C   UNL     1      -0.159  -4.829  -1.525  0.00  0.00    +0.248 C 
ATOM      3  O   UNL     1      -0.033  -4.301  -2.612  0.00  0.00    -0.270 OA
ATOM      4  H   UNL     1      -0.296  -4.490   0.458  0.00  0.00    +0.155 HD
ENDROOT
BRANCH   1   9
ATOM      5  C   UNL     1      -0.564   1.591  -0.832  0.00  0.00    +0.045 C 
ATOM      6  C   UNL     1      -0.483   0.090  -0.725  0.00  0.00    -0.035 A 
ATOM      7  C   UNL     1      -1.198  -0.572   0.252  0.00  0.00    +0.006 A 
ATOM      8  C   UNL     1      -1.127  -1.949   0.354  0.00  0.00    +0.023 A 
ATOM      9  C   UNL     1      -0.334  -2.678  -0.525  0.00  0.00    +0.035 A 
ATOM     10  C   UNL     1       0.389  -2.025  -1.510  0.00  0.00    +0.040 A 
ATOM     11  C   UNL     1       0.313  -0.633  -1.619  0.00  0.00    +0.030 A 
BRANCH  11  12
ATOM     12  C   UNL     1       1.053   0.050  -2.638  0.00  0.00    -0.059 C 
ATOM     13  C   UNL     1       1.659   0.610  -3.473  0.00  0.00    -0.041 C 
BRANCH  13  14
ATOM     14  C   UNL     1       2.398   1.293  -4.491  0.00  0.00    +0.117 A 
ATOM     15  C   UNL     1       2.433   2.657  -4.714  0.00  0.00    +0.148 A 
ATOM     16  N   UNL     1       3.232   2.889  -5.749  0.00  0.00    -0.235 NA
ATOM     17  C   UNL     1       3.718   1.740  -6.207  0.00  0.00    +0.138 A 
ATOM     18  N   UNL     1       3.220   0.719  -5.439  0.00  0.00    -0.293 N 
ATOM     19  C   UNL     1       3.568  -0.574  -5.694  0.00  0.00    +0.094 A 
ATOM     20  C   UNL     1       4.412  -0.872  -6.707  0.00  0.00    +0.018 A 
ATOM     21  C   UNL     1       4.942   0.151  -7.509  0.00  0.00    +0.005 A 
ATOM     22  C   UNL     1       4.595   1.446  -7.268  0.00  0.00    +0.047 A 
ENDBRANCH  13  14
ENDBRANCH  11  12
ENDBRANCH   1   9
BRANCH   2  23
ATOM     23  C   UNL     1      -0.193  -6.303  -1.418  0.00  0.00    +0.038 A 
ATOM     24  C   UNL     1      -0.343  -6.912  -0.171  0.00  0.00    +0.013 A 
ATOM     25  C   UNL     1      -0.375  -8.288  -0.078  0.00  0.00    +0.006 A 
ATOM     26  C   UNL     1      -0.258  -9.064  -1.218  0.00  0.00    -0.022 A 
ATOM     27  C   UNL     1      -0.110  -8.467  -2.457  0.00  0.00    +0.060 A 
ATOM     28  C   UNL     1      -0.082  -7.092  -2.564  0.00  0.00    +0.025 A 
BRANCH  27  29
ATOM     29  C   UNL     1       0.017  -9.320  -3.692  0.00  0.00    +0.418 C 
ATOM     30  F   UNL     1       0.106  -8.497  -4.820  0.00  0.00    -0.166 F 
ATOM     31  F   UNL     1       1.168 -10.110  -3.598  0.00  0.00    -0.166 F 
ATOM     32  F   UNL     1      -1.107 -10.146  -3.806  0.00  0.00    -0.166 F 
ENDBRANCH  27  29
BRANCH  26  33
ATOM     33  C   UNL     1      -0.293 -10.567  -1.109  0.00  0.00    +0.120 C 
BRANCH  33  34
ATOM     34  N   UNL     1      -1.625 -11.055  -1.490  0.00  0.00    -0.302 NA
ATOM     35  C   UNL     1      -2.655 -10.550  -0.571  0.00  0.00    +0.066 C 
ATOM     36  C   UNL     1      -4.031 -11.031  -1.037  0.00  0.00    -0.064 C 
ATOM     37  N   UNL     1      -4.053 -12.499  -1.065  0.00  0.00    +0.379 N 
ATOM     38  C   UNL     1      -3.036 -12.988  -2.006  0.00  0.00    -0.064 C 
ATOM     39  C   UNL     1      -1.652 -12.523  -1.548  0.00  0.00    +0.066 C 
ATOM     40  C   UNL     1      -5.379 -12.961  -1.495  0.00  0.00    -0.096 C 
ATOM     41  H   UNL     1      -3.856 -12.856  -0.142  0.00  0.00    -0.082 HD
ENDBRANCH  33  34
ENDBRANCH  26  33
ENDBRANCH   2  23
TORSDOF 7
