REMARK  Name = CHEMBL298445
REMARK  4 active torsions:
REMARK  status: ('A' for Active; 'I' for Inactive)
REMARK    1  A    between atoms: C_1  and  C_2
REMARK    2  A    between atoms: C_3  and  C_8
REMARK    3  A    between atoms: N_14  and  C_15
REMARK    4  A    between atoms: C_19  and  N_21
REMARK                            x       y       z     vdW  Elec       q    Type
REMARK                         _______ _______ _______ _____ _____    ______ ____
ROOT
ATOM      1  C   UNL     1      -0.067  -0.241  -2.569  0.00  0.00    +0.084 A 
ATOM      2  C   UNL     1       0.238  -1.133  -3.608  0.00  0.00    +0.049 A 
ATOM      3  C   UNL     1       0.437  -0.623  -4.875  0.00  0.00    +0.116 A 
ATOM      4  N   UNL     1       0.335   0.684  -5.072  0.00  0.00    -0.223 NA
ATOM      5  C   UNL     1       0.045   1.506  -4.074  0.00  0.00    +0.220 A 
ATOM      6  N   UNL     1      -0.159   1.061  -2.844  0.00  0.00    -0.214 NA
ATOM      7  N   UNL     1      -0.051   2.865  -4.325  0.00  0.00    -0.284 N 
ATOM      8  H   UNL     1      -0.182   3.485  -3.591  0.00  0.00    +0.155 HD
ENDROOT
BRANCH   1  11
ATOM      9  C   UNL     1      -0.766   1.457  -0.064  0.00  0.00    +0.067 C 
ATOM     10  C   UNL     1      -0.599  -0.041  -0.057  0.00  0.00    +0.057 A 
ATOM     11  C   UNL     1      -0.289  -0.735  -1.199  0.00  0.00    +0.062 A 
ATOM     12  S   UNL     1      -0.230  -2.404  -0.566  0.00  0.00    -0.051 S 
ATOM     13  C   UNL     1      -0.595  -2.057   1.040  0.00  0.00    +0.156 A 
ATOM     14  N   UNL     1      -0.738  -0.745   1.044  0.00  0.00    -0.230 NA
ATOM     15  N   UNL     1      -0.712  -2.934   2.102  0.00  0.00    -0.338 N 
ATOM     16  H   UNL     1      -0.577  -3.884   1.962  0.00  0.00    +0.144 HD
ATOM     17  H   UNL     1      -0.929  -2.599   2.986  0.00  0.00    +0.144 HD
ENDBRANCH   1  11
BRANCH   7  18
ATOM     18  C   UNL     1       0.041   3.342  -5.636  0.00  0.00    +0.036 A 
ATOM     19  C   UNL     1      -0.556   2.640  -6.675  0.00  0.00    +0.023 A 
ATOM     20  C   UNL     1      -0.464   3.114  -7.969  0.00  0.00    +0.004 A 
ATOM     21  C   UNL     1       0.222   4.286  -8.230  0.00  0.00    +0.033 A 
ATOM     22  C   UNL     1       0.818   4.987  -7.198  0.00  0.00    +0.128 A 
ATOM     23  C   UNL     1       0.724   4.521  -5.901  0.00  0.00    +0.056 A 
BRANCH  22  24
ATOM     24  N   UNL     1       1.552   6.240  -7.482  0.00  0.00    +0.056 N 
ATOM     25  O   UNL     1       1.630   6.651  -8.617  0.00  0.00    -0.126 OA
ATOM     26  O   UNL     1       2.073   6.854  -6.580  0.00  0.00    -0.126 OA
ENDBRANCH  22  24
ENDBRANCH   7  18
TORSDOF 3
