REMARK  Name = CHEMBL1171280
REMARK  7 active torsions:
REMARK  status: ('A' for Active; 'I' for Inactive)
REMARK    1  A    between atoms: C_1  and  C_2
REMARK    2  A    between atoms: C_5  and  C_23
REMARK    3  A    between atoms: C_7  and  C_8
REMARK    4  A    between atoms: C_9  and  N_10
REMARK    5  A    between atoms: C_18  and  N_19
REMARK    6  A    between atoms: N_19  and  C_20
REMARK    7  A    between atoms: C_28  and  C_31
REMARK                            x       y       z     vdW  Elec       q    Type
REMARK                         _______ _______ _______ _____ _____    ______ ____
ROOT
ATOM      1  C   UNL     1      -0.018   1.503   0.010  0.00  0.00    +0.045 C 
ATOM      2  C   UNL     1       0.002  -0.004   0.002  0.00  0.00    -0.035 A 
ATOM      3  C   UNL     1       0.006  -0.686  -1.198  0.00  0.00    +0.005 A 
ATOM      4  C   UNL     1       0.024  -2.067  -1.215  0.00  0.00    +0.013 A 
ATOM      5  C   UNL     1       0.039  -2.783  -0.016  0.00  0.00    +0.038 A 
ATOM      6  C   UNL     1       0.036  -2.102   1.199  0.00  0.00    +0.030 A 
ATOM      7  C   UNL     1       0.023  -0.708   1.209  0.00  0.00    +0.030 A 
ENDROOT
BRANCH   5   8
ATOM      8  C   UNL     1       0.058  -4.261  -0.036  0.00  0.00    +0.249 C 
ATOM      9  O   UNL     1       0.072  -4.883   1.008  0.00  0.00    -0.270 OA
ATOM     10  N   UNL     1       0.061  -4.919  -1.213  0.00  0.00    -0.264 N 
ATOM     11  C   UNL     1       0.079  -6.313  -1.232  0.00  0.00    +0.168 A 
ATOM     12  C   UNL     1       0.090  -7.160  -0.101  0.00  0.00    +0.100 A 
ATOM     13  C   UNL     1       0.106  -8.434  -0.534  0.00  0.00    +0.242 A 
ATOM     14  O   UNL     1       0.105  -8.420  -1.876  0.00  0.00    -0.349 OA
ATOM     15  N   UNL     1       0.083  -7.069  -2.300  0.00  0.00    -0.062 NA
ATOM     16  H   UNL     1       0.050  -4.423  -2.046  0.00  0.00    +0.157 HD
BRANCH  13  17
ATOM     17  C   UNL     1       0.122  -9.663   0.337  0.00  0.00    +0.453 C 
ATOM     18  F   UNL     1      -1.192 -10.060   0.608  0.00  0.00    -0.163 F 
ATOM     19  F   UNL     1       0.794 -10.695  -0.326  0.00  0.00    -0.163 F 
ATOM     20  F   UNL     1       0.778  -9.375   1.539  0.00  0.00    -0.163 F 
ENDBRANCH  13  17
ENDBRANCH   5   8
BRANCH   7  21
ATOM     21  C   UNL     1       0.026   0.001   2.453  0.00  0.00    -0.043 C 
ATOM     22  C   UNL     1       0.028   0.583   3.473  0.00  0.00    +0.024 C 
BRANCH  22  23
ATOM     23  N   UNL     1       0.030   1.254   4.650  0.00  0.00    -0.257 N 
ATOM     24  C   UNL     1       0.008   2.609   4.810  0.00  0.00    +0.213 A 
ATOM     25  N   UNL     1       0.018   2.908   6.076  0.00  0.00    -0.233 NA
ATOM     26  C   UNL     1       0.047   1.769   6.816  0.00  0.00    +0.111 A 
ATOM     27  C   UNL     1       0.050   0.693   5.915  0.00  0.00    +0.083 A 
ATOM     28  C   UNL     1       0.072  -0.612   6.391  0.00  0.00    +0.029 A 
ATOM     29  C   UNL     1       0.089  -0.849   7.749  0.00  0.00    +0.004 A 
ATOM     30  C   UNL     1       0.083   0.206   8.648  0.00  0.00    +0.025 A 
ATOM     31  C   UNL     1       0.068   1.514   8.195  0.00  0.00    +0.055 A 
BRANCH  31  32
ATOM     32  N   UNL     1       0.060   2.572   9.105  0.00  0.00    -0.339 N 
ATOM     33  H   UNL     1       0.041   3.487   8.784  0.00  0.00    +0.146 HD
BRANCH  32  34
ATOM     34  C   UNL     1       0.083   2.301  10.545  0.00  0.00    +0.071 C 
ATOM     35  C   UNL     1      -0.858   3.119  11.432  0.00  0.00    +0.024 C 
ATOM     36  C   UNL     1       0.648   3.389  11.460  0.00  0.00    +0.024 C 
ENDBRANCH  32  34
ENDBRANCH  31  32
ENDBRANCH  22  23
ENDBRANCH   7  21
TORSDOF 6
