REMARK  Name = CHEMBL1213924
REMARK  6 active torsions:
REMARK  status: ('A' for Active; 'I' for Inactive)
REMARK    1  A    between atoms: C_1  and  C_2
REMARK    2  A    between atoms: C_5  and  N_21
REMARK    3  A    between atoms: C_7  and  N_8
REMARK    4  A    between atoms: C_13  and  C_15
REMARK    5  A    between atoms: N_24  and  C_25
REMARK    6  A    between atoms: C_29  and  C_31
REMARK                            x       y       z     vdW  Elec       q    Type
REMARK                         _______ _______ _______ _____ _____    ______ ____
ROOT
ATOM      1  C   UNL     1      -0.265   2.026   1.287  0.00  0.00    +0.045 C 
ATOM      2  C   UNL     1       0.145   0.704   0.691  0.00  0.00    -0.029 A 
ATOM      3  C   UNL     1      -0.035   0.469  -0.659  0.00  0.00    +0.007 A 
ATOM      4  C   UNL     1       0.340  -0.741  -1.209  0.00  0.00    +0.024 A 
ATOM      5  C   UNL     1       0.900  -1.727  -0.406  0.00  0.00    +0.037 A 
ATOM      6  C   UNL     1       1.082  -1.495   0.949  0.00  0.00    +0.047 A 
ATOM      7  C   UNL     1       0.710  -0.276   1.498  0.00  0.00    +0.038 A 
ENDROOT
BRANCH   7   8
ATOM      8  N   UNL     1       0.897  -0.037   2.862  0.00  0.00    -0.283 N 
ATOM      9  C   UNL     1       0.836  -1.086   3.765  0.00  0.00    +0.220 A 
ATOM     10  N   UNL     1       0.489  -2.290   3.332  0.00  0.00    -0.223 NA
ATOM     11  C   UNL     1       0.419  -3.318   4.163  0.00  0.00    +0.116 A 
ATOM     12  C   UNL     1       0.713  -3.128   5.502  0.00  0.00    +0.048 A 
ATOM     13  C   UNL     1       1.075  -1.847   5.928  0.00  0.00    +0.077 A 
ATOM     14  N   UNL     1       1.130  -0.862   5.036  0.00  0.00    -0.214 NA
ATOM     15  H   UNL     1       1.070   0.864   3.177  0.00  0.00    +0.155 HD
BRANCH  13  16
ATOM     16  C   UNL     1       1.399  -1.592   7.353  0.00  0.00    +0.019 A 
ATOM     17  C   UNL     1       1.654  -0.292   7.802  0.00  0.00    +0.013 A 
ATOM     18  C   UNL     1       1.951  -0.107   9.141  0.00  0.00    +0.020 A 
ATOM     19  C   UNL     1       1.986  -1.203   9.984  0.00  0.00    +0.111 A 
ATOM     20  N   UNL     1       1.741  -2.417   9.532  0.00  0.00    -0.263 NA
ATOM     21  C   UNL     1       1.448  -2.642   8.267  0.00  0.00    +0.120 A 
ENDBRANCH  13  16
ENDBRANCH   7   8
BRANCH   5  22
ATOM     22  N   UNL     1       1.279  -2.953  -0.965  0.00  0.00    -0.269 N 
ATOM     23  C   UNL     1       1.815  -2.994  -2.201  0.00  0.00    +0.308 C 
ATOM     24  O   UNL     1       1.883  -1.979  -2.868  0.00  0.00    -0.252 OA
ATOM     25  N   UNL     1       2.276  -4.159  -2.697  0.00  0.00    -0.269 N 
ATOM     26  H   UNL     1       1.156  -3.773  -0.462  0.00  0.00    +0.156 HD
ATOM     27  H   UNL     1       2.153  -4.981  -2.198  0.00  0.00    +0.156 HD
BRANCH  25  28
ATOM     28  C   UNL     1       2.933  -4.182  -3.933  0.00  0.00    +0.035 A 
ATOM     29  C   UNL     1       3.711  -3.102  -4.328  0.00  0.00    +0.025 A 
ATOM     30  C   UNL     1       4.358  -3.127  -5.548  0.00  0.00    +0.022 A 
ATOM     31  C   UNL     1       4.230  -4.227  -6.377  0.00  0.00    +0.053 A 
ATOM     32  C   UNL     1       3.455  -5.305  -5.987  0.00  0.00    +0.075 A 
ATOM     33  C   UNL     1       2.811  -5.287  -4.765  0.00  0.00    +0.037 A 
ATOM     34 CL   UNL     1       5.043  -4.255  -7.911  0.00  0.00    -0.083 Cl
BRANCH  32  35
ATOM     35  C   UNL     1       3.318  -6.501  -6.893  0.00  0.00    +0.419 C 
ATOM     36  F   UNL     1       2.492  -7.453  -6.286  0.00  0.00    -0.166 F 
ATOM     37  F   UNL     1       2.755  -6.102  -8.110  0.00  0.00    -0.166 F 
ATOM     38  F   UNL     1       4.580  -7.058  -7.123  0.00  0.00    -0.166 F 
ENDBRANCH  32  35
ENDBRANCH  25  28
ENDBRANCH   5  22
TORSDOF 5
