REMARK  Name = CHEMBL476304
REMARK  5 active torsions:
REMARK  status: ('A' for Active; 'I' for Inactive)
REMARK    1  A    between atoms: C_1  and  O_2
REMARK    2  A    between atoms: O_2  and  C_3
REMARK    3  A    between atoms: C_6  and  C_9
REMARK    4  A    between atoms: C_9  and  C_10
REMARK    5  A    between atoms: C_16  and  C_18
REMARK                            x       y       z     vdW  Elec       q    Type
REMARK                         _______ _______ _______ _____ _____    ______ ____
ROOT
ATOM      1  C   UNL     1       3.963  -2.719  -4.071  0.00  0.00    +0.015 A 
ATOM      2  C   UNL     1       4.576  -3.781  -3.493  0.00  0.00    +0.124 A 
ATOM      3  N   UNL     1       5.885  -3.708  -3.338  0.00  0.00    -0.233 NA
ATOM      4  C   UNL     1       6.558  -2.647  -3.731  0.00  0.00    +0.165 A 
ATOM      5  S   UNL     1       5.362  -1.651  -4.371  0.00  0.00    -0.057 S 
ATOM      6  N   UNL     1       7.923  -2.410  -3.644  0.00  0.00    -0.260 N 
ATOM      7  C   UNL     1       8.735  -3.338  -3.100  0.00  0.00    +0.256 C 
ATOM      8  O   UNL     1       8.271  -4.384  -2.684  0.00  0.00    -0.269 OA
ATOM      9  H   UNL     1       8.293  -1.577  -3.975  0.00  0.00    +0.157 HD
ENDROOT
BRANCH   7  10
ATOM     10  C   UNL     1      10.176  -3.088  -3.008  0.00  0.00    +0.074 A 
ATOM     11  C   UNL     1      11.174  -3.903  -2.495  0.00  0.00    +0.021 A 
ATOM     12  C   UNL     1      12.448  -3.391  -2.546  0.00  0.00    +0.008 A 
ATOM     13  C   UNL     1      12.642  -2.159  -3.078  0.00  0.00    +0.046 A 
ATOM     14  S   UNL     1      11.104  -1.660  -3.533  0.00  0.00    -0.092 S 
ENDBRANCH   7  10
BRANCH   1  15
ATOM     15  C   UNL     1       2.505  -2.503  -4.381  0.00  0.00    +0.079 C 
BRANCH  15  19
ATOM     16  C   UNL     1       0.606  -0.607  -1.056  0.00  0.00    +0.120 A 
ATOM     17  C   UNL     1       1.173   0.161  -2.062  0.00  0.00    +0.046 A 
ATOM     18  C   UNL     1       1.786  -0.455  -3.136  0.00  0.00    +0.007 A 
ATOM     19  C   UNL     1       1.835  -1.835  -3.209  0.00  0.00    -0.042 A 
ATOM     20  C   UNL     1       1.270  -2.602  -2.207  0.00  0.00    +0.007 A 
ATOM     21  C   UNL     1       0.661  -1.992  -1.128  0.00  0.00    +0.046 A 
BRANCH  16  23
ATOM     22  C   UNL     1      -0.017   1.425   0.010  0.00  0.00    +0.277 C 
ATOM     23  O   UNL     1       0.002  -0.004   0.002  0.00  0.00    -0.495 OA
ENDBRANCH  16  23
ENDBRANCH  15  19
ENDBRANCH   1  15
TORSDOF 4
