REMARK  Name = CHEMBL538337
REMARK  14 active torsions:
REMARK  status: ('A' for Active; 'I' for Inactive)
REMARK    1  A    between atoms: C_1  and  C_2
REMARK    2  A    between atoms: C_5  and  N_21
REMARK    3  A    between atoms: C_7  and  N_8
REMARK    4  A    between atoms: C_13  and  C_15
REMARK    5  A    between atoms: N_21  and  C_22
REMARK    6  A    between atoms: C_22  and  C_23
REMARK    7  A    between atoms: C_22  and  O_44
REMARK    8  A    between atoms: C_26  and  C_33
REMARK    9  A    between atoms: C_27  and  C_29
REMARK   10  A    between atoms: C_33  and  N_34
REMARK   11  A    between atoms: C_37  and  C_40
REMARK   12  A    between atoms: C_40  and  N_41
REMARK   13  A    between atoms: N_41  and  C_42
REMARK   14  A    between atoms: N_41  and  C_43
REMARK                            x       y       z     vdW  Elec       q    Type
REMARK                         _______ _______ _______ _____ _____    ______ ____
ROOT
ATOM      1  C   UNL     1       1.615  -5.441  -1.194  0.00  0.00    +0.232 C 
ENDROOT
BRANCH   1   2
ATOM      2  C   UNL     1       2.500  -6.561  -0.710  0.00  0.00    -0.001 A 
ATOM      3  C   UNL     1       2.289  -7.119   0.537  0.00  0.00    +0.008 A 
ATOM      4  C   UNL     1       3.101  -8.146   0.980  0.00  0.00    +0.006 A 
ATOM      5  C   UNL     1       4.123  -8.616   0.176  0.00  0.00    -0.022 A 
ATOM      6  C   UNL     1       4.332  -8.059  -1.071  0.00  0.00    +0.060 A 
ATOM      7  C   UNL     1       3.518  -7.034  -1.517  0.00  0.00    +0.020 A 
BRANCH   6   8
ATOM      8  C   UNL     1       5.446  -8.571  -1.948  0.00  0.00    +0.418 C 
ATOM      9  F   UNL     1       5.447  -7.869  -3.158  0.00  0.00    -0.166 F 
ATOM     10  F   UNL     1       6.672  -8.385  -1.300  0.00  0.00    -0.166 F 
ATOM     11  F   UNL     1       5.253  -9.933  -2.200  0.00  0.00    -0.166 F 
ENDBRANCH   6   8
BRANCH   5  12
ATOM     12  C   UNL     1       5.008  -9.735   0.659  0.00  0.00    +0.120 C 
BRANCH  12  13
ATOM     13  N   UNL     1       4.569 -11.002   0.058  0.00  0.00    -0.298 NA
ATOM     14  C   UNL     1       3.306 -11.477   0.679  0.00  0.00    +0.085 C 
ATOM     15  C   UNL     1       3.266 -12.989   0.371  0.00  0.00    +0.018 C 
ATOM     16  C   UNL     1       4.737 -13.391   0.145  0.00  0.00    -0.012 C 
ATOM     17  C   UNL     1       5.543 -12.089   0.335  0.00  0.00    +0.086 C 
BRANCH  16  18
ATOM     18  C   UNL     1       5.166 -14.439   1.174  0.00  0.00    -0.075 C 
BRANCH  18  19
ATOM     19  N   UNL     1       4.424 -15.686   0.942  0.00  0.00    +0.376 N 
ATOM     20  C   UNL     1       4.802 -16.245  -0.363  0.00  0.00    -0.097 C 
ATOM     21  C   UNL     1       4.746 -16.652   2.001  0.00  0.00    -0.097 C 
ATOM     22  H   UNL     1       3.433 -15.494   0.952  0.00  0.00    -0.083 HD
ENDBRANCH  18  19
ENDBRANCH  16  18
ENDBRANCH  12  13
ENDBRANCH   5  12
ENDBRANCH   1   2
BRANCH   1  23
ATOM     23  N   UNL     1       1.149  -4.657  -0.047  0.00  0.00    -0.316 N 
ATOM     24  H   UNL     1       0.962  -5.096   0.797  0.00  0.00    +0.149 HD
BRANCH  23  29
ATOM     25  C   UNL     1       0.448   0.952  -0.558  0.00  0.00    +0.045 C 
ATOM     26  C   UNL     1       0.634  -0.537  -0.421  0.00  0.00    -0.029 A 
ATOM     27  C   UNL     1       1.073  -1.280  -1.500  0.00  0.00    +0.007 A 
ATOM     28  C   UNL     1       1.245  -2.646  -1.378  0.00  0.00    +0.023 A 
ATOM     29  C   UNL     1       0.976  -3.276  -0.169  0.00  0.00    +0.031 A 
ATOM     30  C   UNL     1       0.535  -2.533   0.916  0.00  0.00    +0.046 A 
ATOM     31  C   UNL     1       0.369  -1.161   0.792  0.00  0.00    +0.038 A 
BRANCH  31  32
ATOM     32  N   UNL     1      -0.070  -0.407   1.885  0.00  0.00    -0.283 N 
ATOM     33  C   UNL     1      -0.916  -0.975   2.824  0.00  0.00    +0.220 A 
ATOM     34  N   UNL     1      -1.394  -2.193   2.609  0.00  0.00    -0.223 NA
ATOM     35  C   UNL     1      -2.205  -2.770   3.481  0.00  0.00    +0.116 A 
ATOM     36  C   UNL     1      -2.555  -2.088   4.633  0.00  0.00    +0.048 A 
ATOM     37  C   UNL     1      -2.036  -0.806   4.832  0.00  0.00    +0.079 A 
ATOM     38  N   UNL     1      -1.222  -0.291   3.914  0.00  0.00    -0.214 NA
ATOM     39  H   UNL     1       0.219   0.513   1.986  0.00  0.00    +0.155 HD
BRANCH  37  40
ATOM     40  C   UNL     1      -2.382  -0.035   6.051  0.00  0.00    +0.037 A 
ATOM     41  C   UNL     1      -3.227  -0.573   7.025  0.00  0.00    +0.124 A 
ATOM     42  N   UNL     1      -3.509   0.149   8.096  0.00  0.00    -0.243 NA
ATOM     43  C   UNL     1      -3.006   1.358   8.251  0.00  0.00    +0.221 A 
ATOM     44  N   UNL     1      -2.205   1.902   7.356  0.00  0.00    -0.243 NA
ATOM     45  C   UNL     1      -1.867   1.248   6.259  0.00  0.00    +0.124 A 
ENDBRANCH  37  40
ENDBRANCH  31  32
ENDBRANCH  23  29
ENDBRANCH   1  23
BRANCH   1  46
ATOM     46  O   UNL     1       0.490  -5.987  -1.885  0.00  0.00    -0.370 OA
ATOM     47  H   UNL     1      -0.059  -6.571  -1.344  0.00  0.00    +0.212 HD
ENDBRANCH   1  46
TORSDOF 11
