REMARK  Name = CHEMBL1171473
REMARK  11 active torsions:
REMARK  status: ('A' for Active; 'I' for Inactive)
REMARK    1  A    between atoms: C_1  and  C_2
REMARK    2  A    between atoms: C_5  and  C_19
REMARK    3  A    between atoms: C_7  and  C_8
REMARK    4  A    between atoms: C_9  and  C_10
REMARK    5  A    between atoms: N_21  and  C_22
REMARK    6  A    between atoms: C_25  and  C_32
REMARK    7  A    between atoms: C_26  and  C_28
REMARK    8  A    between atoms: C_32  and  N_33
REMARK    9  A    between atoms: C_36  and  N_39
REMARK   10  A    between atoms: N_39  and  C_40
REMARK   11  A    between atoms: N_39  and  C_41
REMARK                            x       y       z     vdW  Elec       q    Type
REMARK                         _______ _______ _______ _____ _____    ______ ____
ROOT
ATOM      1  C   UNL     1      -0.063  -4.295  -0.121  0.00  0.00    +0.248 C 
ATOM      2  O   UNL     1       0.549  -4.855   0.768  0.00  0.00    -0.270 OA
ATOM      3  N   UNL     1      -0.580  -5.012  -1.138  0.00  0.00    -0.281 N 
ATOM      4  H   UNL     1      -1.133  -4.578  -1.806  0.00  0.00    +0.155 HD
ENDROOT
BRANCH   1   9
ATOM      5  C   UNL     1      -0.775   1.426  -0.015  0.00  0.00    +0.045 C 
ATOM      6  C   UNL     1      -0.587  -0.069  -0.039  0.00  0.00    -0.035 A 
ATOM      7  C   UNL     1      -1.111  -0.813  -1.077  0.00  0.00    +0.005 A 
ATOM      8  C   UNL     1      -0.944  -2.183  -1.107  0.00  0.00    +0.013 A 
ATOM      9  C   UNL     1      -0.240  -2.828  -0.086  0.00  0.00    +0.038 A 
ATOM     10  C   UNL     1       0.293  -2.086   0.965  0.00  0.00    +0.030 A 
ATOM     11  C   UNL     1       0.125  -0.700   0.987  0.00  0.00    +0.029 A 
BRANCH  11  12
ATOM     12  C   UNL     1       0.675   0.073   2.060  0.00  0.00    -0.059 C 
ATOM     13  C   UNL     1       1.126   0.707   2.939  0.00  0.00    -0.041 C 
BRANCH  13  14
ATOM     14  C   UNL     1       1.676   1.480   4.012  0.00  0.00    +0.117 A 
ATOM     15  C   UNL     1       1.583   2.850   4.177  0.00  0.00    +0.148 A 
ATOM     16  N   UNL     1       2.223   3.179   5.293  0.00  0.00    -0.235 NA
ATOM     17  C   UNL     1       2.725   2.087   5.860  0.00  0.00    +0.138 A 
ATOM     18  N   UNL     1       2.396   1.004   5.088  0.00  0.00    -0.293 N 
ATOM     19  C   UNL     1       2.788  -0.251   5.450  0.00  0.00    +0.094 A 
ATOM     20  C   UNL     1       3.503  -0.449   6.579  0.00  0.00    +0.018 A 
ATOM     21  C   UNL     1       3.853   0.639   7.394  0.00  0.00    +0.005 A 
ATOM     22  C   UNL     1       3.475   1.898   7.037  0.00  0.00    +0.047 A 
ENDBRANCH  13  14
ENDBRANCH  11  12
ENDBRANCH   1   9
BRANCH   3  23
ATOM     23  C   UNL     1      -0.319  -6.383  -1.230  0.00  0.00    +0.034 A 
ATOM     24  C   UNL     1      -0.220  -7.152  -0.078  0.00  0.00    +0.023 A 
ATOM     25  C   UNL     1       0.038  -8.505  -0.172  0.00  0.00    +0.004 A 
ATOM     26  C   UNL     1       0.197  -9.095  -1.413  0.00  0.00    -0.052 A 
ATOM     27  C   UNL     1       0.099  -8.333  -2.562  0.00  0.00    +0.058 A 
ATOM     28  C   UNL     1      -0.165  -6.980  -2.475  0.00  0.00    +0.036 A 
BRANCH  27  29
ATOM     29  C   UNL     1       0.273  -8.980  -3.912  0.00  0.00    +0.418 C 
ATOM     30  F   UNL     1       0.011  -8.042  -4.916  0.00  0.00    -0.166 F 
ATOM     31  F   UNL     1       1.586  -9.446  -4.040  0.00  0.00    -0.166 F 
ATOM     32  F   UNL     1      -0.616 -10.053  -4.033  0.00  0.00    -0.166 F 
ENDBRANCH  27  29
BRANCH  26  33
ATOM     33  C   UNL     1       0.477 -10.573  -1.512  0.00  0.00    -0.042 C 
BRANCH  33  34
ATOM     34  N   UNL     1       1.017 -11.056  -0.234  0.00  0.00    +0.383 N 
ATOM     35  C   UNL     1       2.360 -10.479  -0.012  0.00  0.00    -0.077 C 
ATOM     36  C   UNL     1       3.164 -11.604   0.686  0.00  0.00    -0.002 C 
ATOM     37  C   UNL     1       2.623 -12.868  -0.034  0.00  0.00    +0.038 C 
ATOM     38  C   UNL     1       1.137 -12.525  -0.270  0.00  0.00    -0.059 C 
ATOM     39  H   UNL     1       0.404 -10.783   0.519  0.00  0.00    -0.081 HD
BRANCH  37  40
ATOM     40  N   UNL     1       2.757 -14.052   0.825  0.00  0.00    -0.307 NA
ATOM     41  C   UNL     1       2.334 -15.267   0.116  0.00  0.00    +0.104 C 
ATOM     42  C   UNL     1       4.131 -14.186   1.327  0.00  0.00    +0.104 C 
ENDBRANCH  37  40
ENDBRANCH  33  34
ENDBRANCH  26  33
ENDBRANCH   3  23
TORSDOF 8
