REMARK  Name = CHEMBL288441
REMARK  13 active torsions:
REMARK  status: ('A' for Active; 'I' for Inactive)
REMARK    1  A    between atoms: C_1  and  N_2
REMARK    2  A    between atoms: N_5  and  C_8
REMARK    3  A    between atoms: C_8  and  C_9
REMARK    4  A    between atoms: C_9  and  C_10
REMARK    5  A    between atoms: C_10  and  O_11
REMARK    6  A    between atoms: O_11  and  C_12
REMARK    7  A    between atoms: C_17  and  O_18
REMARK    8  A    between atoms: O_18  and  C_19
REMARK    9  A    between atoms: C_20  and  N_26
REMARK   10  A    between atoms: C_21  and  C_24
REMARK   11  A    between atoms: N_26  and  C_27
REMARK   12  A    between atoms: C_29  and  O_35
REMARK   13  A    between atoms: O_35  and  C_36
REMARK                            x       y       z     vdW  Elec       q    Type
REMARK                         _______ _______ _______ _____ _____    ______ ____
ROOT
ATOM      1  C   UNL     1       3.332 -10.814   0.841  0.00  0.00    +0.164 A 
ATOM      2  C   UNL     1       1.964 -10.694   0.738  0.00  0.00    +0.077 A 
ATOM      3  C   UNL     1       1.145 -11.150   1.781  0.00  0.00    +0.077 A 
ATOM      4  C   UNL     1       1.743 -11.729   2.927  0.00  0.00    +0.026 A 
ATOM      5  C   UNL     1       3.139 -11.839   3.007  0.00  0.00    +0.061 A 
ATOM      6  C   UNL     1       3.916 -11.393   1.976  0.00  0.00    +0.162 A 
ATOM      7  C   UNL     1       0.914 -12.188   3.977  0.00  0.00    +0.060 A 
ATOM      8  C   UNL     1      -0.473 -12.044   3.826  0.00  0.00    +0.091 A 
ATOM      9  C   UNL     1      -0.980 -11.458   2.655  0.00  0.00    +0.132 A 
ATOM     10  N   UNL     1      -0.190 -11.043   1.698  0.00  0.00    -0.253 NA
ENDROOT
BRANCH   6  11
ATOM     11  O   UNL     1       5.269 -11.506   2.055  0.00  0.00    -0.491 OA
ATOM     12  C   UNL     1       5.803 -12.105   3.237  0.00  0.00    +0.277 C 
ENDBRANCH   6  11
BRANCH   8  13
ATOM     13  C   UNL     1      -1.363 -12.490   4.855  0.00  0.00    +0.103 C 
ATOM     14  N   UNL     1      -2.069 -12.845   5.672  0.00  0.00    -0.191 NA
ENDBRANCH   8  13
BRANCH   7  15
ATOM     15  N   UNL     1       1.453 -12.758   5.113  0.00  0.00    -0.312 N 
ATOM     16  H   UNL     1       1.583 -12.222   5.910  0.00  0.00    +0.152 HD
BRANCH  15  17
ATOM     17  C   UNL     1       1.810 -14.111   5.114  0.00  0.00    +0.053 A 
ATOM     18  C   UNL     1       1.735 -14.850   3.941  0.00  0.00    +0.071 A 
ATOM     19  C   UNL     1       2.089 -16.189   3.946  0.00  0.00    +0.140 A 
ATOM     20  C   UNL     1       2.518 -16.790   5.122  0.00  0.00    +0.084 A 
ATOM     21  C   UNL     1       2.592 -16.053   6.289  0.00  0.00    +0.045 A 
ATOM     22  C   UNL     1       2.245 -14.714   6.287  0.00  0.00    +0.064 A 
ATOM     23 CL   UNL     1       2.346 -13.790   7.753  0.00  0.00    -0.082 Cl
ATOM     24 CL   UNL     1       2.961 -18.468   5.127  0.00  0.00    -0.080 Cl
BRANCH  19  25
ATOM     25  O   UNL     1       2.016 -16.916   2.799  0.00  0.00    -0.494 OA
ATOM     26  C   UNL     1       1.684 -16.208   1.603  0.00  0.00    +0.277 C 
ENDBRANCH  19  25
ENDBRANCH  15  17
ENDBRANCH   7  15
BRANCH   1  27
ATOM     27  O   UNL     1       4.124 -10.372  -0.170  0.00  0.00    -0.488 OA
BRANCH  27  28
ATOM     28  C   UNL     1       3.469  -9.791  -1.300  0.00  0.00    +0.227 C 
BRANCH  28  29
ATOM     29  C   UNL     1       4.516  -9.356  -2.328  0.00  0.00    +0.022 C 
BRANCH  29  30
ATOM     30  C   UNL     1       3.815  -8.734  -3.537  0.00  0.00    -0.075 C 
BRANCH  30  35
ATOM     31  C   UNL     1       6.908  -7.946  -8.180  0.00  0.00    +0.104 C 
ATOM     32  N   UNL     1       5.929  -8.334  -7.156  0.00  0.00    -0.309 NA
ATOM     33  C   UNL     1       5.205  -7.160  -6.648  0.00  0.00    +0.065 C 
ATOM     34  C   UNL     1       4.156  -7.613  -5.630  0.00  0.00    -0.063 C 
ATOM     35  N   UNL     1       4.819  -8.316  -4.524  0.00  0.00    +0.381 N 
ATOM     36  C   UNL     1       5.518  -9.499  -5.043  0.00  0.00    -0.063 C 
ATOM     37  C   UNL     1       6.578  -9.062  -6.056  0.00  0.00    +0.065 C 
ATOM     38  H   UNL     1       5.485  -7.698  -4.084  0.00  0.00    -0.082 HD
ENDBRANCH  30  35
ENDBRANCH  29  30
ENDBRANCH  28  29
ENDBRANCH  27  28
ENDBRANCH   1  27
TORSDOF 10
