REMARK  Name = CHEMBL195029
REMARK  11 active torsions:
REMARK  status: ('A' for Active; 'I' for Inactive)
REMARK    1  A    between atoms: C_1  and  O_2
REMARK    2  A    between atoms: O_2  and  C_3
REMARK    3  A    between atoms: C_12  and  O_13
REMARK    4  A    between atoms: O_13  and  C_14
REMARK    5  A    between atoms: C_14  and  C_15
REMARK    6  A    between atoms: C_15  and  N_16
REMARK    7  A    between atoms: C_24  and  C_37
REMARK    8  A    between atoms: C_25  and  N_26
REMARK    9  A    between atoms: N_26  and  C_27
REMARK   10  A    between atoms: C_29  and  O_35
REMARK   11  A    between atoms: O_35  and  C_36
REMARK                            x       y       z     vdW  Elec       q    Type
REMARK                         _______ _______ _______ _____ _____    ______ ____
ROOT
ATOM      1  C   UNL     1       1.406  -0.133   1.253  0.00  0.00    +0.162 A 
ATOM      2  C   UNL     1       1.791   0.475   2.408  0.00  0.00    +0.058 A 
ATOM      3  C   UNL     1       2.291  -0.305   3.472  0.00  0.00    -0.013 A 
ATOM      4  C   UNL     1       2.694   0.286   4.670  0.00  0.00    +0.020 A 
ATOM      5  C   UNL     1       3.182  -0.512   5.699  0.00  0.00    +0.023 A 
ATOM      6  C   UNL     1       3.276  -1.965   5.534  0.00  0.00    +0.073 A 
ATOM      7  C   UNL     1       2.874  -2.555   4.339  0.00  0.00    +0.037 A 
ATOM      8  C   UNL     1       2.383  -1.758   3.303  0.00  0.00    -0.012 A 
ATOM      9  C   UNL     1       1.969  -2.329   2.083  0.00  0.00    +0.058 A 
ATOM     10  C   UNL     1       1.489  -1.525   1.093  0.00  0.00    +0.163 A 
ATOM     11  N   UNL     1       3.751  -2.718   6.543  0.00  0.00    -0.254 NA
ATOM     12  C   UNL     1       4.134  -2.192   7.676  0.00  0.00    +0.132 A 
ATOM     13  C   UNL     1       4.079  -0.810   7.920  0.00  0.00    +0.091 A 
ATOM     14  C   UNL     1       3.600   0.058   6.931  0.00  0.00    +0.060 A 
ENDROOT
BRANCH   1  16
ATOM     15  C   UNL     1       0.861   2.037   0.447  0.00  0.00    +0.277 C 
ATOM     16  O   UNL     1       0.925   0.625   0.232  0.00  0.00    -0.491 OA
ENDBRANCH   1  16
BRANCH  14  17
ATOM     17  N   UNL     1       3.535   1.418   7.145  0.00  0.00    -0.312 N 
ATOM     18  H   UNL     1       2.887   1.955   6.663  0.00  0.00    +0.152 HD
BRANCH  17  19
ATOM     19  C   UNL     1       4.404   2.024   8.058  0.00  0.00    +0.053 A 
ATOM     20  C   UNL     1       3.906   2.576   9.230  0.00  0.00    +0.071 A 
ATOM     21  C   UNL     1       4.769   3.175  10.133  0.00  0.00    +0.140 A 
ATOM     22  C   UNL     1       6.131   3.223   9.863  0.00  0.00    +0.084 A 
ATOM     23  C   UNL     1       6.626   2.673   8.695  0.00  0.00    +0.045 A 
ATOM     24  C   UNL     1       5.768   2.069   7.795  0.00  0.00    +0.064 A 
ATOM     25 CL   UNL     1       6.394   1.374   6.332  0.00  0.00    -0.082 Cl
ATOM     26 CL   UNL     1       7.213   3.974  10.995  0.00  0.00    -0.080 Cl
BRANCH  21  27
ATOM     27  O   UNL     1       4.284   3.717  11.281  0.00  0.00    -0.494 OA
ATOM     28  C   UNL     1       2.892   3.536  11.546  0.00  0.00    +0.277 C 
ENDBRANCH  21  27
ENDBRANCH  17  19
ENDBRANCH  14  17
BRANCH  13  29
ATOM     29  C   UNL     1       4.514  -0.288   9.181  0.00  0.00    +0.103 C 
ATOM     30  N   UNL     1       4.859   0.126  10.181  0.00  0.00    -0.191 NA
ENDBRANCH  13  29
BRANCH  10  31
ATOM     31  O   UNL     1       1.087  -2.084  -0.079  0.00  0.00    -0.487 OA
BRANCH  31  32
ATOM     32  C   UNL     1       1.192  -3.505  -0.190  0.00  0.00    +0.244 C 
BRANCH  32  33
ATOM     33  C   UNL     1       0.697  -3.946  -1.568  0.00  0.00    +0.125 C 
BRANCH  33  34
ATOM     34  N   UNL     1       1.593  -3.415  -2.604  0.00  0.00    -0.295 NA
ATOM     35  C   UNL     1       0.933  -3.408  -3.918  0.00  0.00    +0.112 C 
ATOM     36  C   UNL     1       1.878  -2.793  -4.954  0.00  0.00    +0.175 C 
ATOM     37  O   UNL     1       3.105  -3.527  -4.968  0.00  0.00    -0.377 OA
ATOM     38  C   UNL     1       3.774  -3.554  -3.705  0.00  0.00    +0.175 C 
ATOM     39  C   UNL     1       2.849  -4.176  -2.656  0.00  0.00    +0.112 C 
ENDBRANCH  33  34
ENDBRANCH  32  33
ENDBRANCH  31  32
ENDBRANCH  10  31
TORSDOF 9
