REMARK  Name = CHEMBL1171657
REMARK  9 active torsions:
REMARK  status: ('A' for Active; 'I' for Inactive)
REMARK    1  A    between atoms: C_1  and  C_2
REMARK    2  A    between atoms: C_5  and  C_20
REMARK    3  A    between atoms: C_7  and  C_8
REMARK    4  A    between atoms: C_9  and  C_10
REMARK    5  A    between atoms: N_22  and  C_23
REMARK    6  A    between atoms: C_26  and  C_33
REMARK    7  A    between atoms: C_27  and  C_29
REMARK    8  A    between atoms: C_33  and  N_34
REMARK    9  A    between atoms: N_37  and  C_40
REMARK                            x       y       z     vdW  Elec       q    Type
REMARK                         _______ _______ _______ _____ _____    ______ ____
ROOT
ATOM      1  C   UNL     1       0.367  -4.156  -0.483  0.00  0.00    +0.248 C 
ATOM      2  O   UNL     1       0.771  -4.690   0.531  0.00  0.00    -0.270 OA
ATOM      3  N   UNL     1      -0.025  -4.909  -1.530  0.00  0.00    -0.281 N 
ATOM      4  H   UNL     1      -0.413  -4.487  -2.313  0.00  0.00    +0.155 HD
ENDROOT
BRANCH   1   9
ATOM      5  C   UNL     1       0.114   1.592  -0.848  0.00  0.00    +0.045 C 
ATOM      6  C   UNL     1       0.182   0.090  -0.749  0.00  0.00    -0.035 A 
ATOM      7  C   UNL     1      -0.217  -0.690  -1.817  0.00  0.00    +0.005 A 
ATOM      8  C   UNL     1      -0.159  -2.067  -1.734  0.00  0.00    +0.013 A 
ATOM      9  C   UNL     1       0.306  -2.682  -0.569  0.00  0.00    +0.038 A 
ATOM     10  C   UNL     1       0.711  -1.903   0.512  0.00  0.00    +0.030 A 
ATOM     11  C   UNL     1       0.654  -0.512   0.421  0.00  0.00    +0.029 A 
BRANCH  11  12
ATOM     12  C   UNL     1       1.073   0.298   1.526  0.00  0.00    -0.061 C 
ATOM     13  C   UNL     1       1.417   0.962   2.431  0.00  0.00    -0.059 C 
BRANCH  13  14
ATOM     14  C   UNL     1       1.837   1.771   3.535  0.00  0.00    +0.045 A 
ATOM     15  C   UNL     1       1.773   3.165   3.455  0.00  0.00    +0.049 A 
ATOM     16  C   UNL     1       2.194   3.905   4.560  0.00  0.00    +0.109 A 
ATOM     17  C   UNL     1       2.663   3.228   5.701  0.00  0.00    +0.158 A 
ATOM     18  N   UNL     1       3.000   4.210   6.608  0.00  0.00    -0.329 N 
ATOM     19  H   UNL     1       3.357   4.070   7.499  0.00  0.00    +0.168 HD
ATOM     20  C   UNL     1       2.740   5.412   6.024  0.00  0.00    +0.198 A 
ATOM     21  N   UNL     1       2.268   5.235   4.825  0.00  0.00    -0.234 NA
ATOM     22  N   UNL     1       2.706   1.905   5.731  0.00  0.00    -0.235 NA
ATOM     23  C   UNL     1       2.311   1.175   4.710  0.00  0.00    +0.130 A 
ENDBRANCH  13  14
ENDBRANCH  11  12
ENDBRANCH   1   9
BRANCH   3  24
ATOM     24  C   UNL     1       0.126  -6.298  -1.488  0.00  0.00    +0.034 A 
ATOM     25  C   UNL     1      -0.046  -6.981  -0.291  0.00  0.00    +0.023 A 
ATOM     26  C   UNL     1       0.104  -8.354  -0.253  0.00  0.00    +0.007 A 
ATOM     27  C   UNL     1       0.425  -9.048  -1.405  0.00  0.00    -0.022 A 
ATOM     28  C   UNL     1       0.597  -8.371  -2.598  0.00  0.00    +0.061 A 
ATOM     29  C   UNL     1       0.442  -7.000  -2.645  0.00  0.00    +0.036 A 
BRANCH  28  30
ATOM     30  C   UNL     1       0.947  -9.132  -3.851  0.00  0.00    +0.418 C 
ATOM     31  F   UNL     1       1.019  -8.245  -4.930  0.00  0.00    -0.166 F 
ATOM     32  F   UNL     1       2.184  -9.764  -3.683  0.00  0.00    -0.166 F 
ATOM     33  F   UNL     1      -0.037 -10.094  -4.103  0.00  0.00    -0.166 F 
ENDBRANCH  28  30
BRANCH  27  34
ATOM     34  C   UNL     1       0.588 -10.545  -1.359  0.00  0.00    +0.120 C 
BRANCH  34  35
ATOM     35  N   UNL     1      -0.625 -11.187  -1.883  0.00  0.00    -0.302 NA
ATOM     36  C   UNL     1      -1.791 -10.872  -1.044  0.00  0.00    +0.066 C 
ATOM     37  C   UNL     1      -3.042 -11.508  -1.655  0.00  0.00    -0.064 C 
ATOM     38  N   UNL     1      -2.858 -12.963  -1.743  0.00  0.00    +0.379 N 
ATOM     39  C   UNL     1      -1.706 -13.261  -2.604  0.00  0.00    -0.064 C 
ATOM     40  C   UNL     1      -0.444 -12.640  -2.001  0.00  0.00    +0.066 C 
ATOM     41  C   UNL     1      -4.066 -13.574  -2.313  0.00  0.00    -0.096 C 
ATOM     42  H   UNL     1      -2.695 -13.338  -0.821  0.00  0.00    -0.082 HD
ENDBRANCH  34  35
ENDBRANCH  27  34
ENDBRANCH   3  24
TORSDOF 7
