REMARK  Name = CHEMBL1213975
REMARK  9 active torsions:
REMARK  status: ('A' for Active; 'I' for Inactive)
REMARK    1  A    between atoms: C_1  and  N_2
REMARK    2  A    between atoms: C_3  and  C_5
REMARK    3  A    between atoms: C_7  and  O_11
REMARK    4  A    between atoms: O_11  and  C_12
REMARK    5  A    between atoms: C_15  and  N_18
REMARK    6  A    between atoms: N_21  and  C_22
REMARK    7  A    between atoms: C_25  and  C_28
REMARK    8  A    between atoms: C_28  and  N_29
REMARK    9  A    between atoms: N_32  and  C_35
REMARK                            x       y       z     vdW  Elec       q    Type
REMARK                         _______ _______ _______ _____ _____    ______ ____
ROOT
ATOM      1  N   UNL     1       1.453 -10.421   2.372  0.00  0.00    -0.269 N 
ATOM      2  C   UNL     1       1.856 -11.245   3.359  0.00  0.00    +0.308 C 
ATOM      3  O   UNL     1       2.382 -10.788   4.356  0.00  0.00    -0.252 OA
ATOM      4  N   UNL     1       1.677 -12.576   3.242  0.00  0.00    -0.269 N 
ATOM      5  H   UNL     1       1.094 -10.790   1.549  0.00  0.00    +0.156 HD
ATOM      6  H   UNL     1       1.331 -12.948   2.416  0.00  0.00    +0.156 HD
ENDROOT
BRANCH   1  10
ATOM      7  C   UNL     1       1.749  -6.290   2.851  0.00  0.00    +0.129 A 
ATOM      8  C   UNL     1       2.715  -7.122   3.397  0.00  0.00    +0.048 A 
ATOM      9  C   UNL     1       2.618  -8.490   3.239  0.00  0.00    +0.027 A 
ATOM     10  C   UNL     1       1.552  -9.033   2.533  0.00  0.00    +0.035 A 
ATOM     11  C   UNL     1       0.586  -8.200   1.986  0.00  0.00    +0.027 A 
ATOM     12  C   UNL     1       0.682  -6.832   2.149  0.00  0.00    +0.048 A 
BRANCH   7  13
ATOM     13  O   UNL     1       1.846  -4.942   3.007  0.00  0.00    -0.456 OA
BRANCH  13  16
ATOM     14  C   UNL     1       4.558  -4.248   0.668  0.00  0.00    +0.129 A 
ATOM     15  C   UNL     1       3.638  -4.968   1.424  0.00  0.00    +0.079 A 
ATOM     16  C   UNL     1       2.758  -4.277   2.254  0.00  0.00    +0.132 A 
ATOM     17  C   UNL     1       2.838  -2.888   2.291  0.00  0.00    +0.066 A 
ATOM     18  C   UNL     1       3.779  -2.243   1.510  0.00  0.00    +0.115 A 
ATOM     19  N   UNL     1       4.601  -2.923   0.740  0.00  0.00    -0.250 NA
BRANCH  14  22
ATOM     20  C   UNL     1       7.331  -4.987  -1.829  0.00  0.00    +0.128 C 
ATOM     21  N   UNL     1       6.398  -4.276  -0.951  0.00  0.00    -0.313 N 
ATOM     22  C   UNL     1       5.501  -4.967  -0.220  0.00  0.00    +0.262 C 
ATOM     23  O   UNL     1       5.466  -6.180  -0.289  0.00  0.00    -0.269 OA
ATOM     24  H   UNL     1       6.426  -3.308  -0.895  0.00  0.00    +0.149 HD
ENDBRANCH  14  22
ENDBRANCH  13  16
ENDBRANCH   7  13
ENDBRANCH   1  10
BRANCH   4  25
ATOM     25  C   UNL     1       1.990 -13.421   4.313  0.00  0.00    +0.035 A 
ATOM     26  C   UNL     1       1.782 -12.996   5.619  0.00  0.00    +0.023 A 
ATOM     27  C   UNL     1       2.092 -13.832   6.673  0.00  0.00    +0.007 A 
ATOM     28  C   UNL     1       2.609 -15.091   6.430  0.00  0.00    -0.033 A 
ATOM     29  C   UNL     1       2.817 -15.518   5.131  0.00  0.00    +0.007 A 
ATOM     30  C   UNL     1       2.504 -14.688   4.072  0.00  0.00    +0.023 A 
BRANCH  28  31
ATOM     31  C   UNL     1       2.946 -16.001   7.583  0.00  0.00    +0.119 C 
BRANCH  31  32
ATOM     32  N   UNL     1       1.773 -16.817   7.923  0.00  0.00    -0.302 NA
ATOM     33  C   UNL     1       0.685 -15.981   8.451  0.00  0.00    +0.066 C 
ATOM     34  C   UNL     1      -0.536 -16.858   8.736  0.00  0.00    -0.064 C 
ATOM     35  N   UNL     1      -0.176 -17.896   9.710  0.00  0.00    +0.379 N 
ATOM     36  C   UNL     1       0.894 -18.738   9.159  0.00  0.00    -0.064 C 
ATOM     37  C   UNL     1       2.127 -17.877   8.878  0.00  0.00    +0.066 C 
ATOM     38  C   UNL     1      -1.354 -18.727   9.997  0.00  0.00    -0.096 C 
ATOM     39  H   UNL     1       0.143 -17.461  10.563  0.00  0.00    -0.082 HD
ENDBRANCH  31  32
ENDBRANCH  28  31
ENDBRANCH   4  25
TORSDOF 7
