REMARK  Name = CHEMBL1173200
REMARK  10 active torsions:
REMARK  status: ('A' for Active; 'I' for Inactive)
REMARK    1  A    between atoms: C_1  and  C_2
REMARK    2  A    between atoms: C_5  and  C_19
REMARK    3  A    between atoms: C_7  and  C_8
REMARK    4  A    between atoms: C_8  and  C_9
REMARK    5  A    between atoms: C_9  and  C_10
REMARK    6  A    between atoms: N_21  and  C_22
REMARK    7  A    between atoms: C_25  and  C_32
REMARK    8  A    between atoms: C_26  and  C_28
REMARK    9  A    between atoms: C_32  and  N_33
REMARK   10  A    between atoms: N_36  and  C_39
REMARK                            x       y       z     vdW  Elec       q    Type
REMARK                         _______ _______ _______ _____ _____    ______ ____
ROOT
ATOM      1  C   UNL     1      -0.034  -4.155  -0.407  0.00  0.00    +0.248 C 
ATOM      2  O   UNL     1      -0.194  -4.687   0.674  0.00  0.00    -0.270 OA
ATOM      3  N   UNL     1       0.146  -4.909  -1.510  0.00  0.00    -0.281 N 
ATOM      4  H   UNL     1       0.204  -4.487  -2.381  0.00  0.00    +0.155 HD
ENDROOT
BRANCH   1   9
ATOM      5  C   UNL     1      -0.046   1.585  -0.817  0.00  0.00    +0.044 C 
ATOM      6  C   UNL     1      -0.043   0.082  -0.710  0.00  0.00    -0.047 A 
ATOM      7  C   UNL     1       0.143  -0.689  -1.844  0.00  0.00    +0.004 A 
ATOM      8  C   UNL     1       0.147  -2.066  -1.752  0.00  0.00    +0.013 A 
ATOM      9  C   UNL     1      -0.037  -2.680  -0.512  0.00  0.00    +0.037 A 
ATOM     10  C   UNL     1      -0.223  -1.897   0.627  0.00  0.00    +0.017 A 
ATOM     11  C   UNL     1      -0.220  -0.521   0.523  0.00  0.00    -0.043 A 
BRANCH  11  12
ATOM     12  C   UNL     1      -0.414   0.327   1.753  0.00  0.00    +0.041 C 
BRANCH  12  13
ATOM     13  C   UNL     1      -1.892   0.700   1.887  0.00  0.00    +0.062 C 
BRANCH  13  14
ATOM     14  C   UNL     1      -2.087   1.548   3.118  0.00  0.00    +0.063 A 
ATOM     15  C   UNL     1      -1.931   2.890   3.201  0.00  0.00    +0.136 A 
ATOM     16  N   UNL     1      -2.192   3.272   4.452  0.00  0.00    -0.234 NA
ATOM     17  C   UNL     1      -2.512   2.207   5.172  0.00  0.00    +0.154 A 
ATOM     18  N   UNL     1      -2.459   1.107   4.352  0.00  0.00    -0.217 N 
ATOM     19  N   UNL     1      -2.760  -0.159   4.862  0.00  0.00    -0.173 NA
ATOM     20  C   UNL     1      -3.097  -0.310   6.115  0.00  0.00    +0.133 A 
ATOM     21  C   UNL     1      -3.166   0.789   6.980  0.00  0.00    +0.025 A 
ATOM     22  C   UNL     1      -2.870   2.038   6.523  0.00  0.00    +0.050 A 
ENDBRANCH  13  14
ENDBRANCH  12  13
ENDBRANCH  11  12
ENDBRANCH   1   9
BRANCH   3  23
ATOM     23  C   UNL     1       0.249  -6.299  -1.397  0.00  0.00    +0.034 A 
ATOM     24  C   UNL     1      -0.502  -6.977  -0.446  0.00  0.00    +0.023 A 
ATOM     25  C   UNL     1      -0.398  -8.350  -0.337  0.00  0.00    +0.007 A 
ATOM     26  C   UNL     1       0.453  -9.049  -1.174  0.00  0.00    -0.022 A 
ATOM     27  C   UNL     1       1.202  -8.377  -2.122  0.00  0.00    +0.061 A 
ATOM     28  C   UNL     1       1.097  -7.004  -2.240  0.00  0.00    +0.036 A 
BRANCH  27  29
ATOM     29  C   UNL     1       2.128  -9.142  -3.031  0.00  0.00    +0.418 C 
ATOM     30  F   UNL     1       2.735  -8.259  -3.930  0.00  0.00    -0.166 F 
ATOM     31  F   UNL     1       3.111  -9.779  -2.267  0.00  0.00    -0.166 F 
ATOM     32  F   UNL     1       1.397 -10.101  -3.742  0.00  0.00    -0.166 F 
ENDBRANCH  27  29
BRANCH  26  33
ATOM     33  C   UNL     1       0.564 -10.547  -1.052  0.00  0.00    +0.120 C 
BRANCH  33  34
ATOM     34  N   UNL     1      -0.229 -11.185  -2.112  0.00  0.00    -0.302 NA
ATOM     35  C   UNL     1      -1.656 -10.863  -1.969  0.00  0.00    +0.066 C 
ATOM     36  C   UNL     1      -2.437 -11.495  -3.123  0.00  0.00    -0.064 C 
ATOM     37  N   UNL     1      -2.241 -12.951  -3.108  0.00  0.00    +0.379 N 
ATOM     38  C   UNL     1      -0.814 -13.257  -3.277  0.00  0.00    -0.064 C 
ATOM     39  C   UNL     1      -0.020 -12.639  -2.124  0.00  0.00    +0.066 C 
ATOM     40  C   UNL     1      -3.005 -13.559  -4.205  0.00  0.00    -0.096 C 
ATOM     41  H   UNL     1      -2.563 -13.324  -2.227  0.00  0.00    -0.082 HD
ENDBRANCH  33  34
ENDBRANCH  26  33
ENDBRANCH   3  23
TORSDOF 8
