REMARK  Name = CHEMBL1173201
REMARK  9 active torsions:
REMARK  status: ('A' for Active; 'I' for Inactive)
REMARK    1  A    between atoms: C_1  and  C_2
REMARK    2  A    between atoms: C_5  and  C_19
REMARK    3  A    between atoms: C_7  and  C_8
REMARK    4  A    between atoms: C_9  and  C_10
REMARK    5  A    between atoms: N_21  and  C_22
REMARK    6  A    between atoms: C_25  and  C_32
REMARK    7  A    between atoms: C_26  and  C_28
REMARK    8  A    between atoms: C_32  and  N_33
REMARK    9  A    between atoms: N_36  and  C_39
REMARK                            x       y       z     vdW  Elec       q    Type
REMARK                         _______ _______ _______ _____ _____    ______ ____
ROOT
ATOM      1  C   UNL     1       0.367  -4.157  -0.484  0.00  0.00    +0.248 C 
ATOM      2  O   UNL     1       0.771  -4.691   0.530  0.00  0.00    -0.270 OA
ATOM      3  N   UNL     1      -0.025  -4.909  -1.532  0.00  0.00    -0.281 N 
ATOM      4  H   UNL     1      -0.412  -4.486  -2.314  0.00  0.00    +0.155 HD
ENDROOT
BRANCH   1   9
ATOM      5  C   UNL     1       0.113   1.592  -0.848  0.00  0.00    +0.044 C 
ATOM      6  C   UNL     1       0.181   0.090  -0.749  0.00  0.00    -0.043 A 
ATOM      7  C   UNL     1      -0.217  -0.689  -1.816  0.00  0.00    +0.004 A 
ATOM      8  C   UNL     1      -0.158  -2.067  -1.734  0.00  0.00    +0.013 A 
ATOM      9  C   UNL     1       0.306  -2.682  -0.569  0.00  0.00    +0.038 A 
ATOM     10  C   UNL     1       0.710  -1.904   0.513  0.00  0.00    +0.021 A 
ATOM     11  C   UNL     1       0.654  -0.512   0.422  0.00  0.00    -0.021 A 
BRANCH  11  12
ATOM     12  C   UNL     1       1.085   0.320   1.558  0.00  0.00    +0.010 C 
ATOM     13  C   UNL     1       1.540  -0.262   2.685  0.00  0.00    +0.030 C 
BRANCH  13  14
ATOM     14  C   UNL     1       1.968   0.566   3.814  0.00  0.00    +0.086 A 
ATOM     15  C   UNL     1       2.462   0.118   5.029  0.00  0.00    +0.141 A 
ATOM     16  N   UNL     1       2.735   1.176   5.781  0.00  0.00    -0.234 NA
ATOM     17  C   UNL     1       2.442   2.287   5.113  0.00  0.00    +0.155 A 
ATOM     18  N   UNL     1       1.965   1.938   3.875  0.00  0.00    -0.213 N 
ATOM     19  N   UNL     1       1.588   2.930   2.965  0.00  0.00    -0.173 NA
ATOM     20  C   UNL     1       1.687   4.195   3.279  0.00  0.00    +0.133 A 
ATOM     21  C   UNL     1       2.172   4.588   4.532  0.00  0.00    +0.025 A 
ATOM     22  C   UNL     1       2.542   3.649   5.448  0.00  0.00    +0.050 A 
ENDBRANCH  13  14
ENDBRANCH  11  12
ENDBRANCH   1   9
BRANCH   3  23
ATOM     23  C   UNL     1       0.126  -6.299  -1.490  0.00  0.00    +0.034 A 
ATOM     24  C   UNL     1      -0.046  -6.982  -0.293  0.00  0.00    +0.023 A 
ATOM     25  C   UNL     1       0.104  -8.354  -0.255  0.00  0.00    +0.007 A 
ATOM     26  C   UNL     1       0.425  -9.048  -1.408  0.00  0.00    -0.022 A 
ATOM     27  C   UNL     1       0.597  -8.371  -2.601  0.00  0.00    +0.061 A 
ATOM     28  C   UNL     1       0.443  -6.999  -2.647  0.00  0.00    +0.036 A 
BRANCH  27  29
ATOM     29  C   UNL     1       0.947  -9.131  -3.854  0.00  0.00    +0.418 C 
ATOM     30  F   UNL     1       1.020  -8.243  -4.933  0.00  0.00    -0.166 F 
ATOM     31  F   UNL     1       2.184  -9.763  -3.686  0.00  0.00    -0.166 F 
ATOM     32  F   UNL     1      -0.037 -10.092  -4.107  0.00  0.00    -0.166 F 
ENDBRANCH  27  29
BRANCH  26  33
ATOM     33  C   UNL     1       0.588 -10.546  -1.363  0.00  0.00    +0.120 C 
BRANCH  33  34
ATOM     34  N   UNL     1      -0.626 -11.186  -1.887  0.00  0.00    -0.302 NA
ATOM     35  C   UNL     1      -1.791 -10.872  -1.048  0.00  0.00    +0.066 C 
ATOM     36  C   UNL     1      -3.042 -11.507  -1.659  0.00  0.00    -0.064 C 
ATOM     37  N   UNL     1      -2.859 -12.961  -1.749  0.00  0.00    +0.379 N 
ATOM     38  C   UNL     1      -1.707 -13.260  -2.609  0.00  0.00    -0.064 C 
ATOM     39  C   UNL     1      -0.445 -12.640  -2.006  0.00  0.00    +0.066 C 
ATOM     40  C   UNL     1      -4.068 -13.572  -2.319  0.00  0.00    -0.096 C 
ATOM     41  H   UNL     1      -2.696 -13.337  -0.827  0.00  0.00    -0.082 HD
ENDBRANCH  33  34
ENDBRANCH  26  33
ENDBRANCH   3  23
TORSDOF 7
