REMARK  Name = CHEMBL238304
REMARK  8 active torsions:
REMARK  status: ('A' for Active; 'I' for Inactive)
REMARK    1  A    between atoms: C_1  and  S_2
REMARK    2  A    between atoms: S_2  and  C_3
REMARK    3  A    between atoms: N_9  and  C_12
REMARK    4  A    between atoms: C_12  and  C_13
REMARK    5  A    between atoms: C_13  and  C_14
REMARK    6  A    between atoms: N_22  and  C_23
REMARK    7  A    between atoms: C_23  and  C_24
REMARK    8  A    between atoms: C_24  and  C_25
REMARK                            x       y       z     vdW  Elec       q    Type
REMARK                         _______ _______ _______ _____ _____    ______ ____
ROOT
ATOM      1  C   UNL     1       0.877  -0.427   1.472  0.00  0.00    +0.192 A 
ATOM      2  N   UNL     1       1.317   0.550   2.257  0.00  0.00    -0.206 NA
ATOM      3  C   UNL     1       1.981   0.285   3.376  0.00  0.00    +0.134 A 
ATOM      4  C   UNL     1       2.212  -1.063   3.717  0.00  0.00    +0.078 A 
ATOM      5  C   UNL     1       2.857  -1.717   4.789  0.00  0.00    +0.148 A 
ATOM      6  N   UNL     1       2.774  -3.003   4.598  0.00  0.00    -0.177 NA
ATOM      7  N   UNL     1       2.079  -3.260   3.409  0.00  0.00    -0.245 N 
ATOM      8  C   UNL     1       1.727  -2.065   2.855  0.00  0.00    +0.164 A 
ATOM      9  N   UNL     1       1.066  -1.705   1.756  0.00  0.00    -0.202 NA
ATOM     10  N   UNL     1       2.436   1.306   4.186  0.00  0.00    -0.328 N 
ATOM     11  H   UNL     1       2.921   1.100   5.001  0.00  0.00    +0.147 HD
ENDROOT
BRANCH   1  13
ATOM     12  C   UNL     1      -0.022   1.810   0.012  0.00  0.00    +0.093 C 
ATOM     13  S   UNL     1       0.002  -0.004   0.002  0.00  0.00    -0.089 S 
ENDBRANCH   1  13
BRANCH   7  14
ATOM     14  C   UNL     1       1.783  -4.583   2.856  0.00  0.00    +0.169 C 
BRANCH  14  15
ATOM     15  C   UNL     1       0.437  -5.072   3.395  0.00  0.00    +0.132 C 
ATOM     16 CL   UNL     1       0.555  -5.314   5.178  0.00  0.00    -0.115 Cl
BRANCH  15  17
ATOM     17  C   UNL     1       0.074  -6.376   2.733  0.00  0.00    -0.028 A 
ATOM     18  C   UNL     1       0.846  -7.501   2.955  0.00  0.00    +0.006 A 
ATOM     19  C   UNL     1       0.514  -8.698   2.349  0.00  0.00    +0.020 A 
ATOM     20  C   UNL     1      -0.591  -8.770   1.519  0.00  0.00    +0.041 A 
ATOM     21  C   UNL     1      -1.363  -7.643   1.298  0.00  0.00    +0.020 A 
ATOM     22  C   UNL     1      -1.033  -6.448   1.909  0.00  0.00    +0.006 A 
ATOM     23 CL   UNL     1      -1.009 -10.272   0.757  0.00  0.00    -0.084 Cl
ENDBRANCH  15  17
ENDBRANCH  14  15
ENDBRANCH   7  14
BRANCH  10  24
ATOM     24  C   UNL     1       2.188   2.701   3.815  0.00  0.00    +0.107 C 
BRANCH  24  25
ATOM     25  C   UNL     1       2.792   3.626   4.874  0.00  0.00    +0.054 C 
BRANCH  25  26
ATOM     26  C   UNL     1       2.536   5.061   4.493  0.00  0.00    -0.046 A 
ATOM     27  C   UNL     1       3.447   5.740   3.706  0.00  0.00    +0.004 A 
ATOM     28  C   UNL     1       3.213   7.057   3.356  0.00  0.00    +0.000 A 
ATOM     29  C   UNL     1       2.067   7.694   3.792  0.00  0.00    +0.000 A 
ATOM     30  C   UNL     1       1.155   7.015   4.579  0.00  0.00    +0.000 A 
ATOM     31  C   UNL     1       1.387   5.697   4.925  0.00  0.00    +0.004 A 
ENDBRANCH  25  26
ENDBRANCH  24  25
ENDBRANCH  10  24
TORSDOF 7
