REMARK  Name = CHEMBL454868
REMARK  6 active torsions:
REMARK  status: ('A' for Active; 'I' for Inactive)
REMARK    1  A    between atoms: C_1  and  P_2
REMARK    2  A    between atoms: P_2  and  C_4
REMARK    3  A    between atoms: P_2  and  C_5
REMARK    4  A    between atoms: C_8  and  N_11
REMARK    5  A    between atoms: N_18  and  C_21
REMARK    6  A    between atoms: C_22  and  C_23
REMARK                            x       y       z     vdW  Elec       q    Type
REMARK                         _______ _______ _______ _____ _____    ______ ____
ROOT
ATOM      1  N   UNL     1       2.800  -1.932  -4.917  0.00  0.00    -0.298 N 
ATOM      2  C   UNL     1       3.571  -3.082  -4.870  0.00  0.00    +0.154 A 
ATOM      3  C   UNL     1       4.323  -3.490  -5.984  0.00  0.00    +0.148 A 
ATOM      4  C   UNL     1       5.085  -4.665  -5.876  0.00  0.00    +0.169 A 
ATOM      5  N   UNL     1       5.067  -5.344  -4.734  0.00  0.00    -0.216 NA
ATOM      6  C   UNL     1       4.347  -4.924  -3.715  0.00  0.00    +0.225 A 
ATOM      7  N   UNL     1       3.620  -3.822  -3.767  0.00  0.00    -0.218 NA
ATOM      8  N   UNL     1       5.710  -4.826  -7.090  0.00  0.00    -0.290 N 
ATOM      9  C   UNL     1       5.329  -3.782  -7.885  0.00  0.00    +0.206 A 
ATOM     10  N   UNL     1       4.516  -3.001  -7.233  0.00  0.00    -0.230 NA
ATOM     11  H   UNL     1       2.841  -1.353  -5.694  0.00  0.00    +0.154 HD
ENDROOT
BRANCH   1  15
ATOM     12  C   UNL     1       0.310  -0.961  -1.724  0.00  0.00    +0.011 A 
ATOM     13  C   UNL     1       0.940   0.042  -2.437  0.00  0.00    +0.013 A 
ATOM     14  C   UNL     1       1.766  -0.276  -3.496  0.00  0.00    +0.024 A 
ATOM     15  C   UNL     1       1.965  -1.606  -3.845  0.00  0.00    +0.032 A 
ATOM     16  C   UNL     1       1.331  -2.611  -3.126  0.00  0.00    +0.024 A 
ATOM     17  C   UNL     1       0.509  -2.286  -2.065  0.00  0.00    +0.013 A 
BRANCH  12  19
ATOM     18  C   UNL     1      -0.202   1.013   0.435  0.00  0.00    +0.085 C 
ATOM     19  P   UNL     1      -0.775  -0.538  -0.333  0.00  0.00    +0.111 P 
ATOM     20  O   UNL     1      -0.740  -1.626   0.669  0.00  0.00    -0.317 OA
ATOM     21  C   UNL     1      -2.482  -0.323  -0.937  0.00  0.00    +0.085 C 
ENDBRANCH  12  19
ENDBRANCH   1  15
BRANCH   8  22
ATOM     22  C   UNL     1       6.570  -5.859  -7.444  0.00  0.00    +0.095 C 
ATOM     23  C   UNL     1       7.109  -5.890  -8.667  0.00  0.00    +0.026 C 
BRANCH  23  24
ATOM     24  C   UNL     1       8.021  -6.985  -9.042  0.00  0.00    -0.015 A 
ATOM     25  C   UNL     1       8.321  -7.994  -8.130  0.00  0.00    +0.009 A 
ATOM     26  C   UNL     1       9.179  -9.021  -8.485  0.00  0.00    +0.003 A 
ATOM     27  C   UNL     1       9.748  -9.065  -9.741  0.00  0.00    +0.026 A 
ATOM     28  C   UNL     1       9.466  -8.071 -10.673  0.00  0.00    +0.047 A 
ATOM     29  C   UNL     1       8.593  -7.025 -10.329  0.00  0.00    +0.007 A 
ATOM     30  C   UNL     1       8.502  -6.166 -11.508  0.00  0.00    +0.028 A 
ATOM     31  C   UNL     1       9.280  -6.715 -12.456  0.00  0.00    +0.083 A 
ATOM     32  N   UNL     1       9.871  -7.850 -11.971  0.00  0.00    -0.361 N 
ATOM     33  H   UNL     1      10.477  -8.420 -12.470  0.00  0.00    +0.165 HD
ENDBRANCH  23  24
ENDBRANCH   8  22
TORSDOF 4
