REMARK  Name = CHEMBL461768
REMARK  11 active torsions:
REMARK  status: ('A' for Active; 'I' for Inactive)
REMARK    1  A    between atoms: C_1  and  C_2
REMARK    2  A    between atoms: C_6  and  C_37
REMARK    3  A    between atoms: C_7  and  C_8
REMARK    4  A    between atoms: C_9  and  N_10
REMARK    5  A    between atoms: C_16  and  C_30
REMARK    6  A    between atoms: C_18  and  N_19
REMARK    7  A    between atoms: N_19  and  C_20
REMARK    8  A    between atoms: C_23  and  P_26
REMARK    9  A    between atoms: P_26  and  C_28
REMARK   10  A    between atoms: P_26  and  C_29
REMARK   11  A    between atoms: N_33  and  C_36
REMARK                            x       y       z     vdW  Elec       q    Type
REMARK                         _______ _______ _______ _____ _____    ______ ____
ROOT
ATOM      1  N   UNL     1      -1.205  -0.318   4.472  0.00  0.00    -0.290 N 
ATOM      2  C   UNL     1      -0.285   0.629   4.821  0.00  0.00    +0.206 A 
ATOM      3  N   UNL     1      -0.692   1.278   5.873  0.00  0.00    -0.230 NA
ATOM      4  C   UNL     1      -1.894   0.792   6.267  0.00  0.00    +0.148 A 
ATOM      5  C   UNL     1      -2.242  -0.233   5.371  0.00  0.00    +0.170 A 
ATOM      6  N   UNL     1      -3.394  -0.874   5.538  0.00  0.00    -0.212 NA
ATOM      7  C   UNL     1      -4.202  -0.554   6.527  0.00  0.00    +0.136 A 
ATOM      8  N   UNL     1      -3.921   0.403   7.391  0.00  0.00    -0.215 NA
ATOM      9  C   UNL     1      -2.788   1.093   7.309  0.00  0.00    +0.154 A 
ENDROOT
BRANCH   7  10
ATOM     10  C   UNL     1      -5.498  -1.309   6.677  0.00  0.00    +0.054 C 
ATOM     11  C   UNL     1      -6.674  -0.332   6.580  0.00  0.00    -0.008 C 
ATOM     12  C   UNL     1      -7.981  -1.092   6.812  0.00  0.00    -0.079 C 
ATOM     13  N   UNL     1      -7.964  -1.708   8.144  0.00  0.00    +0.378 N 
ATOM     14  C   UNL     1      -6.883  -2.698   8.221  0.00  0.00    -0.079 C 
ATOM     15  C   UNL     1      -5.533  -2.000   8.043  0.00  0.00    -0.008 C 
ATOM     16  C   UNL     1      -9.251  -2.370   8.393  0.00  0.00    -0.096 C 
ATOM     17  H   UNL     1      -7.814  -0.994   8.842  0.00  0.00    -0.082 HD
ENDBRANCH   7  10
BRANCH   1  19
ATOM     18  C   UNL     1      -0.043  -1.174   2.604  0.00  0.00    +0.026 C 
ATOM     19  C   UNL     1      -1.113  -1.201   3.402  0.00  0.00    +0.095 C 
BRANCH  18  26
ATOM     20  C   UNL     1       2.142  -3.037   2.248  0.00  0.00    +0.044 C 
ATOM     21  C   UNL     1       1.050  -2.927   1.215  0.00  0.00    -0.043 A 
ATOM     22  C   UNL     1       1.082  -3.723   0.089  0.00  0.00    +0.004 A 
ATOM     23  C   UNL     1       0.080  -3.624  -0.860  0.00  0.00    +0.001 A 
ATOM     24  C   UNL     1      -0.960  -2.728  -0.688  0.00  0.00    +0.004 A 
ATOM     25  C   UNL     1      -1.004  -1.926   0.434  0.00  0.00    -0.043 A 
ATOM     26  C   UNL     1       0.001  -2.024   1.399  0.00  0.00    -0.018 A 
ATOM     27  C   UNL     1      -2.137  -0.950   0.620  0.00  0.00    +0.044 C 
ENDBRANCH  18  26
ENDBRANCH   1  19
BRANCH   9  28
ATOM     28  N   UNL     1      -2.502   2.097   8.219  0.00  0.00    -0.298 N 
ATOM     29  H   UNL     1      -1.720   2.657   8.094  0.00  0.00    +0.154 HD
BRANCH  28  30
ATOM     30  C   UNL     1      -3.340   2.303   9.319  0.00  0.00    +0.032 A 
ATOM     31  C   UNL     1      -3.981   1.225   9.916  0.00  0.00    +0.024 A 
ATOM     32  C   UNL     1      -4.809   1.432  11.002  0.00  0.00    +0.013 A 
ATOM     33  C   UNL     1      -5.000   2.710  11.494  0.00  0.00    +0.011 A 
ATOM     34  C   UNL     1      -4.364   3.785  10.901  0.00  0.00    +0.013 A 
ATOM     35  C   UNL     1      -3.530   3.585   9.819  0.00  0.00    +0.024 A 
BRANCH  33  36
ATOM     36  P   UNL     1      -6.089   2.978  12.921  0.00  0.00    +0.111 P 
ATOM     37  O   UNL     1      -6.067   1.780  13.789  0.00  0.00    -0.317 OA
ATOM     38  C   UNL     1      -5.508   4.425  13.865  0.00  0.00    +0.085 C 
ATOM     39  C   UNL     1      -7.791   3.275  12.339  0.00  0.00    +0.085 C 
ENDBRANCH  33  36
ENDBRANCH  28  30
ENDBRANCH   9  28
TORSDOF 6
