REMARK  Name = CHEMBL364955
REMARK  9 active torsions:
REMARK  status: ('A' for Active; 'I' for Inactive)
REMARK    1  A    between atoms: C_1  and  N_2
REMARK    2  A    between atoms: N_5  and  C_8
REMARK    3  A    between atoms: C_8  and  C_9
REMARK    4  A    between atoms: C_12  and  C_15
REMARK    5  A    between atoms: C_20  and  N_26
REMARK    6  A    between atoms: C_21  and  C_24
REMARK    7  A    between atoms: N_26  and  C_27
REMARK    8  A    between atoms: C_29  and  O_35
REMARK    9  A    between atoms: O_35  and  C_36
REMARK                            x       y       z     vdW  Elec       q    Type
REMARK                         _______ _______ _______ _____ _____    ______ ____
ROOT
ATOM      1  C   UNL     1       1.600 -10.358   7.270  0.00  0.00    +0.022 A 
ATOM      2  C   UNL     1       0.983  -9.369   7.969  0.00  0.00    +0.044 A 
ATOM      3  C   UNL     1       1.743  -8.348   8.565  0.00  0.00    +0.080 A 
ATOM      4  C   UNL     1       3.139  -8.446   8.375  0.00  0.00    +0.060 A 
ATOM      5  S   UNL     1       3.325  -9.922   7.408  0.00  0.00    -0.085 S 
ATOM      6  C   UNL     1       4.017  -7.516   8.901  0.00  0.00    +0.066 A 
ATOM      7  C   UNL     1       3.474  -6.447   9.646  0.00  0.00    +0.092 A 
ATOM      8  C   UNL     1       2.083  -6.395   9.805  0.00  0.00    +0.132 A 
ATOM      9  N   UNL     1       1.291  -7.296   9.291  0.00  0.00    -0.253 NA
ENDROOT
BRANCH   1  13
ATOM     10  C   UNL     1      -0.142 -13.676   5.270  0.00  0.00    -0.064 A 
ATOM     11  C   UNL     1       1.218 -13.447   5.168  0.00  0.00    +0.002 A 
ATOM     12  C   UNL     1       1.790 -12.371   5.815  0.00  0.00    +0.009 A 
ATOM     13  C   UNL     1       0.994 -11.513   6.574  0.00  0.00    -0.011 A 
ATOM     14  C   UNL     1      -0.378 -11.749   6.673  0.00  0.00    +0.009 A 
ATOM     15  C   UNL     1      -0.939 -12.826   6.017  0.00  0.00    +0.002 A 
BRANCH  10  16
ATOM     16  C   UNL     1      -0.761 -14.853   4.561  0.00  0.00    -0.043 C 
BRANCH  16  21
ATOM     17  C   UNL     1      -1.532 -14.391  -1.002  0.00  0.00    +0.104 C 
ATOM     18  N   UNL     1      -1.150 -14.754   0.370  0.00  0.00    -0.309 NA
ATOM     19  C   UNL     1      -2.328 -15.133   1.162  0.00  0.00    +0.065 C 
ATOM     20  C   UNL     1      -1.882 -15.560   2.562  0.00  0.00    -0.063 C 
ATOM     21  N   UNL     1      -1.173 -14.449   3.210  0.00  0.00    +0.384 N 
ATOM     22  C   UNL     1       0.015 -14.097   2.421  0.00  0.00    -0.063 C 
ATOM     23  C   UNL     1      -0.415 -13.659   1.019  0.00  0.00    +0.065 C 
ATOM     24  H   UNL     1      -1.785 -13.649   3.271  0.00  0.00    -0.081 HD
ENDBRANCH  16  21
ENDBRANCH  10  16
ENDBRANCH   1  13
BRANCH   7  25
ATOM     25  C   UNL     1       4.320  -5.445  10.222  0.00  0.00    +0.103 C 
ATOM     26  N   UNL     1       4.991  -4.650  10.679  0.00  0.00    -0.191 NA
ENDBRANCH   7  25
BRANCH   6  27
ATOM     27  N   UNL     1       5.385  -7.630   8.704  0.00  0.00    -0.311 N 
ATOM     28  H   UNL     1       5.915  -8.189   9.294  0.00  0.00    +0.152 HD
BRANCH  27  29
ATOM     29  C   UNL     1       6.000  -6.941   7.655  0.00  0.00    +0.054 A 
ATOM     30  C   UNL     1       5.265  -6.052   6.882  0.00  0.00    +0.071 A 
ATOM     31  C   UNL     1       5.878  -5.369   5.844  0.00  0.00    +0.140 A 
ATOM     32  C   UNL     1       7.225  -5.575   5.577  0.00  0.00    +0.084 A 
ATOM     33  C   UNL     1       7.956  -6.461   6.347  0.00  0.00    +0.045 A 
ATOM     34  C   UNL     1       7.349  -7.140   7.388  0.00  0.00    +0.064 A 
ATOM     35 CL   UNL     1       8.272  -8.246   8.357  0.00  0.00    -0.082 Cl
ATOM     36 CL   UNL     1       7.992  -4.720   4.276  0.00  0.00    -0.080 Cl
BRANCH  31  37
ATOM     37  O   UNL     1       5.160  -4.499   5.085  0.00  0.00    -0.494 OA
ATOM     38  C   UNL     1       3.770  -4.365   5.390  0.00  0.00    +0.277 C 
ENDBRANCH  31  37
ENDBRANCH  27  29
ENDBRANCH   6  27
TORSDOF 7
