REMARK  Name = CHEMBL1087650
REMARK  6 active torsions:
REMARK  status: ('A' for Active; 'I' for Inactive)
REMARK    1  A    between atoms: C_1  and  N_2
REMARK    2  A    between atoms: N_10  and  C_11
REMARK    3  A    between atoms: C_14  and  C_17
REMARK    4  A    between atoms: C_24  and  C_33
REMARK    5  A    between atoms: C_25  and  C_26
REMARK    6  A    between atoms: C_30  and  O_32
REMARK                            x       y       z     vdW  Elec       q    Type
REMARK                         _______ _______ _______ _____ _____    ______ ____
ROOT
ATOM      1  C   UNL     1      -2.283  -8.129   0.460  0.00  0.00    +0.076 A 
ATOM      2  C   UNL     1      -3.129  -8.616  -0.517  0.00  0.00    +0.048 A 
ATOM      3  C   UNL     1      -3.585  -9.933  -0.426  0.00  0.00    +0.115 A 
ATOM      4  N   UNL     1      -3.213 -10.698   0.577  0.00  0.00    -0.236 NA
ATOM      5  C   UNL     1      -2.394 -10.243   1.530  0.00  0.00    +0.164 A 
ATOM      6  N   UNL     1      -1.912  -8.961   1.489  0.00  0.00    -0.213 N 
ATOM      7  N   UNL     1      -1.083  -8.770   2.600  0.00  0.00    -0.164 NA
ATOM      8  C   UNL     1      -1.042  -9.884   3.306  0.00  0.00    +0.103 A 
ATOM      9  C   UNL     1      -1.860 -10.843   2.677  0.00  0.00    +0.054 A 
ENDROOT
BRANCH   1  13
ATOM     10  C   UNL     1      -0.839  -4.139   0.276  0.00  0.00    +0.030 A 
ATOM     11  C   UNL     1      -2.197  -4.378   0.459  0.00  0.00    +0.024 A 
ATOM     12  C   UNL     1      -2.669  -5.670   0.519  0.00  0.00    +0.012 A 
ATOM     13  C   UNL     1      -1.781  -6.742   0.396  0.00  0.00    +0.001 A 
ATOM     14  C   UNL     1      -0.417  -6.499   0.212  0.00  0.00    +0.012 A 
ATOM     15  C   UNL     1       0.047  -5.204   0.148  0.00  0.00    +0.024 A 
BRANCH  10  23
ATOM     16  C   UNL     1       0.335   1.034  -1.362  0.00  0.00    +0.105 C 
ATOM     17  N   UNL     1       0.316  -0.424  -1.181  0.00  0.00    -0.299 NA
ATOM     18  C   UNL     1      -1.074  -0.929  -1.082  0.00  0.00    +0.106 C 
ATOM     19  C   UNL     1      -1.170  -1.578   0.334  0.00  0.00    +0.089 C 
ATOM     20  C   UNL     1      -0.190  -0.638   1.123  0.00  0.00    +0.044 C 
ATOM     21  C   UNL     1       0.989  -0.813   0.099  0.00  0.00    +0.075 C 
ATOM     22  C   UNL     1       1.049  -2.371   0.037  0.00  0.00    +0.124 C 
ATOM     23  N   UNL     1      -0.365  -2.830   0.216  0.00  0.00    -0.324 N 
ENDBRANCH  10  23
ENDBRANCH   1  13
BRANCH   9  24
ATOM     24  C   UNL     1      -2.098 -12.231   3.134  0.00  0.00    -0.009 A 
ATOM     25  C   UNL     1      -2.801 -12.468   4.317  0.00  0.00    +0.009 A 
ATOM     26  C   UNL     1      -3.020 -13.762   4.740  0.00  0.00    +0.004 A 
ATOM     27  C   UNL     1      -2.546 -14.827   3.997  0.00  0.00    +0.045 A 
ATOM     28  C   UNL     1      -1.845 -14.601   2.820  0.00  0.00    +0.117 A 
ATOM     29  C   UNL     1      -1.624 -13.306   2.383  0.00  0.00    +0.054 A 
BRANCH  28  30
ATOM     30  O   UNL     1      -1.380 -15.652   2.094  0.00  0.00    -0.507 OA
ATOM     31  H   UNL     1      -2.003 -15.976   1.429  0.00  0.00    +0.292 HD
ENDBRANCH  28  30
ENDBRANCH   9  24
BRANCH   8  32
ATOM     32  C   UNL     1      -0.274 -10.088   4.558  0.00  0.00    +0.006 A 
ATOM     33  C   UNL     1       0.416 -11.281   4.790  0.00  0.00    +0.030 A 
ATOM     34  C   UNL     1       1.119 -11.430   5.967  0.00  0.00    +0.111 A 
ATOM     35  N   UNL     1       1.145 -10.465   6.867  0.00  0.00    -0.263 NA
ATOM     36  C   UNL     1       0.508  -9.324   6.687  0.00  0.00    +0.111 A 
ATOM     37  C   UNL     1      -0.214  -9.090   5.535  0.00  0.00    +0.030 A 
ENDBRANCH   8  32
TORSDOF 5
