REMARK  Name = CHEMBL255738
REMARK  4 active torsions:
REMARK  status: ('A' for Active; 'I' for Inactive)
REMARK    1  A    between atoms: C_6  and  C_7
REMARK    2  A    between atoms: C_7  and  S_8
REMARK    3  A    between atoms: S_8  and  C_9
REMARK    4  A    between atoms: C_15  and  C_17
REMARK                            x       y       z     vdW  Elec       q    Type
REMARK                         _______ _______ _______ _____ _____    ______ ____
ROOT
ATOM      1  C   UNL     1      -3.335  -1.972  -1.519  0.00  0.00    +0.160 A 
ATOM      2  N   UNL     1      -3.973  -2.357  -0.423  0.00  0.00    -0.133 NA
ATOM      3  N   UNL     1      -5.056  -3.002  -0.474  0.00  0.00    -0.125 NA
ATOM      4  C   UNL     1      -5.622  -3.333  -1.623  0.00  0.00    +0.189 A 
ATOM      5  S   UNL     1      -4.444  -2.619  -2.767  0.00  0.00    -0.024 S 
ATOM      6  N   UNL     1      -6.799  -4.033  -1.872  0.00  0.00    -0.259 N 
ATOM      7  C   UNL     1      -7.546  -4.482  -0.844  0.00  0.00    +0.250 C 
ATOM      8  O   UNL     1      -7.191  -4.276   0.300  0.00  0.00    -0.270 OA
ATOM      9  H   UNL     1      -7.081  -4.197  -2.785  0.00  0.00    +0.157 HD
ENDROOT
BRANCH   7  10
ATOM     10  C   UNL     1      -8.795  -5.224  -1.108  0.00  0.00    +0.037 A 
ATOM     11  C   UNL     1      -9.201  -5.467  -2.422  0.00  0.00    +0.016 A 
ATOM     12  C   UNL     1     -10.367  -6.161  -2.663  0.00  0.00    +0.039 A 
ATOM     13  C   UNL     1     -11.137  -6.617  -1.603  0.00  0.00    +0.123 A 
ATOM     14  C   UNL     1     -10.738  -6.378  -0.297  0.00  0.00    +0.039 A 
ATOM     15  C   UNL     1      -9.571  -5.691  -0.045  0.00  0.00    +0.016 A 
ATOM     16  F   UNL     1     -12.280  -7.297  -1.845  0.00  0.00    -0.205 F 
ENDBRANCH   7  10
BRANCH   1  17
ATOM     17  S   UNL     1      -1.829  -1.075  -1.697  0.00  0.00    -0.092 S 
BRANCH  17  18
ATOM     18  C   UNL     1      -1.293  -0.775   0.010  0.00  0.00    +0.111 C 
BRANCH  18  24
ATOM     19  C   UNL     1      -0.017   1.378   0.010  0.00  0.00    +0.007 A 
ATOM     20  C   UNL     1       1.170   2.086   0.002  0.00  0.00    +0.038 A 
ATOM     21  C   UNL     1       2.379   1.410  -0.013  0.00  0.00    +0.123 A 
ATOM     22  C   UNL     1       2.396   0.026  -0.021  0.00  0.00    +0.038 A 
ATOM     23  C   UNL     1       1.208  -0.680  -0.013  0.00  0.00    +0.007 A 
ATOM     24  C   UNL     1       0.002  -0.004   0.002  0.00  0.00    -0.037 A 
ATOM     25  F   UNL     1       3.540   2.101  -0.021  0.00  0.00    -0.205 F 
ENDBRANCH  18  24
ENDBRANCH  17  18
ENDBRANCH   1  17
TORSDOF 4
