REMARK  Name = CHEMBL477342
REMARK  4 active torsions:
REMARK  status: ('A' for Active; 'I' for Inactive)
REMARK    1  A    between atoms: C_4  and  O_7
REMARK    2  A    between atoms: O_7  and  C_8
REMARK    3  A    between atoms: C_8  and  C_9
REMARK    4  A    between atoms: C_15  and  C_17
REMARK                            x       y       z     vdW  Elec       q    Type
REMARK                         _______ _______ _______ _____ _____    ______ ____
ROOT
ATOM      1  C   UNL     1       4.932  -2.615  -0.061  0.00  0.00    +0.141 A 
ATOM      2  N   UNL     1       5.728  -2.939   0.939  0.00  0.00    -0.141 NA
ATOM      3  N   UNL     1       6.888  -3.397   0.753  0.00  0.00    -0.126 NA
ATOM      4  C   UNL     1       7.380  -3.583  -0.464  0.00  0.00    +0.188 A 
ATOM      5  S   UNL     1       5.987  -3.032  -1.446  0.00  0.00    -0.032 S 
ATOM      6  N   UNL     1       8.618  -4.072  -0.863  0.00  0.00    -0.259 N 
ATOM      7  C   UNL     1       9.527  -4.440   0.061  0.00  0.00    +0.256 C 
ATOM      8  O   UNL     1       9.263  -4.345   1.246  0.00  0.00    -0.269 OA
ATOM      9  H   UNL     1       8.828  -4.148  -1.807  0.00  0.00    +0.157 HD
ENDROOT
BRANCH   7  10
ATOM     10  C   UNL     1      10.833  -4.955  -0.359  0.00  0.00    +0.074 A 
ATOM     11  C   UNL     1      11.894  -5.388   0.421  0.00  0.00    +0.021 A 
ATOM     12  C   UNL     1      13.002  -5.821  -0.267  0.00  0.00    +0.008 A 
ATOM     13  C   UNL     1      12.988  -5.797  -1.622  0.00  0.00    +0.046 A 
ATOM     14  S   UNL     1      11.468  -5.194  -2.008  0.00  0.00    -0.092 S 
ENDBRANCH   7  10
BRANCH   1  15
ATOM     15  C   UNL     1       3.531  -2.060  -0.044  0.00  0.00    +0.293 C 
BRANCH  15  16
ATOM     16  O   UNL     1       3.586  -0.632  -0.037  0.00  0.00    -0.485 OA
BRANCH  16  20
ATOM     17  C   UNL     1      -0.017   1.378   0.010  0.00  0.00    +0.000 A 
ATOM     18  C   UNL     1       1.170   2.088   0.002  0.00  0.00    +0.004 A 
ATOM     19  C   UNL     1       2.377   1.417  -0.013  0.00  0.00    +0.045 A 
ATOM     20  C   UNL     1       2.399   0.030  -0.021  0.00  0.00    +0.121 A 
ATOM     21  C   UNL     1       1.207  -0.680  -0.013  0.00  0.00    +0.045 A 
ATOM     22  C   UNL     1       0.002  -0.004   0.002  0.00  0.00    +0.004 A 
ENDBRANCH  16  20
ENDBRANCH  15  16
ENDBRANCH   1  15
TORSDOF 4
