REMARK  Name = CHEMBL373101
REMARK  9 active torsions:
REMARK  status: ('A' for Active; 'I' for Inactive)
REMARK    1  A    between atoms: C_1  and  N_2
REMARK    2  A    between atoms: N_5  and  C_8
REMARK    3  A    between atoms: C_8  and  C_9
REMARK    4  A    between atoms: C_12  and  C_15
REMARK    5  A    between atoms: C_20  and  N_26
REMARK    6  A    between atoms: C_21  and  C_24
REMARK    7  A    between atoms: N_26  and  C_27
REMARK    8  A    between atoms: C_29  and  O_35
REMARK    9  A    between atoms: O_35  and  C_36
REMARK                            x       y       z     vdW  Elec       q    Type
REMARK                         _______ _______ _______ _____ _____    ______ ____
ROOT
ATOM      1  C   UNL     1       0.783  -9.621   8.457  0.00  0.00    +0.040 A 
ATOM      2  C   UNL     1       0.242  -8.499   9.001  0.00  0.00    +0.046 A 
ATOM      3  C   UNL     1       1.078  -7.474   9.476  0.00  0.00    +0.081 A 
ATOM      4  C   UNL     1       2.463  -7.712   9.338  0.00  0.00    +0.061 A 
ATOM      5  S   UNL     1       2.537  -9.315   8.582  0.00  0.00    -0.083 S 
ATOM      6  C   UNL     1       3.411  -6.795   9.759  0.00  0.00    +0.066 A 
ATOM      7  C   UNL     1       2.950  -5.594  10.340  0.00  0.00    +0.092 A 
ATOM      8  C   UNL     1       1.566  -5.406  10.454  0.00  0.00    +0.132 A 
ATOM      9  N   UNL     1       0.708  -6.298  10.042  0.00  0.00    -0.253 NA
ENDROOT
BRANCH   1  13
ATOM     10  C   UNL     1      -1.215 -12.973   6.899  0.00  0.00    -0.015 A 
ATOM     11  C   UNL     1       0.165 -12.908   6.762  0.00  0.00    +0.008 A 
ATOM     12  C   UNL     1       0.828 -11.806   7.273  0.00  0.00    +0.029 A 
ATOM     13  C   UNL     1       0.090 -10.804   7.905  0.00  0.00    +0.078 A 
ATOM     14  N   UNL     1      -1.229 -10.906   8.016  0.00  0.00    -0.254 NA
ATOM     15  C   UNL     1      -1.884 -11.942   7.532  0.00  0.00    +0.116 A 
BRANCH  10  16
ATOM     16  C   UNL     1      -1.977 -14.155   6.358  0.00  0.00    +0.121 C 
BRANCH  16  21
ATOM     17  C   UNL     1      -2.976 -14.195   0.812  0.00  0.00    -0.096 C 
ATOM     18  N   UNL     1      -2.561 -14.509   2.186  0.00  0.00    +0.379 N 
ATOM     19  C   UNL     1      -3.743 -14.560   3.055  0.00  0.00    -0.064 C 
ATOM     20  C   UNL     1      -3.313 -14.907   4.482  0.00  0.00    +0.066 C 
ATOM     21  N   UNL     1      -2.371 -13.888   4.968  0.00  0.00    -0.302 NA
ATOM     22  C   UNL     1      -1.193 -13.808   4.093  0.00  0.00    +0.066 C 
ATOM     23  C   UNL     1      -1.640 -13.471   2.669  0.00  0.00    -0.064 C 
ATOM     24  H   UNL     1      -2.095 -15.404   2.200  0.00  0.00    -0.082 HD
ENDBRANCH  16  21
ENDBRANCH  10  16
ENDBRANCH   1  13
BRANCH   7  25
ATOM     25  C   UNL     1       3.870  -4.598  10.801  0.00  0.00    +0.103 C 
ATOM     26  N   UNL     1       4.600  -3.807  11.166  0.00  0.00    -0.191 NA
ENDBRANCH   7  25
BRANCH   6  27
ATOM     27  N   UNL     1       4.766  -7.048   9.616  0.00  0.00    -0.311 N 
ATOM     28  H   UNL     1       5.237  -7.566  10.288  0.00  0.00    +0.152 HD
BRANCH  27  29
ATOM     29  C   UNL     1       5.455  -6.557   8.503  0.00  0.00    +0.054 A 
ATOM     30  C   UNL     1       4.810  -5.727   7.597  0.00  0.00    +0.071 A 
ATOM     31  C   UNL     1       5.495  -5.242   6.494  0.00  0.00    +0.140 A 
ATOM     32  C   UNL     1       6.826  -5.588   6.298  0.00  0.00    +0.084 A 
ATOM     33  C   UNL     1       7.468  -6.415   7.201  0.00  0.00    +0.045 A 
ATOM     34  C   UNL     1       6.789  -6.896   8.305  0.00  0.00    +0.064 A 
ATOM     35 CL   UNL     1       7.600  -7.928   9.441  0.00  0.00    -0.082 Cl
ATOM     36 CL   UNL     1       7.684  -4.981   4.916  0.00  0.00    -0.080 Cl
BRANCH  31  37
ATOM     37  O   UNL     1       4.865  -4.429   5.605  0.00  0.00    -0.494 OA
ATOM     38  C   UNL     1       3.468  -4.207   5.807  0.00  0.00    +0.277 C 
ENDBRANCH  31  37
ENDBRANCH  27  29
ENDBRANCH   6  27
TORSDOF 7
