REMARK  Name = CHEMBL473923
REMARK  6 active torsions:
REMARK  status: ('A' for Active; 'I' for Inactive)
REMARK    1  A    between atoms: C_1  and  N_2
REMARK    2  A    between atoms: N_2  and  C_3
REMARK    3  A    between atoms: N_10  and  C_11
REMARK    4  A    between atoms: C_11  and  C_12
REMARK    5  A    between atoms: C_12  and  C_13
REMARK    6  A    between atoms: C_20  and  N_22
REMARK                            x       y       z     vdW  Elec       q    Type
REMARK                         _______ _______ _______ _____ _____    ______ ____
ROOT
ATOM      1  C   UNL     1      -0.022   1.449   0.313  0.00  0.00    +0.132 C 
ATOM      2  N   UNL     1      -0.001  -0.011   0.200  0.00  0.00    -0.306 N 
ATOM      3  C   UNL     1       1.278  -0.726   0.188  0.00  0.00    +0.132 C 
ATOM      4  C   UNL     1      -1.188  -0.716   0.106  0.00  0.00    +0.221 A 
ATOM      5  N   UNL     1      -1.141  -2.034   0.011  0.00  0.00    -0.195 NA
ATOM      6  C   UNL     1      -2.261  -2.748  -0.082  0.00  0.00    +0.165 A 
ATOM      7  C   UNL     1      -3.499  -2.077  -0.076  0.00  0.00    +0.079 A 
ATOM      8  C   UNL     1      -4.504  -3.062  -0.185  0.00  0.00    +0.148 A 
ATOM      9  N   UNL     1      -3.932  -4.230  -0.251  0.00  0.00    -0.177 NA
ATOM     10  N   UNL     1      -2.541  -4.078  -0.190  0.00  0.00    -0.245 N 
ATOM     11  C   UNL     1      -3.499  -0.671   0.028  0.00  0.00    +0.137 A 
ATOM     12  N   UNL     1      -2.333  -0.043   0.120  0.00  0.00    -0.199 NA
ENDROOT
BRANCH  11  13
ATOM     13  N   UNL     1      -4.685   0.036   0.038  0.00  0.00    -0.310 N 
ATOM     14  C   UNL     1      -5.379   0.333   1.301  0.00  0.00    +0.134 C 
ATOM     15  C   UNL     1      -5.697   1.832   1.337  0.00  0.00    +0.178 C 
ATOM     16  O   UNL     1      -6.380   2.197   0.136  0.00  0.00    -0.377 OA
ATOM     17  C   UNL     1      -5.613   2.006  -1.055  0.00  0.00    +0.178 C 
ATOM     18  C   UNL     1      -5.288   0.521  -1.214  0.00  0.00    +0.134 C 
ENDBRANCH  11  13
BRANCH  10  19
ATOM     19  C   UNL     1      -1.556  -5.161  -0.235  0.00  0.00    +0.169 C 
BRANCH  19  20
ATOM     20  C   UNL     1      -1.264  -5.645   1.186  0.00  0.00    +0.132 C 
ATOM     21 CL   UNL     1      -0.474  -4.321   2.121  0.00  0.00    -0.115 Cl
BRANCH  20  22
ATOM     22  C   UNL     1      -0.346  -6.839   1.132  0.00  0.00    -0.028 A 
ATOM     23  C   UNL     1       0.944  -6.698   0.655  0.00  0.00    +0.005 A 
ATOM     24  C   UNL     1       1.786  -7.793   0.606  0.00  0.00    +0.000 A 
ATOM     25  C   UNL     1       1.339  -9.029   1.034  0.00  0.00    +0.000 A 
ATOM     26  C   UNL     1       0.050  -9.170   1.511  0.00  0.00    +0.000 A 
ATOM     27  C   UNL     1      -0.791  -8.074   1.565  0.00  0.00    +0.005 A 
ENDBRANCH  20  22
ENDBRANCH  19  20
ENDBRANCH  10  19
TORSDOF 4
