REMARK  Name = CHEMBL1171679
REMARK  9 active torsions:
REMARK  status: ('A' for Active; 'I' for Inactive)
REMARK    1  A    between atoms: C_1  and  C_2
REMARK    2  A    between atoms: C_5  and  C_20
REMARK    3  A    between atoms: C_7  and  C_8
REMARK    4  A    between atoms: C_9  and  N_10
REMARK    5  A    between atoms: C_18  and  N_19
REMARK    6  A    between atoms: N_22  and  C_23
REMARK    7  A    between atoms: C_25  and  C_35
REMARK    8  A    between atoms: C_27  and  N_29
REMARK    9  A    between atoms: C_31  and  C_34
REMARK                            x       y       z     vdW  Elec       q    Type
REMARK                         _______ _______ _______ _____ _____    ______ ____
ROOT
ATOM      1  C   UNL     1      -0.049   1.502   0.010  0.00  0.00    +0.044 C 
ATOM      2  C   UNL     1      -0.020  -0.004   0.002  0.00  0.00    -0.043 A 
ATOM      3  C   UNL     1      -0.018  -0.687  -1.199  0.00  0.00    +0.004 A 
ATOM      4  C   UNL     1       0.009  -2.067  -1.216  0.00  0.00    +0.013 A 
ATOM      5  C   UNL     1       0.035  -2.783  -0.016  0.00  0.00    +0.038 A 
ATOM      6  C   UNL     1       0.033  -2.101   1.199  0.00  0.00    +0.021 A 
ATOM      7  C   UNL     1       0.011  -0.707   1.208  0.00  0.00    -0.020 A 
ENDROOT
BRANCH   5   8
ATOM      8  C   UNL     1       0.063  -4.261  -0.036  0.00  0.00    +0.248 C 
ATOM      9  O   UNL     1       0.085  -4.883   1.008  0.00  0.00    -0.270 OA
ATOM     10  N   UNL     1       0.064  -4.919  -1.213  0.00  0.00    -0.281 N 
ATOM     11  H   UNL     1      -0.022  -4.427  -2.044  0.00  0.00    +0.155 HD
BRANCH  10  12
ATOM     12  C   UNL     1       0.188  -6.312  -1.235  0.00  0.00    +0.036 A 
ATOM     13  C   UNL     1       0.893  -6.931  -2.259  0.00  0.00    +0.035 A 
ATOM     14  C   UNL     1       1.016  -8.307  -2.282  0.00  0.00    +0.059 A 
ATOM     15  C   UNL     1       0.439  -9.071  -1.286  0.00  0.00    +0.038 A 
ATOM     16  C   UNL     1      -0.267  -8.458  -0.259  0.00  0.00    +0.050 A 
ATOM     17  C   UNL     1      -0.388  -7.077  -0.230  0.00  0.00    +0.049 A 
BRANCH  16  18
ATOM     18  N   UNL     1      -0.853  -9.235   0.751  0.00  0.00    -0.306 N 
ATOM     19  C   UNL     1      -1.579  -8.772   1.818  0.00  0.00    +0.115 A 
ATOM     20  C   UNL     1      -1.950  -9.849   2.535  0.00  0.00    +0.056 A 
ATOM     21  N   UNL     1      -1.467 -10.943   1.927  0.00  0.00    -0.241 NA
ATOM     22  C   UNL     1      -0.813 -10.589   0.855  0.00  0.00    +0.204 A 
ATOM     23  C   UNL     1      -2.767  -9.830   3.801  0.00  0.00    +0.067 C 
ENDBRANCH  16  18
BRANCH  14  24
ATOM     24  C   UNL     1       1.780  -8.976  -3.395  0.00  0.00    +0.418 C 
ATOM     25  F   UNL     1       2.267  -8.004  -4.276  0.00  0.00    -0.166 F 
ATOM     26  F   UNL     1       2.852  -9.696  -2.857  0.00  0.00    -0.166 F 
ATOM     27  F   UNL     1       0.931  -9.848  -4.085  0.00  0.00    -0.166 F 
ENDBRANCH  14  24
ENDBRANCH  10  12
ENDBRANCH   5   8
BRANCH   7  28
ATOM     28  C   UNL     1       0.016   0.024   2.491  0.00  0.00    +0.026 C 
ATOM     29  C   UNL     1       0.045  -0.650   3.643  0.00  0.00    +0.095 C 
BRANCH  29  30
ATOM     30  N   UNL     1       0.049   0.039   4.851  0.00  0.00    -0.290 N 
ATOM     31  C   UNL     1       0.019   1.395   5.009  0.00  0.00    +0.206 A 
ATOM     32  N   UNL     1       0.034   1.695   6.275  0.00  0.00    -0.230 NA
ATOM     33  C   UNL     1       0.074   0.557   7.010  0.00  0.00    +0.148 A 
ATOM     34  C   UNL     1       0.078  -0.520   6.107  0.00  0.00    +0.169 A 
ATOM     35  N   UNL     1       0.109  -1.760   6.581  0.00  0.00    -0.216 NA
ATOM     36  C   UNL     1       0.133  -1.982   7.879  0.00  0.00    +0.225 A 
ATOM     37  N   UNL     1       0.126  -1.004   8.765  0.00  0.00    -0.219 NA
ATOM     38  C   UNL     1       0.104   0.270   8.385  0.00  0.00    +0.147 A 
BRANCH  38  39
ATOM     39  N   UNL     1       0.096   1.288   9.321  0.00  0.00    -0.341 N 
ATOM     40  H   UNL     1       0.068   2.213   9.031  0.00  0.00    +0.144 HD
ATOM     41  H   UNL     1       0.117   1.077  10.268  0.00  0.00    +0.144 HD
ENDBRANCH  38  39
ENDBRANCH  29  30
ENDBRANCH   7  28
TORSDOF 7
