REMARK  Name = CHEMBL270492
REMARK  5 active torsions:
REMARK  status: ('A' for Active; 'I' for Inactive)
REMARK    1  A    between atoms: C_5  and  C_7
REMARK    2  A    between atoms: C_7  and  N_8
REMARK    3  A    between atoms: N_13  and  C_18
REMARK    4  A    between atoms: C_18  and  C_19
REMARK    5  A    between atoms: C_19  and  C_20
REMARK                            x       y       z     vdW  Elec       q    Type
REMARK                         _______ _______ _______ _____ _____    ______ ____
ROOT
ATOM      1  N   UNL     1       1.488  -2.679   1.333  0.00  0.00    -0.324 N 
ATOM      2  C   UNL     1       1.552  -4.037   1.573  0.00  0.00    +0.133 A 
ATOM      3  C   UNL     1       1.795  -4.530   2.870  0.00  0.00    +0.078 A 
ATOM      4  C   UNL     1       2.015  -3.937   4.132  0.00  0.00    +0.148 A 
ATOM      5  N   UNL     1       2.188  -4.885   5.009  0.00  0.00    -0.177 NA
ATOM      6  N   UNL     1       2.093  -6.133   4.379  0.00  0.00    -0.245 N 
ATOM      7  C   UNL     1       1.850  -5.925   3.054  0.00  0.00    +0.163 A 
ATOM      8  N   UNL     1       1.671  -6.720   2.000  0.00  0.00    -0.216 NA
ATOM      9  C   UNL     1       1.447  -6.213   0.808  0.00  0.00    +0.225 A 
ATOM     10  N   UNL     1       1.381  -4.912   0.588  0.00  0.00    -0.220 NA
ATOM     11  H   UNL     1       1.614  -2.051   2.062  0.00  0.00    +0.148 HD
ENDROOT
BRANCH   1  12
ATOM     12  C   UNL     1       1.228  -2.186  -0.022  0.00  0.00    +0.141 C 
BRANCH  12  17
ATOM     13  C   UNL     1      -0.017   1.378   0.010  0.00  0.00    +0.000 A 
ATOM     14  C   UNL     1       1.171   2.087   0.002  0.00  0.00    +0.003 A 
ATOM     15  C   UNL     1       2.377   1.414  -0.013  0.00  0.00    +0.038 A 
ATOM     16  C   UNL     1       2.397   0.029  -0.021  0.00  0.00    +0.128 A 
ATOM     17  C   UNL     1       1.208  -0.679  -0.013  0.00  0.00    +0.005 A 
ATOM     18  C   UNL     1       0.002  -0.004   0.002  0.00  0.00    +0.008 A 
ATOM     19  F   UNL     1       3.577  -0.630  -0.036  0.00  0.00    -0.205 F 
ENDBRANCH  12  17
ENDBRANCH   1  12
BRANCH   6  20
ATOM     20  C   UNL     1       2.233  -7.437   5.033  0.00  0.00    +0.169 C 
BRANCH  20  21
ATOM     21  C   UNL     1       0.862  -7.913   5.518  0.00  0.00    +0.132 C 
ATOM     22 CL   UNL     1       0.258  -6.799   6.801  0.00  0.00    -0.115 Cl
BRANCH  21  23
ATOM     23  C   UNL     1       0.985  -9.306   6.079  0.00  0.00    -0.028 A 
ATOM     24  C   UNL     1       1.736  -9.528   7.219  0.00  0.00    +0.008 A 
ATOM     25  C   UNL     1       1.848 -10.806   7.735  0.00  0.00    +0.038 A 
ATOM     26  C   UNL     1       1.209 -11.863   7.110  0.00  0.00    +0.123 A 
ATOM     27  C   UNL     1       0.457 -11.639   5.969  0.00  0.00    +0.038 A 
ATOM     28  C   UNL     1       0.341 -10.361   5.458  0.00  0.00    +0.008 A 
ATOM     29  F   UNL     1       1.318 -13.112   7.614  0.00  0.00    -0.205 F 
ENDBRANCH  21  23
ENDBRANCH  20  21
ENDBRANCH   6  20
TORSDOF 5
