REMARK  Name = CHEMBL384213
REMARK  6 active torsions:
REMARK  status: ('A' for Active; 'I' for Inactive)
REMARK    1  A    between atoms: C_4  and  C_7
REMARK    2  A    between atoms: C_7  and  N_8
REMARK    3  A    between atoms: N_8  and  C_9
REMARK    4  A    between atoms: C_15  and  C_19
REMARK    5  A    between atoms: C_25  and  N_29
REMARK    6  A    between atoms: C_32  and  N_35
REMARK                            x       y       z     vdW  Elec       q    Type
REMARK                         _______ _______ _______ _____ _____    ______ ____
ROOT
ATOM      1  C   UNL     1       7.246  -2.725   5.710  0.00  0.00    +0.160 A 
ATOM      2  N   UNL     1       7.949  -3.095   6.826  0.00  0.00    -0.337 N 
ATOM      3  H   UNL     1       8.803  -3.556   6.842  0.00  0.00    +0.167 HD
ATOM      4  C   UNL     1       7.215  -2.686   7.926  0.00  0.00    +0.067 A 
ATOM      5  C   UNL     1       7.409  -2.778   9.297  0.00  0.00    +0.029 A 
ATOM      6  C   UNL     1       6.468  -2.261  10.161  0.00  0.00    +0.025 A 
ATOM      7  C   UNL     1       5.320  -1.645   9.666  0.00  0.00    +0.032 A 
ATOM      8  C   UNL     1       5.112  -1.545   8.304  0.00  0.00    +0.053 A 
ATOM      9  C   UNL     1       6.061  -2.066   7.418  0.00  0.00    +0.091 A 
ATOM     10  N   UNL     1       6.140  -2.116   6.066  0.00  0.00    -0.226 NA
ENDROOT
BRANCH   1  17
ATOM     11  C   UNL     1       5.312  -1.702   1.578  0.00  0.00    +0.028 A 
ATOM     12  C   UNL     1       6.091  -2.137   0.505  0.00  0.00    +0.025 A 
ATOM     13  C   UNL     1       7.275  -2.782   0.719  0.00  0.00    +0.029 A 
ATOM     14  C   UNL     1       7.719  -3.014   2.019  0.00  0.00    +0.067 A 
ATOM     15  C   UNL     1       6.941  -2.580   3.107  0.00  0.00    +0.032 A 
ATOM     16  C   UNL     1       5.734  -1.916   2.876  0.00  0.00    +0.035 A 
ATOM     17  C   UNL     1       7.672  -2.970   4.319  0.00  0.00    +0.135 A 
ATOM     18  N   UNL     1       8.773  -3.576   3.938  0.00  0.00    -0.170 NA
ATOM     19  N   UNL     1       8.835  -3.621   2.542  0.00  0.00    -0.276 N 
ATOM     20  H   UNL     1       9.553  -4.018   2.024  0.00  0.00    +0.189 HD
BRANCH  11  21
ATOM     21  N   UNL     1       4.102  -1.043   1.338  0.00  0.00    -0.340 N 
ATOM     22  H   UNL     1       3.561  -0.737   2.082  0.00  0.00    +0.146 HD
BRANCH  21  23
ATOM     23  C   UNL     1       3.652  -0.815  -0.037  0.00  0.00    +0.136 C 
BRANCH  23  27
ATOM     24  C   UNL     1      -0.094   1.237   0.010  0.00  0.00    +0.000 A 
ATOM     25  C   UNL     1       1.087   1.955  -0.011  0.00  0.00    +0.000 A 
ATOM     26  C   UNL     1       2.299   1.291  -0.026  0.00  0.00    +0.005 A 
ATOM     27  C   UNL     1       2.330  -0.091  -0.020  0.00  0.00    -0.030 A 
ATOM     28  C   UNL     1       1.149  -0.809   0.002  0.00  0.00    +0.005 A 
ATOM     29  C   UNL     1      -0.063  -0.145   0.015  0.00  0.00    +0.000 A 
ENDBRANCH  23  27
ENDBRANCH  21  23
ENDBRANCH  11  21
ENDBRANCH   1  17
BRANCH   7  30
ATOM     30  N   UNL     1       4.373  -1.124  10.555  0.00  0.00    -0.330 N 
ATOM     31  C   UNL     1       3.217  -0.365  10.057  0.00  0.00    +0.103 C 
ATOM     32  C   UNL     1       1.937  -0.990  10.620  0.00  0.00    +0.004 C 
ATOM     33  C   UNL     1       2.035  -1.057  12.146  0.00  0.00    -0.066 C 
ATOM     34  C   UNL     1       3.220  -1.940  12.544  0.00  0.00    +0.004 C 
ATOM     35  C   UNL     1       4.511  -1.331  12.003  0.00  0.00    +0.103 C 
BRANCH  33  36
ATOM     36  N   UNL     1       0.795  -1.625  12.691  0.00  0.00    +0.382 N 
ATOM     37  C   UNL     1      -0.341  -0.782  12.302  0.00  0.00    -0.078 C 
ATOM     38  C   UNL     1      -1.643  -1.413  12.799  0.00  0.00    -0.019 C 
ATOM     39  C   UNL     1      -1.595  -1.535  14.325  0.00  0.00    -0.004 C 
ATOM     40  C   UNL     1      -0.365  -2.354  14.723  0.00  0.00    -0.019 C 
ATOM     41  C   UNL     1       0.890  -1.688  14.155  0.00  0.00    -0.078 C 
ATOM     42  H   UNL     1       0.663  -2.555  12.323  0.00  0.00    -0.081 HD
ENDBRANCH  33  36
ENDBRANCH   7  30
TORSDOF 6
