REMARK  Name = CHEMBL249820
REMARK  6 active torsions:
REMARK  status: ('A' for Active; 'I' for Inactive)
REMARK    1  A    between atoms: C_1  and  C_2
REMARK    2  A    between atoms: C_4  and  C_23
REMARK    3  A    between atoms: N_12  and  C_13
REMARK    4  A    between atoms: C_16  and  S_19
REMARK    5  A    between atoms: S_19  and  N_22
REMARK    6  A    between atoms: C_25  and  O_30
REMARK                            x       y       z     vdW  Elec       q    Type
REMARK                         _______ _______ _______ _____ _____    ______ ____
ROOT
ATOM      1  C   UNL     1       0.577   1.444   0.019  0.00  0.00    +0.046 C 
ATOM      2  C   UNL     1       0.268  -0.031   0.006  0.00  0.00    -0.022 A 
ATOM      3  C   UNL     1       0.182  -0.698  -1.175  0.00  0.00    +0.014 A 
ATOM      4  C   UNL     1      -0.105  -2.072  -1.208  0.00  0.00    -0.014 A 
ATOM      5  C   UNL     1      -0.306  -2.777  -0.035  0.00  0.00    +0.040 A 
ATOM      6  C   UNL     1      -0.222  -2.108   1.194  0.00  0.00    +0.112 A 
ATOM      7  C   UNL     1       0.074  -0.720   1.214  0.00  0.00    +0.097 A 
ATOM      8  N   UNL     1       0.156  -0.098   2.397  0.00  0.00    -0.211 NA
ATOM      9  C   UNL     1      -0.036  -0.795   3.503  0.00  0.00    +0.240 A 
ATOM     10  N   UNL     1      -0.308  -2.102   3.466  0.00  0.00    -0.112 NA
ATOM     11  N   UNL     1      -0.410  -2.747   2.355  0.00  0.00    -0.144 NA
ATOM     12  N   UNL     1       0.048  -0.157   4.728  0.00  0.00    -0.282 N 
ATOM     13  H   UNL     1       0.165   0.805   4.767  0.00  0.00    +0.155 HD
ENDROOT
BRANCH   4  14
ATOM     14  C   UNL     1      -0.193  -2.774  -2.511  0.00  0.00    +0.004 A 
ATOM     15  C   UNL     1       0.508  -3.961  -2.715  0.00  0.00    +0.055 A 
ATOM     16  C   UNL     1       0.421  -4.611  -3.934  0.00  0.00    +0.118 A 
ATOM     17  C   UNL     1      -0.362  -4.081  -4.951  0.00  0.00    +0.047 A 
ATOM     18  C   UNL     1      -1.058  -2.904  -4.750  0.00  0.00    +0.024 A 
ATOM     19  C   UNL     1      -0.982  -2.251  -3.535  0.00  0.00    +0.049 A 
ATOM     20 CL   UNL     1      -1.863  -0.776  -3.286  0.00  0.00    -0.083 Cl
BRANCH  16  21
ATOM     21  O   UNL     1       1.104  -5.769  -4.136  0.00  0.00    -0.507 OA
ATOM     22  H   UNL     1       0.607  -6.565  -3.900  0.00  0.00    +0.292 HD
ENDBRANCH  16  21
ENDBRANCH   4  14
BRANCH  12  23
ATOM     23  C   UNL     1      -0.037  -0.898   5.910  0.00  0.00    +0.034 A 
ATOM     24  C   UNL     1       0.577  -2.141   5.998  0.00  0.00    +0.025 A 
ATOM     25  C   UNL     1       0.491  -2.871   7.167  0.00  0.00    +0.030 A 
ATOM     26  C   UNL     1      -0.205  -2.366   8.250  0.00  0.00    +0.105 A 
ATOM     27  C   UNL     1      -0.817  -1.129   8.166  0.00  0.00    +0.030 A 
ATOM     28  C   UNL     1      -0.731  -0.391   7.002  0.00  0.00    +0.025 A 
BRANCH  26  29
ATOM     29  S   UNL     1      -0.312  -3.301   9.739  0.00  0.00    +0.056 S 
ATOM     30  O   UNL     1      -1.477  -2.851  10.418  0.00  0.00    -0.153 OA
ATOM     31  O   UNL     1      -0.117  -4.662   9.380  0.00  0.00    -0.153 OA
BRANCH  29  32
ATOM     32  N   UNL     1       0.980  -2.871  10.681  0.00  0.00    -0.204 NA
ATOM     33  H   UNL     1       1.615  -2.211  10.362  0.00  0.00    +0.144 HD
ATOM     34  H   UNL     1       1.102  -3.279  11.553  0.00  0.00    +0.144 HD
ENDBRANCH  29  32
ENDBRANCH  26  29
ENDBRANCH  12  23
TORSDOF 5
