REMARK  Name = CHEMBL211508
REMARK  7 active torsions:
REMARK  status: ('A' for Active; 'I' for Inactive)
REMARK    1  A    between atoms: C_1  and  O_2
REMARK    2  A    between atoms: O_2  and  C_3
REMARK    3  A    between atoms: C_8  and  O_9
REMARK    4  A    between atoms: O_9  and  C_10
REMARK    5  A    between atoms: C_16  and  C_20
REMARK    6  A    between atoms: C_25  and  N_29
REMARK    7  A    between atoms: C_32  and  N_35
REMARK                            x       y       z     vdW  Elec       q    Type
REMARK                         _______ _______ _______ _____ _____    ______ ____
ROOT
ATOM      1  C   UNL     1      -1.356  -7.070  -3.120  0.00  0.00    +0.158 A 
ATOM      2  N   UNL     1      -1.711  -5.924  -3.657  0.00  0.00    -0.226 NA
ATOM      3  C   UNL     1      -2.331  -6.149  -4.841  0.00  0.00    +0.090 A 
ATOM      4  C   UNL     1      -2.897  -5.303  -5.802  0.00  0.00    +0.032 A 
ATOM      5  C   UNL     1      -3.466  -5.831  -6.925  0.00  0.00    +0.025 A 
ATOM      6  C   UNL     1      -3.492  -7.210  -7.127  0.00  0.00    +0.032 A 
ATOM      7  C   UNL     1      -2.938  -8.065  -6.187  0.00  0.00    +0.051 A 
ATOM      8  C   UNL     1      -2.356  -7.542  -5.042  0.00  0.00    +0.068 A 
ATOM      9  N   UNL     1      -1.729  -8.103  -3.945  0.00  0.00    -0.337 N 
ATOM     10  H   UNL     1      -1.582  -9.049  -3.787  0.00  0.00    +0.167 HD
ENDROOT
BRANCH   1  17
ATOM     11  C   UNL     1       0.176  -4.112   0.108  0.00  0.00    +0.129 A 
ATOM     12  C   UNL     1       0.790  -4.774   1.178  0.00  0.00    +0.048 A 
ATOM     13  C   UNL     1       0.898  -6.126   1.216  0.00  0.00    +0.034 A 
ATOM     14  C   UNL     1       0.381  -6.896   0.153  0.00  0.00    +0.093 A 
ATOM     15  C   UNL     1      -0.264  -6.197  -0.970  0.00  0.00    +0.034 A 
ATOM     16  C   UNL     1      -0.349  -4.799  -0.948  0.00  0.00    +0.058 A 
ATOM     17  C   UNL     1      -0.660  -7.223  -1.837  0.00  0.00    +0.109 A 
ATOM     18  N   UNL     1      -0.272  -8.388  -1.253  0.00  0.00    -0.273 N 
ATOM     19  N   UNL     1       0.314  -8.184  -0.129  0.00  0.00    -0.173 NA
ATOM     20  H   UNL     1      -0.421  -9.266  -1.638  0.00  0.00    +0.189 HD
BRANCH  11  21
ATOM     21  O   UNL     1       0.097  -2.756   0.124  0.00  0.00    -0.452 OA
BRANCH  21  27
ATOM     22  C   UNL     1       1.166  -0.660  -0.260  0.00  0.00    +0.162 A 
ATOM     23  C   UNL     1       2.317   0.058  -0.545  0.00  0.00    +0.049 A 
ATOM     24  C   UNL     1       3.515  -0.604  -0.735  0.00  0.00    +0.004 A 
ATOM     25  C   UNL     1       3.570  -1.983  -0.643  0.00  0.00    +0.004 A 
ATOM     26  C   UNL     1       2.426  -2.705  -0.359  0.00  0.00    +0.050 A 
ATOM     27  C   UNL     1       1.222  -2.047  -0.161  0.00  0.00    +0.170 A 
BRANCH  22  29
ATOM     28  C   UNL     1       0.005   1.414  -0.189  0.00  0.00    +0.277 C 
ATOM     29  O   UNL     1      -0.013  -0.010  -0.072  0.00  0.00    -0.491 OA
ENDBRANCH  22  29
ENDBRANCH  21  27
ENDBRANCH  11  21
ENDBRANCH   1  17
BRANCH   6  30
ATOM     30  N   UNL     1      -4.080  -7.734  -8.282  0.00  0.00    -0.330 N 
ATOM     31  C   UNL     1      -4.240  -9.184  -8.449  0.00  0.00    +0.103 C 
ATOM     32  C   UNL     1      -5.709  -9.485  -8.765  0.00  0.00    +0.004 C 
ATOM     33  C   UNL     1      -6.144  -8.661  -9.979  0.00  0.00    -0.066 C 
ATOM     34  C   UNL     1      -6.014  -7.170  -9.659  0.00  0.00    +0.004 C 
ATOM     35  C   UNL     1      -4.555  -6.843  -9.350  0.00  0.00    +0.103 C 
BRANCH  33  36
ATOM     36  N   UNL     1      -7.542  -8.971 -10.306  0.00  0.00    +0.382 N 
ATOM     37  C   UNL     1      -7.667 -10.403 -10.606  0.00  0.00    -0.078 C 
ATOM     38  C   UNL     1      -9.135 -10.747 -10.868  0.00  0.00    -0.019 C 
ATOM     39  C   UNL     1      -9.641  -9.928 -12.059  0.00  0.00    -0.004 C 
ATOM     40  C   UNL     1      -9.437  -8.439 -11.765  0.00  0.00    -0.019 C 
ATOM     41  C   UNL     1      -7.958  -8.180 -11.470  0.00  0.00    -0.078 C 
ATOM     42  H   UNL     1      -8.129  -8.742  -9.518  0.00  0.00    -0.081 HD
ENDBRANCH  33  36
ENDBRANCH   6  30
TORSDOF 6
