REMARK  Name = CHEMBL607707
REMARK  12 active torsions:
REMARK  status: ('A' for Active; 'I' for Inactive)
REMARK    1  A    between atoms: C_1  and  C_2
REMARK    2  A    between atoms: C_2  and  O_3
REMARK    3  A    between atoms: O_3  and  C_4
REMARK    4  A    between atoms: C_9  and  N_10
REMARK    5  A    between atoms: C_11  and  C_13
REMARK    6  A    between atoms: C_14  and  C_15
REMARK    7  A    between atoms: C_15  and  N_16
REMARK    8  A    between atoms: N_16  and  C_17
REMARK    9  A    between atoms: N_16  and  C_18
REMARK   10  A    between atoms: C_19  and  N_25
REMARK   11  A    between atoms: C_20  and  C_23
REMARK   12  A    between atoms: N_25  and  C_26
REMARK                            x       y       z     vdW  Elec       q    Type
REMARK                         _______ _______ _______ _____ _____    ______ ____
ROOT
ATOM      1  C   UNL     1       0.573  -3.770   2.154  0.00  0.00    +0.144 A 
ATOM      2  C   UNL     1       1.030  -4.089   0.896  0.00  0.00    +0.076 A 
ATOM      3  C   UNL     1       0.188  -4.758  -0.006  0.00  0.00    +0.076 A 
ATOM      4  C   UNL     1      -1.127  -5.096   0.396  0.00  0.00    +0.025 A 
ATOM      5  C   UNL     1      -1.575  -4.763   1.682  0.00  0.00    +0.039 A 
ATOM      6  C   UNL     1      -0.729  -4.112   2.551  0.00  0.00    +0.077 A 
ATOM      7  C   UNL     1      -1.972  -5.771  -0.517  0.00  0.00    +0.060 A 
ATOM      8  C   UNL     1      -1.456  -6.072  -1.787  0.00  0.00    +0.091 A 
ATOM      9  C   UNL     1      -0.139  -5.698  -2.099  0.00  0.00    +0.132 A 
ATOM     10  N   UNL     1       0.621  -5.075  -1.235  0.00  0.00    -0.253 NA
ENDROOT
BRANCH   6  11
ATOM     11  N   UNL     1      -1.171  -3.783   3.838  0.00  0.00    -0.279 N 
ATOM     12  C   UNL     1      -2.481  -3.556   4.063  0.00  0.00    +0.241 C 
ATOM     13  O   UNL     1      -3.291  -3.737   3.173  0.00  0.00    -0.271 OA
ATOM     14  H   UNL     1      -0.536  -3.719   4.568  0.00  0.00    +0.155 HD
BRANCH  12  15
ATOM     15  C   UNL     1      -2.930  -3.090   5.383  0.00  0.00    +0.064 C 
ATOM     16  C   UNL     1      -4.223  -2.866   5.605  0.00  0.00    -0.007 C 
BRANCH  16  17
ATOM     17  C   UNL     1      -4.683  -2.389   6.958  0.00  0.00    +0.111 C 
BRANCH  17  18
ATOM     18  N   UNL     1      -5.455  -1.148   6.803  0.00  0.00    -0.305 NA
ATOM     19  C   UNL     1      -6.118  -0.780   8.061  0.00  0.00    +0.104 C 
ATOM     20  C   UNL     1      -4.602  -0.055   6.318  0.00  0.00    +0.104 C 
ENDBRANCH  17  18
ENDBRANCH  16  17
ENDBRANCH  12  15
ENDBRANCH   6  11
BRANCH   8  21
ATOM     21  C   UNL     1      -2.264  -6.753  -2.753  0.00  0.00    +0.103 C 
ATOM     22  N   UNL     1      -2.905  -7.294  -3.519  0.00  0.00    -0.191 NA
ENDBRANCH   8  21
BRANCH   7  23
ATOM     23  N   UNL     1      -3.261  -6.121  -0.170  0.00  0.00    -0.313 N 
ATOM     24  H   UNL     1      -3.968  -5.457  -0.197  0.00  0.00    +0.152 HD
BRANCH  23  25
ATOM     25  C   UNL     1      -3.548  -7.433   0.220  0.00  0.00    +0.033 A 
ATOM     26  C   UNL     1      -2.522  -8.280   0.620  0.00  0.00    +0.026 A 
ATOM     27  C   UNL     1      -2.808  -9.575   1.006  0.00  0.00    +0.041 A 
ATOM     28  C   UNL     1      -4.115 -10.030   0.994  0.00  0.00    +0.142 A 
ATOM     29  C   UNL     1      -5.141  -9.188   0.595  0.00  0.00    +0.078 A 
ATOM     30  C   UNL     1      -4.860  -7.889   0.214  0.00  0.00    +0.046 A 
ATOM     31 CL   UNL     1      -6.779  -9.762   0.580  0.00  0.00    -0.081 Cl
ATOM     32  F   UNL     1      -4.392 -11.297   1.371  0.00  0.00    -0.204 F 
ENDBRANCH  23  25
ENDBRANCH   7  23
BRANCH   1  33
ATOM     33  O   UNL     1       1.393  -3.123   3.022  0.00  0.00    -0.490 OA
BRANCH  33  35
ATOM     34  C   UNL     1       3.477  -2.081   3.666  0.00  0.00    +0.048 C 
ATOM     35  C   UNL     1       2.706  -2.803   2.558  0.00  0.00    +0.226 C 
ENDBRANCH  33  35
ENDBRANCH   1  33
TORSDOF 9
