REMARK  Name = CHEMBL211154
REMARK  6 active torsions:
REMARK  status: ('A' for Active; 'I' for Inactive)
REMARK    1  A    between atoms: C_3  and  C_6
REMARK    2  A    between atoms: C_6  and  N_7
REMARK    3  A    between atoms: N_7  and  C_8
REMARK    4  A    between atoms: C_14  and  C_18
REMARK    5  A    between atoms: C_23  and  N_27
REMARK    6  A    between atoms: C_30  and  N_33
REMARK                            x       y       z     vdW  Elec       q    Type
REMARK                         _______ _______ _______ _____ _____    ______ ____
ROOT
ATOM      1  C   UNL     1       7.707   0.506   5.656  0.00  0.00    +0.158 A 
ATOM      2  N   UNL     1       6.459   0.507   6.068  0.00  0.00    -0.226 NA
ATOM      3  C   UNL     1       6.426   0.492   7.423  0.00  0.00    +0.090 A 
ATOM      4  C   UNL     1       5.382   0.486   8.356  0.00  0.00    +0.032 A 
ATOM      5  C   UNL     1       5.662   0.470   9.692  0.00  0.00    +0.025 A 
ATOM      6  C   UNL     1       6.982   0.460  10.141  0.00  0.00    +0.032 A 
ATOM      7  C   UNL     1       8.029   0.466   9.233  0.00  0.00    +0.051 A 
ATOM      8  C   UNL     1       7.758   0.481   7.873  0.00  0.00    +0.068 A 
ATOM      9  N   UNL     1       8.551   0.485   6.740  0.00  0.00    -0.337 N 
ATOM     10  H   UNL     1       9.520   0.475   6.715  0.00  0.00    +0.167 HD
ENDROOT
BRANCH   1  17
ATOM     11  C   UNL     1       5.476   0.576   1.589  0.00  0.00    +0.028 A 
ATOM     12  C   UNL     1       6.363   0.582   0.503  0.00  0.00    +0.025 A 
ATOM     13  C   UNL     1       7.708   0.568   0.680  0.00  0.00    +0.032 A 
ATOM     14  C   UNL     1       8.240   0.547   1.986  0.00  0.00    +0.093 A 
ATOM     15  C   UNL     1       7.307   0.541   3.123  0.00  0.00    +0.032 A 
ATOM     16  C   UNL     1       5.928   0.562   2.878  0.00  0.00    +0.035 A 
ATOM     17  C   UNL     1       8.134   0.519   4.253  0.00  0.00    +0.109 A 
ATOM     18  N   UNL     1       9.414   0.513   3.789  0.00  0.00    -0.273 N 
ATOM     19  N   UNL     1       9.454   0.529   2.505  0.00  0.00    -0.173 NA
ATOM     20  H   UNL     1      10.199   0.500   4.358  0.00  0.00    +0.189 HD
BRANCH  11  21
ATOM     21  N   UNL     1       4.100   0.590   1.347  0.00  0.00    -0.337 N 
ATOM     22  H   UNL     1       3.477   0.590   2.090  0.00  0.00    +0.147 HD
BRANCH  21  23
ATOM     23  C   UNL     1       3.598   0.606  -0.029  0.00  0.00    +0.176 C 
BRANCH  23  26
ATOM     24  C   UNL     1      -0.026   1.271   0.011  0.00  0.00    +0.041 A 
ATOM     25  C   UNL     1       1.315   1.718   0.001  0.00  0.00    +0.046 A 
ATOM     26  C   UNL     1       2.091   0.619  -0.015  0.00  0.00    +0.122 A 
ATOM     27  O   UNL     1       1.296  -0.463  -0.016  0.00  0.00    -0.466 OA
ATOM     28  C   UNL     1       0.011  -0.074  -0.001  0.00  0.00    +0.195 A 
ENDBRANCH  23  26
ENDBRANCH  21  23
ENDBRANCH  11  21
ENDBRANCH   1  17
BRANCH   6  29
ATOM     29  N   UNL     1       7.250   0.445  11.513  0.00  0.00    -0.330 N 
ATOM     30  C   UNL     1       8.628   0.312  12.005  0.00  0.00    +0.103 C 
ATOM     31  C   UNL     1       8.919   1.464  12.971  0.00  0.00    +0.004 C 
ATOM     32  C   UNL     1       7.858   1.481  14.073  0.00  0.00    -0.066 C 
ATOM     33  C   UNL     1       6.478   1.710  13.451  0.00  0.00    +0.004 C 
ATOM     34  C   UNL     1       6.160   0.567  12.490  0.00  0.00    +0.103 C 
BRANCH  32  35
ATOM     35  N   UNL     1       8.153   2.564  15.021  0.00  0.00    +0.382 N 
ATOM     36  C   UNL     1       9.479   2.348  15.611  0.00  0.00    -0.078 C 
ATOM     37  C   UNL     1       9.826   3.515  16.538  0.00  0.00    -0.019 C 
ATOM     38  C   UNL     1       8.778   3.605  17.651  0.00  0.00    -0.004 C 
ATOM     39  C   UNL     1       7.391   3.756  17.021  0.00  0.00    -0.019 C 
ATOM     40  C   UNL     1       7.134   2.579  16.077  0.00  0.00    -0.078 C 
ATOM     41  H   UNL     1       8.144   3.448  14.533  0.00  0.00    -0.081 HD
ENDBRANCH  32  35
ENDBRANCH   6  29
TORSDOF 6
