REMARK  Name = CHEMBL481968
REMARK  8 active torsions:
REMARK  status: ('A' for Active; 'I' for Inactive)
REMARK    1  A    between atoms: C_3  and  N_9
REMARK    2  A    between atoms: N_9  and  C_10
REMARK    3  A    between atoms: C_11  and  C_30
REMARK    4  A    between atoms: C_13  and  C_18
REMARK    5  A    between atoms: N_19  and  N_20
REMARK    6  A    between atoms: C_21  and  C_23
REMARK    7  A    between atoms: C_26  and  C_28
REMARK    8  A    between atoms: C_28  and  O_29
REMARK                            x       y       z     vdW  Elec       q    Type
REMARK                         _______ _______ _______ _____ _____    ______ ____
ROOT
ATOM      1  C   UNL     1       3.568   3.512  -0.112  0.00  0.00    +0.084 A 
ATOM      2  C   UNL     1       4.714   4.201  -0.550  0.00  0.00    +0.088 A 
ATOM      3  C   UNL     1       4.689   5.593  -0.654  0.00  0.00    +0.029 A 
ATOM      4  C   UNL     1       3.531   6.290  -0.322  0.00  0.00    +0.033 A 
ATOM      5  C   UNL     1       2.393   5.595   0.114  0.00  0.00    +0.169 A 
ATOM      6  C   UNL     1       2.414   4.218   0.212  0.00  0.00    +0.181 A 
ATOM      7  F   UNL     1       1.313   3.555   0.627  0.00  0.00    -0.200 F 
ATOM      8  F   UNL     1       1.270   6.275   0.435  0.00  0.00    -0.202 F 
ENDROOT
BRANCH   2   9
ATOM      9  C   UNL     1       5.933   3.458  -0.898  0.00  0.00    +0.388 C 
ATOM     10  O   UNL     1       6.958   4.063  -1.185  0.00  0.00    -0.241 OA
ATOM     11  O   UNL     1       5.924   2.234  -0.901  0.00  0.00    -0.241 OA
ENDBRANCH   2   9
BRANCH   1  12
ATOM     12  N   UNL     1       3.588   2.128  -0.007  0.00  0.00    -0.309 N 
ATOM     13  H   UNL     1       3.951   1.707   0.788  0.00  0.00    +0.152 HD
BRANCH  12  16
ATOM     14  C   UNL     1       1.966   1.160  -3.162  0.00  0.00    +0.016 A 
ATOM     15  C   UNL     1       2.463   1.940  -2.135  0.00  0.00    +0.027 A 
ATOM     16  C   UNL     1       3.083   1.341  -1.048  0.00  0.00    +0.067 A 
ATOM     17  C   UNL     1       3.203  -0.044  -0.995  0.00  0.00    +0.145 A 
ATOM     18  C   UNL     1       2.704  -0.818  -2.025  0.00  0.00    +0.054 A 
ATOM     19  C   UNL     1       2.086  -0.217  -3.107  0.00  0.00    +0.016 A 
ATOM     20  I   UNL     1       1.331  -1.394  -4.667  0.00  0.00    -0.044 I 
ATOM     21  F   UNL     1       3.807  -0.631   0.062  0.00  0.00    -0.204 F 
ENDBRANCH  12  16
ENDBRANCH   1  12
BRANCH   4  22
ATOM     22  C   UNL     1       3.500   7.760  -0.430  0.00  0.00    +0.141 C 
ATOM     23  N   UNL     1       2.420   8.411  -0.120  0.00  0.00    -0.187 NA
BRANCH  23  24
ATOM     24  N   UNL     1       2.390   9.808  -0.222  0.00  0.00    -0.200 N 
ATOM     25  C   UNL     1       1.269  10.483   0.099  0.00  0.00    +0.299 C 
ATOM     26  O   UNL     1       0.282   9.880   0.477  0.00  0.00    -0.265 OA
ATOM     27  H   UNL     1       3.177  10.289  -0.524  0.00  0.00    +0.178 HD
BRANCH  25  28
ATOM     28  C   UNL     1       1.239  11.945  -0.008  0.00  0.00    +0.191 A 
ATOM     29  C   UNL     1       0.175  12.750   0.289  0.00  0.00    +0.055 A 
ATOM     30  C   UNL     1       0.586  14.069   0.043  0.00  0.00    +0.048 A 
ATOM     31  C   UNL     1       1.866  14.013  -0.387  0.00  0.00    +0.131 A 
ATOM     32  O   UNL     1       2.257  12.732  -0.411  0.00  0.00    -0.453 OA
BRANCH  31  33
ATOM     33  C   UNL     1       2.715  15.198  -0.771  0.00  0.00    +0.230 C 
BRANCH  33  34
ATOM     34  O   UNL     1       3.416  15.674   0.380  0.00  0.00    -0.387 OA
ATOM     35  H   UNL     1       3.984  16.438   0.207  0.00  0.00    +0.210 HD
ENDBRANCH  33  34
ENDBRANCH  31  33
ENDBRANCH  25  28
ENDBRANCH  23  24
ENDBRANCH   4  22
TORSDOF 8
