REMARK  Name = CHEMBL1213974
REMARK  12 active torsions:
REMARK  status: ('A' for Active; 'I' for Inactive)
REMARK    1  A    between atoms: C_1  and  C_2
REMARK    2  A    between atoms: C_5  and  N_8
REMARK    3  A    between atoms: C_9  and  N_17
REMARK    4  A    between atoms: C_11  and  C_13
REMARK    5  A    between atoms: C_13  and  C_14
REMARK    6  A    between atoms: C_13  and  C_15
REMARK    7  A    between atoms: C_13  and  C_16
REMARK    8  A    between atoms: N_20  and  C_21
REMARK    9  A    between atoms: C_24  and  O_27
REMARK   10  A    between atoms: O_27  and  C_28
REMARK   11  A    between atoms: C_32  and  C_34
REMARK   12  A    between atoms: N_36  and  C_37
REMARK                            x       y       z     vdW  Elec       q    Type
REMARK                         _______ _______ _______ _____ _____    ______ ____
ROOT
ATOM      1  N   UNL     1       0.409  -5.290   2.198  0.00  0.00    -0.254 N 
ATOM      2  C   UNL     1       1.077  -6.086   3.056  0.00  0.00    +0.309 C 
ATOM      3  O   UNL     1       0.589  -7.141   3.412  0.00  0.00    -0.252 OA
ATOM      4  N   UNL     1       2.287  -5.713   3.519  0.00  0.00    -0.269 N 
ATOM      5  H   UNL     1       0.799  -4.449   1.913  0.00  0.00    +0.158 HD
ATOM      6  H   UNL     1       2.712  -4.913   3.173  0.00  0.00    +0.156 HD
ENDROOT
BRANCH   4   7
ATOM      7  C   UNL     1       2.929  -6.480   4.500  0.00  0.00    +0.035 A 
ATOM      8  C   UNL     1       3.691  -5.858   5.480  0.00  0.00    +0.027 A 
ATOM      9  C   UNL     1       4.323  -6.615   6.446  0.00  0.00    +0.048 A 
ATOM     10  C   UNL     1       4.198  -7.997   6.438  0.00  0.00    +0.129 A 
ATOM     11  C   UNL     1       3.437  -8.619   5.458  0.00  0.00    +0.048 A 
ATOM     12  C   UNL     1       2.799  -7.862   4.495  0.00  0.00    +0.027 A 
BRANCH  10  13
ATOM     13  O   UNL     1       4.822  -8.741   7.389  0.00  0.00    -0.456 OA
BRANCH  13  14
ATOM     14  C   UNL     1       5.957  -9.399   7.040  0.00  0.00    +0.132 A 
ATOM     15  C   UNL     1       6.578 -10.271   7.931  0.00  0.00    +0.066 A 
ATOM     16  C   UNL     1       7.733 -10.925   7.542  0.00  0.00    +0.115 A 
ATOM     17  N   UNL     1       8.250 -10.735   6.347  0.00  0.00    -0.250 NA
ATOM     18  C   UNL     1       7.692  -9.913   5.466  0.00  0.00    +0.129 A 
ATOM     19  C   UNL     1       6.525  -9.224   5.781  0.00  0.00    +0.079 A 
BRANCH  18  20
ATOM     20  C   UNL     1       8.314  -9.732   4.133  0.00  0.00    +0.262 C 
ATOM     21  O   UNL     1       7.807  -8.982   3.323  0.00  0.00    -0.269 OA
ATOM     22  N   UNL     1       9.441 -10.401   3.820  0.00  0.00    -0.313 N 
ATOM     23  C   UNL     1      10.056 -10.223   2.502  0.00  0.00    +0.128 C 
ATOM     24  H   UNL     1       9.845 -11.000   4.467  0.00  0.00    +0.149 HD
ENDBRANCH  18  20
ENDBRANCH  13  14
ENDBRANCH  10  13
ENDBRANCH   4   7
BRANCH   1  26
ATOM     25  N   UNL     1      -1.624  -4.976   0.853  0.00  0.00    -0.218 N 
ATOM     26  C   UNL     1      -0.842  -5.676   1.718  0.00  0.00    +0.130 A 
ATOM     27  C   UNL     1      -1.505  -6.824   2.030  0.00  0.00    +0.069 A 
ATOM     28  C   UNL     1      -2.719  -6.820   1.337  0.00  0.00    +0.071 A 
ATOM     29  N   UNL     1      -2.794  -5.716   0.639  0.00  0.00    -0.169 NA
BRANCH  25  34
ATOM     30  C   UNL     1      -0.381   0.056  -1.458  0.00  0.00    +0.044 C 
ATOM     31  C   UNL     1      -0.711  -1.280  -0.845  0.00  0.00    -0.050 A 
ATOM     32  C   UNL     1      -1.421  -2.217  -1.573  0.00  0.00    +0.005 A 
ATOM     33  C   UNL     1      -1.725  -3.443  -1.013  0.00  0.00    +0.028 A 
ATOM     34  C   UNL     1      -1.317  -3.733   0.282  0.00  0.00    +0.067 A 
ATOM     35  C   UNL     1      -0.604  -2.791   1.010  0.00  0.00    +0.028 A 
ATOM     36  C   UNL     1      -0.299  -1.569   0.444  0.00  0.00    +0.005 A 
ENDBRANCH  25  34
BRANCH  28  37
ATOM     37  C   UNL     1      -3.767  -7.902   1.391  0.00  0.00    +0.006 C 
ATOM     38  C   UNL     1      -4.520  -7.817   2.720  0.00  0.00    +0.017 C 
ATOM     39  C   UNL     1      -4.751  -7.715   0.235  0.00  0.00    +0.017 C 
ATOM     40  C   UNL     1      -3.094  -9.270   1.272  0.00  0.00    +0.017 C 
ENDBRANCH  28  37
ENDBRANCH   1  26
TORSDOF 7
