REMARK  Name = CHEMBL585666
REMARK  10 active torsions:
REMARK  status: ('A' for Active; 'I' for Inactive)
REMARK    1  A    between atoms: C_1  and  N_2
REMARK    2  A    between atoms: C_6  and  C_9
REMARK    3  A    between atoms: N_21  and  C_22
REMARK    4  A    between atoms: C_25  and  O_28
REMARK    5  A    between atoms: O_28  and  C_29
REMARK    6  A    between atoms: C_30  and  O_39
REMARK    7  A    between atoms: C_31  and  O_38
REMARK    8  A    between atoms: C_32  and  O_37
REMARK    9  A    between atoms: C_33  and  C_35
REMARK   10  A    between atoms: C_35  and  O_36
REMARK                            x       y       z     vdW  Elec       q    Type
REMARK                         _______ _______ _______ _____ _____    ______ ____
ROOT
ATOM      1  C   UNL     1       0.050   1.229   0.103  0.00  0.00    +0.154 C 
ATOM      2  N   UNL     1      -0.056   0.017  -0.713  0.00  0.00    -0.295 N 
ATOM      3  C   UNL     1      -1.283  -0.565  -0.907  0.00  0.00    +0.148 A 
ATOM      4  C   UNL     1      -1.403  -1.733  -1.690  0.00  0.00    +0.037 A 
ATOM      5  C   UNL     1      -0.258  -2.313  -2.282  0.00  0.00    +0.027 A 
ATOM      6  C   UNL     1       0.962  -1.725  -2.083  0.00  0.00    +0.050 A 
ATOM      7  C   UNL     1       1.051  -0.510  -1.269  0.00  0.00    +0.260 A 
ATOM      8  O   UNL     1       2.132   0.022  -1.091  0.00  0.00    -0.267 OA
ATOM      9  C   UNL     1      -2.676  -2.297  -1.864  0.00  0.00    +0.126 A 
ATOM     10  N   UNL     1      -3.710  -1.713  -1.289  0.00  0.00    -0.222 NA
ATOM     11  C   UNL     1      -3.559  -0.614  -0.557  0.00  0.00    +0.221 A 
ATOM     12  N   UNL     1      -2.379  -0.045  -0.365  0.00  0.00    -0.196 NA
ATOM     13  N   UNL     1      -4.675  -0.043   0.022  0.00  0.00    -0.284 N 
ATOM     14  H   UNL     1      -4.599   0.803   0.491  0.00  0.00    +0.155 HD
ENDROOT
BRANCH   6  15
ATOM     15  C   UNL     1       2.182  -2.308  -2.690  0.00  0.00    +0.024 A 
ATOM     16  C   UNL     1       2.921  -3.266  -1.995  0.00  0.00    +0.050 A 
ATOM     17  C   UNL     1       4.056  -3.806  -2.567  0.00  0.00    +0.021 A 
ATOM     18  C   UNL     1       4.461  -3.400  -3.825  0.00  0.00    +0.003 A 
ATOM     19  C   UNL     1       3.732  -2.450  -4.520  0.00  0.00    +0.021 A 
ATOM     20  C   UNL     1       2.592  -1.907  -3.962  0.00  0.00    +0.050 A 
ATOM     21 CL   UNL     1       1.676  -0.721  -4.838  0.00  0.00    -0.083 Cl
ATOM     22 CL   UNL     1       2.415  -3.777  -0.415  0.00  0.00    -0.083 Cl
ENDBRANCH   6  15
BRANCH  13  23
ATOM     23  C   UNL     1      -5.917  -0.685  -0.066  0.00  0.00    +0.034 A 
ATOM     24  C   UNL     1      -5.983  -2.072  -0.062  0.00  0.00    +0.027 A 
ATOM     25  C   UNL     1      -7.208  -2.704  -0.149  0.00  0.00    +0.047 A 
ATOM     26  C   UNL     1      -8.371  -1.954  -0.242  0.00  0.00    +0.124 A 
ATOM     27  C   UNL     1      -8.305  -0.569  -0.247  0.00  0.00    +0.047 A 
ATOM     28  C   UNL     1      -7.082   0.066  -0.153  0.00  0.00    +0.027 A 
BRANCH  26  29
ATOM     29  O   UNL     1      -9.576  -2.578  -0.328  0.00  0.00    -0.461 OA
BRANCH  29  30
ATOM     30  C   UNL     1     -10.733  -1.743  -0.420  0.00  0.00    +0.339 C 
ATOM     31  C   UNL     1     -11.993  -2.598  -0.259  0.00  0.00    +0.214 C 
ATOM     32  C   UNL     1     -13.229  -1.707  -0.420  0.00  0.00    +0.180 C 
ATOM     33  C   UNL     1     -13.169  -1.011  -1.783  0.00  0.00    +0.177 C 
ATOM     34  C   UNL     1     -11.864  -0.217  -1.885  0.00  0.00    +0.179 C 
ATOM     35  O   UNL     1     -10.756  -1.100  -1.696  0.00  0.00    -0.331 OA
BRANCH  33  36
ATOM     36  O   UNL     1     -14.280  -0.121  -1.913  0.00  0.00    -0.386 OA
ATOM     37  H   UNL     1     -15.141  -0.556  -1.853  0.00  0.00    +0.210 HD
ENDBRANCH  33  36
BRANCH  32  38
ATOM     38  O   UNL     1     -14.409  -2.509  -0.344  0.00  0.00    -0.386 OA
ATOM     39  H   UNL     1     -14.508  -2.985   0.492  0.00  0.00    +0.210 HD
ENDBRANCH  32  38
BRANCH  31  40
ATOM     40  O   UNL     1     -12.008  -3.620  -1.258  0.00  0.00    -0.383 OA
ATOM     41  H   UNL     1     -11.250  -4.219  -1.219  0.00  0.00    +0.210 HD
ENDBRANCH  31  40
BRANCH  34  42
ATOM     42  C   UNL     1     -11.769   0.433  -3.267  0.00  0.00    +0.190 C 
BRANCH  42  43
ATOM     43  O   UNL     1     -10.609   1.266  -3.322  0.00  0.00    -0.392 OA
ATOM     44  H   UNL     1     -10.486   1.712  -4.171  0.00  0.00    +0.210 HD
ENDBRANCH  42  43
ENDBRANCH  34  42
ENDBRANCH  29  30
ENDBRANCH  26  29
ENDBRANCH  13  23
TORSDOF 9
