REMARK  Name = CHEMBL122182
REMARK  3 active torsions:
REMARK  status: ('A' for Active; 'I' for Inactive)
REMARK    1  A    between atoms: C_3  and  N_8
REMARK    2  A    between atoms: N_19  and  C_20
REMARK    3  A    between atoms: C_23  and  O_26
REMARK                            x       y       z     vdW  Elec       q    Type
REMARK                         _______ _______ _______ _____ _____    ______ ____
ROOT
ATOM      1  N   UNL     1       3.605   2.115  -0.105  0.00  0.00    -0.299 N 
ATOM      2  C   UNL     1       4.803   1.449   0.074  0.00  0.00    +0.139 A 
ATOM      3  C   UNL     1       6.003   2.159   0.245  0.00  0.00    +0.100 A 
ATOM      4  C   UNL     1       6.370   3.571   0.291  0.00  0.00    +0.157 A 
ATOM      5  N   UNL     1       7.664   3.634   0.480  0.00  0.00    -0.156 NA
ATOM      6  H   UNL     1       9.133   2.131   0.703  0.00  0.00    +0.191 HD
ATOM      7  N   UNL     1       8.197   2.343   0.565  0.00  0.00    -0.258 N 
ATOM      8  C   UNL     1       7.196   1.431   0.424  0.00  0.00    +0.163 A 
ATOM      9  N   UNL     1       7.137   0.099   0.423  0.00  0.00    -0.216 NA
ATOM     10  C   UNL     1       5.990  -0.522   0.258  0.00  0.00    +0.225 A 
ATOM     11  N   UNL     1       4.847   0.120   0.093  0.00  0.00    -0.220 NA
ATOM     12  N   UNL     1       5.501   4.656   0.158  0.00  0.00    -0.297 N 
ATOM     13  H   UNL     1       3.595   3.081  -0.191  0.00  0.00    +0.154 HD
ATOM     14  H   UNL     1       4.545   4.506   0.101  0.00  0.00    +0.154 HD
ENDROOT
BRANCH   1  17
ATOM     15  C   UNL     1       1.074  -0.476   0.524  0.00  0.00    +0.003 A 
ATOM     16  C   UNL     1       2.259   0.232   0.581  0.00  0.00    +0.023 A 
ATOM     17  C   UNL     1       2.407   1.397  -0.161  0.00  0.00    +0.034 A 
ATOM     18  C   UNL     1       1.363   1.847  -0.959  0.00  0.00    +0.043 A 
ATOM     19  C   UNL     1       0.180   1.134  -1.011  0.00  0.00    +0.043 A 
ATOM     20  C   UNL     1       0.036  -0.027  -0.271  0.00  0.00    +0.020 A 
ATOM     21 CL   UNL     1      -1.127   1.695  -2.007  0.00  0.00    -0.083 Cl
ENDBRANCH   1  17
BRANCH  12  22
ATOM     22  C   UNL     1       6.011   5.958   0.106  0.00  0.00    +0.033 A 
ATOM     23  C   UNL     1       7.283   6.187  -0.402  0.00  0.00    +0.027 A 
ATOM     24  C   UNL     1       7.784   7.473  -0.453  0.00  0.00    +0.047 A 
ATOM     25  C   UNL     1       7.018   8.535   0.003  0.00  0.00    +0.117 A 
ATOM     26  C   UNL     1       5.748   8.307   0.511  0.00  0.00    +0.047 A 
ATOM     27  C   UNL     1       5.242   7.023   0.558  0.00  0.00    +0.027 A 
BRANCH  25  28
ATOM     28  O   UNL     1       7.513   9.801  -0.047  0.00  0.00    -0.507 OA
ATOM     29  H   UNL     1       7.315  10.268  -0.870  0.00  0.00    +0.292 HD
ENDBRANCH  25  28
ENDBRANCH  12  22
TORSDOF 3
