REMARK  Name = CHEMBL1171960
REMARK  8 active torsions:
REMARK  status: ('A' for Active; 'I' for Inactive)
REMARK    1  A    between atoms: C_4  and  C_7
REMARK    2  A    between atoms: C_7  and  C_9
REMARK    3  A    between atoms: C_9  and  S_10
REMARK    4  A    between atoms: S_10  and  C_11
REMARK    5  A    between atoms: C_12  and  C_25
REMARK    6  A    between atoms: C_13  and  C_20
REMARK    7  A    between atoms: C_14  and  C_18
REMARK    8  A    between atoms: C_15  and  N_17
REMARK                            x       y       z     vdW  Elec       q    Type
REMARK                         _______ _______ _______ _____ _____    ______ ____
ROOT
ATOM      1  C   UNL     1       5.297  -4.519  -0.075  0.00  0.00    +0.117 A 
ATOM      2  C   UNL     1       6.463  -5.307  -0.086  0.00  0.00    +0.093 A 
ATOM      3  C   UNL     1       6.338  -6.712  -0.092  0.00  0.00    +0.023 A 
ATOM      4  C   UNL     1       5.038  -7.261  -0.087  0.00  0.00    +0.100 A 
ATOM      5  C   UNL     1       3.932  -6.393  -0.077  0.00  0.00    +0.136 A 
ATOM      6  N   UNL     1       4.097  -5.079  -0.066  0.00  0.00    -0.224 NA
ENDROOT
BRANCH   3   7
ATOM      7  C   UNL     1       7.530  -7.582  -0.103  0.00  0.00    -0.008 A 
ATOM      8  C   UNL     1       7.809  -8.405  -1.197  0.00  0.00    +0.016 A 
ATOM      9  C   UNL     1       8.925  -9.162  -1.109  0.00  0.00    +0.046 A 
ATOM     10  S   UNL     1       9.565  -8.716   0.493  0.00  0.00    -0.104 S 
ATOM     11  C   UNL     1       8.396  -7.601   0.953  0.00  0.00    +0.053 A 
ENDBRANCH   3   7
BRANCH   5  12
ATOM     12  N   UNL     1       2.655  -6.917  -0.073  0.00  0.00    -0.342 N 
ATOM     13  H   UNL     1       2.525  -7.879  -0.077  0.00  0.00    +0.144 HD
ATOM     14  H   UNL     1       1.887  -6.325  -0.065  0.00  0.00    +0.144 HD
ENDBRANCH   5  12
BRANCH   4  15
ATOM     15  C   UNL     1       4.848  -8.680  -0.094  0.00  0.00    +0.103 C 
ATOM     16  N   UNL     1       4.698  -9.806  -0.099  0.00  0.00    -0.191 NA
ENDBRANCH   4  15
BRANCH   2  17
ATOM     17  C   UNL     1       7.757  -4.692  -0.090  0.00  0.00    +0.102 C 
ATOM     18  N   UNL     1       8.783  -4.205  -0.094  0.00  0.00    -0.191 NA
ENDBRANCH   2  17
BRANCH   1  19
ATOM     19  S   UNL     1       5.436  -2.762  -0.067  0.00  0.00    -0.097 S 
BRANCH  19  20
ATOM     20  C   UNL     1       3.716  -2.186  -0.046  0.00  0.00    +0.155 C 
BRANCH  20  21
ATOM     21  C   UNL     1       3.691  -0.679  -0.038  0.00  0.00    +0.173 C 
ATOM     22  O   UNL     1       4.731  -0.056  -0.045  0.00  0.00    -0.291 OA
BRANCH  21  26
ATOM     23  C   UNL     1      -0.017   1.380   0.010  0.00  0.00    +0.000 A 
ATOM     24  C   UNL     1       1.168   2.095   0.002  0.00  0.00    +0.001 A 
ATOM     25  C   UNL     1       2.377   1.433  -0.013  0.00  0.00    +0.011 A 
ATOM     26  C   UNL     1       2.405   0.035  -0.021  0.00  0.00    +0.018 A 
ATOM     27  C   UNL     1       1.203  -0.681  -0.013  0.00  0.00    +0.011 A 
ATOM     28  C   UNL     1       0.002  -0.004   0.002  0.00  0.00    +0.001 A 
ENDBRANCH  21  26
ENDBRANCH  20  21
ENDBRANCH  19  20
ENDBRANCH   1  19
TORSDOF 8
