REMARK  Name = CHEMBL262276
REMARK  8 active torsions:
REMARK  status: ('A' for Active; 'I' for Inactive)
REMARK    1  A    between atoms: C_1  and  O_2
REMARK    2  A    between atoms: O_2  and  C_3
REMARK    3  A    between atoms: C_3  and  C_5
REMARK    4  A    between atoms: C_5  and  N_6
REMARK    5  A    between atoms: C_9  and  N_12
REMARK    6  A    between atoms: C_14  and  C_22
REMARK    7  A    between atoms: C_20  and  N_21
REMARK    8  A    between atoms: C_26  and  O_28
REMARK                            x       y       z     vdW  Elec       q    Type
REMARK                         _______ _______ _______ _____ _____    ______ ____
ROOT
ATOM      1  N   UNL     1       2.572  -4.196  -6.011  0.00  0.00    -0.328 N 
ATOM      2  C   UNL     1       3.804  -3.648  -6.243  0.00  0.00    +0.097 A 
ATOM      3  C   UNL     1       4.300  -4.123  -7.412  0.00  0.00    +0.012 A 
ATOM      4  C   UNL     1       3.290  -5.043  -7.951  0.00  0.00    +0.066 A 
ATOM      5  C   UNL     1       2.233  -5.050  -7.025  0.00  0.00    +0.147 A 
ATOM      6  N   UNL     1       1.175  -5.820  -7.274  0.00  0.00    -0.218 NA
ATOM      7  C   UNL     1       1.122  -6.558  -8.361  0.00  0.00    +0.225 A 
ATOM      8  N   UNL     1       2.094  -6.583  -9.255  0.00  0.00    -0.220 NA
ATOM      9  C   UNL     1       3.187  -5.841  -9.098  0.00  0.00    +0.129 A 
ENDROOT
BRANCH   1  13
ATOM     10  N   UNL     1       1.356  -2.504  -2.349  0.00  0.00    -0.292 NA
ATOM     11  C   UNL     1       0.588  -2.118  -3.539  0.00  0.00    +0.087 C 
ATOM     12  C   UNL     1       1.409  -2.418  -4.796  0.00  0.00    +0.040 C 
ATOM     13  C   UNL     1       1.738  -3.913  -4.840  0.00  0.00    +0.091 C 
ATOM     14  C   UNL     1       2.494  -4.298  -3.566  0.00  0.00    +0.040 C 
ATOM     15  C   UNL     1       1.643  -3.944  -2.345  0.00  0.00    +0.087 C 
BRANCH  10  16
ATOM     16  C   UNL     1       0.657  -2.104  -1.120  0.00  0.00    +0.205 C 
BRANCH  16  17
ATOM     17  C   UNL     1       0.598  -0.600  -1.043  0.00  0.00    +0.321 C 
ATOM     18  O   UNL     1       1.088   0.070  -1.921  0.00  0.00    -0.249 OA
BRANCH  17  20
ATOM     19  C   UNL     1      -0.017   1.425   0.010  0.00  0.00    +0.280 C 
ATOM     20  O   UNL     1       0.002  -0.004   0.002  0.00  0.00    -0.467 OA
ENDBRANCH  17  20
ENDBRANCH  16  17
ENDBRANCH  10  16
ENDBRANCH   1  13
BRANCH   3  21
ATOM     21  C   UNL     1       5.605  -3.780  -8.026  0.00  0.00    -0.012 A 
ATOM     22  C   UNL     1       6.460  -4.791  -8.464  0.00  0.00    +0.009 A 
ATOM     23  C   UNL     1       7.674  -4.469  -9.035  0.00  0.00    +0.004 A 
ATOM     24  C   UNL     1       8.047  -3.145  -9.175  0.00  0.00    +0.045 A 
ATOM     25  C   UNL     1       7.202  -2.132  -8.742  0.00  0.00    +0.117 A 
ATOM     26  C   UNL     1       5.979  -2.446  -8.173  0.00  0.00    +0.054 A 
BRANCH  25  27
ATOM     27  O   UNL     1       7.573  -0.832  -8.882  0.00  0.00    -0.507 OA
ATOM     28  H   UNL     1       7.300  -0.433  -9.719  0.00  0.00    +0.292 HD
ENDBRANCH  25  27
ENDBRANCH   3  21
BRANCH   9  29
ATOM     29  N   UNL     1       4.204  -5.870 -10.035  0.00  0.00    -0.343 N 
ATOM     30  H   UNL     1       5.001  -5.334  -9.903  0.00  0.00    +0.144 HD
ATOM     31  H   UNL     1       4.120  -6.428 -10.825  0.00  0.00    +0.144 HD
ENDBRANCH   9  29
TORSDOF 7
