REMARK  Name = CHEMBL1171283
REMARK  8 active torsions:
REMARK  status: ('A' for Active; 'I' for Inactive)
REMARK    1  A    between atoms: C_1  and  C_2
REMARK    2  A    between atoms: C_5  and  C_19
REMARK    3  A    between atoms: C_7  and  C_8
REMARK    4  A    between atoms: C_9  and  C_10
REMARK    5  A    between atoms: N_21  and  C_22
REMARK    6  A    between atoms: C_25  and  C_32
REMARK    7  A    between atoms: C_26  and  C_28
REMARK    8  A    between atoms: C_32  and  N_33
REMARK                            x       y       z     vdW  Elec       q    Type
REMARK                         _______ _______ _______ _____ _____    ______ ____
ROOT
ATOM      1  C   UNL     1      -0.034  -4.163  -0.422  0.00  0.00    +0.248 C 
ATOM      2  O   UNL     1      -0.194  -4.706   0.654  0.00  0.00    -0.270 OA
ATOM      3  N   UNL     1       0.146  -4.907  -1.532  0.00  0.00    -0.281 N 
ATOM      4  H   UNL     1       0.204  -4.477  -2.400  0.00  0.00    +0.155 HD
ENDROOT
BRANCH   1   9
ATOM      5  C   UNL     1      -0.041   1.590  -0.816  0.00  0.00    +0.045 C 
ATOM      6  C   UNL     1      -0.040   0.087  -0.709  0.00  0.00    -0.035 A 
ATOM      7  C   UNL     1       0.144  -0.684  -1.839  0.00  0.00    +0.005 A 
ATOM      8  C   UNL     1       0.147  -2.062  -1.750  0.00  0.00    +0.013 A 
ATOM      9  C   UNL     1      -0.037  -2.688  -0.514  0.00  0.00    +0.038 A 
ATOM     10  C   UNL     1      -0.223  -1.918   0.632  0.00  0.00    +0.030 A 
ATOM     11  C   UNL     1      -0.219  -0.525   0.537  0.00  0.00    +0.029 A 
BRANCH  11  12
ATOM     12  C   UNL     1      -0.403   0.275   1.710  0.00  0.00    -0.059 C 
ATOM     13  C   UNL     1      -0.554   0.932   2.672  0.00  0.00    -0.041 C 
BRANCH  13  14
ATOM     14  C   UNL     1      -0.739   1.732   3.845  0.00  0.00    +0.117 A 
ATOM     15  C   UNL     1      -0.769   3.113   3.908  0.00  0.00    +0.148 A 
ATOM     16  N   UNL     1      -0.960   3.467   5.173  0.00  0.00    -0.235 NA
ATOM     17  C   UNL     1      -1.054   2.382   5.934  0.00  0.00    +0.138 A 
ATOM     18  N   UNL     1      -0.926   1.276   5.133  0.00  0.00    -0.293 N 
ATOM     19  C   UNL     1      -0.992   0.024   5.666  0.00  0.00    +0.094 A 
ATOM     20  C   UNL     1      -1.188  -0.151   6.992  0.00  0.00    +0.018 A 
ATOM     21  C   UNL     1      -1.327   0.961   7.837  0.00  0.00    +0.005 A 
ATOM     22  C   UNL     1      -1.254   2.217   7.317  0.00  0.00    +0.047 A 
ENDBRANCH  13  14
ENDBRANCH  11  12
ENDBRANCH   1   9
BRANCH   3  23
ATOM     23  C   UNL     1       0.248  -6.298  -1.432  0.00  0.00    +0.034 A 
ATOM     24  C   UNL     1      -0.502  -6.985  -0.487  0.00  0.00    +0.023 A 
ATOM     25  C   UNL     1      -0.398  -8.359  -0.391  0.00  0.00    +0.007 A 
ATOM     26  C   UNL     1       0.452  -9.050  -1.235  0.00  0.00    -0.022 A 
ATOM     27  C   UNL     1       1.201  -8.369  -2.177  0.00  0.00    +0.061 A 
ATOM     28  C   UNL     1       1.097  -6.996  -2.282  0.00  0.00    +0.036 A 
BRANCH  27  29
ATOM     29  C   UNL     1       2.126  -9.126  -3.094  0.00  0.00    +0.418 C 
ATOM     30  F   UNL     1       2.733  -8.234  -3.984  0.00  0.00    -0.166 F 
ATOM     31  F   UNL     1       3.110  -9.770  -2.336  0.00  0.00    -0.166 F 
ATOM     32  F   UNL     1       1.395 -10.078  -3.813  0.00  0.00    -0.166 F 
ENDBRANCH  27  29
BRANCH  26  33
ATOM     33  C   UNL     1       0.563 -10.549  -1.128  0.00  0.00    +0.120 C 
BRANCH  33  34
ATOM     34  N   UNL     1      -0.231 -11.177  -2.193  0.00  0.00    -0.294 NA
ATOM     35  C   UNL     1      -1.658 -10.857  -2.046  0.00  0.00    +0.113 C 
ATOM     36  C   UNL     1      -2.438 -11.479  -3.207  0.00  0.00    +0.175 C 
ATOM     37  O   UNL     1      -2.198 -12.889  -3.234  0.00  0.00    -0.377 OA
ATOM     38  C   UNL     1      -0.818 -13.236  -3.378  0.00  0.00    +0.175 C 
ATOM     39  C   UNL     1      -0.022 -12.632  -2.219  0.00  0.00    +0.113 C 
ENDBRANCH  33  34
ENDBRANCH  26  33
ENDBRANCH   3  23
TORSDOF 7
