REMARK  Name = CHEMBL1173200
REMARK  10 active torsions:
REMARK  status: ('A' for Active; 'I' for Inactive)
REMARK    1  A    between atoms: C_1  and  C_2
REMARK    2  A    between atoms: C_5  and  C_19
REMARK    3  A    between atoms: C_7  and  C_8
REMARK    4  A    between atoms: C_8  and  C_9
REMARK    5  A    between atoms: C_9  and  C_10
REMARK    6  A    between atoms: N_21  and  C_22
REMARK    7  A    between atoms: C_25  and  C_32
REMARK    8  A    between atoms: C_26  and  C_28
REMARK    9  A    between atoms: C_32  and  N_33
REMARK   10  A    between atoms: N_36  and  C_39
REMARK                            x       y       z     vdW  Elec       q    Type
REMARK                         _______ _______ _______ _____ _____    ______ ____
ROOT
ATOM      1  C   UNL     1      -0.563  -4.280  -0.186  0.00  0.00    +0.248 C 
ATOM      2  O   UNL     1      -0.499  -4.857   0.882  0.00  0.00    -0.270 OA
ATOM      3  N   UNL     1      -0.498  -4.980  -1.336  0.00  0.00    -0.281 N 
ATOM      4  H   UNL     1      -0.626  -4.530  -2.186  0.00  0.00    +0.155 HD
ENDROOT
BRANCH   1   9
ATOM      5  C   UNL     1      -1.142   1.444  -0.333  0.00  0.00    +0.044 C 
ATOM      6  C   UNL     1      -0.990  -0.055  -0.294  0.00  0.00    -0.047 A 
ATOM      7  C   UNL     1      -0.924  -0.771  -1.477  0.00  0.00    +0.004 A 
ATOM      8  C   UNL     1      -0.785  -2.143  -1.449  0.00  0.00    +0.013 A 
ATOM      9  C   UNL     1      -0.711  -2.809  -0.224  0.00  0.00    +0.037 A 
ATOM     10  C   UNL     1      -0.779  -2.081   0.965  0.00  0.00    +0.017 A 
ATOM     11  C   UNL     1      -0.912  -0.708   0.922  0.00  0.00    -0.043 A 
BRANCH  11  12
ATOM     12  C   UNL     1      -0.979   0.080   2.205  0.00  0.00    +0.041 C 
BRANCH  12  13
ATOM     13  C   UNL     1      -2.442   0.310   2.587  0.00  0.00    +0.062 C 
BRANCH  13  14
ATOM     14  C   UNL     1      -2.509   1.099   3.869  0.00  0.00    +0.063 A 
ATOM     15  C   UNL     1      -2.459   2.446   3.987  0.00  0.00    +0.136 A 
ATOM     16  N   UNL     1      -2.547   2.765   5.279  0.00  0.00    -0.234 NA
ATOM     17  C   UNL     1      -2.652   1.653   5.993  0.00  0.00    +0.154 A 
ATOM     18  N   UNL     1      -2.636   0.588   5.127  0.00  0.00    -0.217 N 
ATOM     19  N   UNL     1      -2.740  -0.716   5.620  0.00  0.00    -0.173 NA
ATOM     20  C   UNL     1      -2.855  -0.934   6.903  0.00  0.00    +0.133 A 
ATOM     21  C   UNL     1      -2.879   0.127   7.816  0.00  0.00    +0.025 A 
ATOM     22  C   UNL     1      -2.771   1.411   7.374  0.00  0.00    +0.050 A 
ENDBRANCH  13  14
ENDBRANCH  12  13
ENDBRANCH  11  12
ENDBRANCH   1   9
BRANCH   3  23
ATOM     23  C   UNL     1      -0.247  -6.355  -1.304  0.00  0.00    +0.034 A 
ATOM     24  C   UNL     1      -0.761  -7.133  -0.273  0.00  0.00    +0.023 A 
ATOM     25  C   UNL     1      -0.511  -8.490  -0.244  0.00  0.00    +0.004 A 
ATOM     26  C   UNL     1       0.250  -9.076  -1.239  0.00  0.00    -0.052 A 
ATOM     27  C   UNL     1       0.763  -8.306  -2.266  0.00  0.00    +0.058 A 
ATOM     28  C   UNL     1       0.512  -6.948  -2.304  0.00  0.00    +0.036 A 
BRANCH  27  29
ATOM     29  C   UNL     1       1.592  -8.948  -3.348  0.00  0.00    +0.418 C 
ATOM     30  F   UNL     1       1.894  -7.999  -4.330  0.00  0.00    -0.166 F 
ATOM     31  F   UNL     1       2.780  -9.441  -2.795  0.00  0.00    -0.166 F 
ATOM     32  F   UNL     1       0.873 -10.002  -3.922  0.00  0.00    -0.166 F 
ENDBRANCH  27  29
BRANCH  26  33
ATOM     33  C   UNL     1       0.521 -10.559  -1.204  0.00  0.00    -0.042 C 
BRANCH  33  34
ATOM     34  N   UNL     1       0.365 -11.052   0.171  0.00  0.00    +0.384 N 
ATOM     35  C   UNL     1       1.416 -10.476   1.020  0.00  0.00    -0.063 C 
ATOM     36  C   UNL     1       1.243 -10.976   2.456  0.00  0.00    +0.065 C 
ATOM     37  N   UNL     1       1.323 -12.443   2.474  0.00  0.00    -0.309 NA
ATOM     38  C   UNL     1       0.293 -13.034   1.609  0.00  0.00    +0.065 C 
ATOM     39  C   UNL     1       0.474 -12.517   0.180  0.00  0.00    -0.063 C 
ATOM     40  C   UNL     1       1.218 -12.959   3.846  0.00  0.00    +0.104 C 
ATOM     41  H   UNL     1      -0.540 -10.780   0.525  0.00  0.00    -0.081 HD
ENDBRANCH  33  34
ENDBRANCH  26  33
ENDBRANCH   3  23
TORSDOF 8
