REMARK  Name = CHEMBL1171657
REMARK  9 active torsions:
REMARK  status: ('A' for Active; 'I' for Inactive)
REMARK    1  A    between atoms: C_1  and  C_2
REMARK    2  A    between atoms: C_5  and  C_20
REMARK    3  A    between atoms: C_7  and  C_8
REMARK    4  A    between atoms: C_9  and  C_10
REMARK    5  A    between atoms: N_22  and  C_23
REMARK    6  A    between atoms: C_26  and  C_33
REMARK    7  A    between atoms: C_27  and  C_29
REMARK    8  A    between atoms: C_33  and  N_34
REMARK    9  A    between atoms: N_37  and  C_40
REMARK                            x       y       z     vdW  Elec       q    Type
REMARK                         _______ _______ _______ _____ _____    ______ ____
ROOT
ATOM      1  C   UNL     1       0.020  -4.284  -0.028  0.00  0.00    +0.248 C 
ATOM      2  O   UNL     1       0.612  -4.861   0.863  0.00  0.00    -0.270 OA
ATOM      3  N   UNL     1      -0.496  -4.984  -1.058  0.00  0.00    -0.281 N 
ATOM      4  H   UNL     1      -1.034  -4.534  -1.728  0.00  0.00    +0.155 HD
ENDROOT
BRANCH   1   9
ATOM      5  C   UNL     1      -0.598   1.446   0.122  0.00  0.00    +0.045 C 
ATOM      6  C   UNL     1      -0.434  -0.051   0.086  0.00  0.00    -0.035 A 
ATOM      7  C   UNL     1      -0.958  -0.777  -0.965  0.00  0.00    +0.005 A 
ATOM      8  C   UNL     1      -0.813  -2.149  -1.006  0.00  0.00    +0.013 A 
ATOM      9  C   UNL     1      -0.133  -2.814   0.018  0.00  0.00    +0.038 A 
ATOM     10  C   UNL     1       0.400  -2.090   1.081  0.00  0.00    +0.030 A 
ATOM     11  C   UNL     1       0.254  -0.703   1.114  0.00  0.00    +0.029 A 
BRANCH  11  12
ATOM     12  C   UNL     1       0.803   0.051   2.201  0.00  0.00    -0.061 C 
ATOM     13  C   UNL     1       1.254   0.670   3.091  0.00  0.00    -0.059 C 
BRANCH  13  14
ATOM     14  C   UNL     1       1.803   1.424   4.178  0.00  0.00    +0.045 A 
ATOM     15  C   UNL     1       1.651   2.812   4.223  0.00  0.00    +0.049 A 
ATOM     16  C   UNL     1       2.206   3.498   5.304  0.00  0.00    +0.109 A 
ATOM     17  C   UNL     1       2.890   2.773   6.298  0.00  0.00    +0.158 A 
ATOM     18  N   UNL     1       3.317   3.707   7.217  0.00  0.00    -0.329 N 
ATOM     19  H   UNL     1       3.821   3.527   8.026  0.00  0.00    +0.168 HD
ATOM     20  C   UNL     1       2.901   4.928   6.782  0.00  0.00    +0.198 A 
ATOM     21  N   UNL     1       2.251   4.807   5.662  0.00  0.00    -0.234 NA
ATOM     22  N   UNL     1       3.008   1.456   6.212  0.00  0.00    -0.235 NA
ATOM     23  C   UNL     1       2.493   0.778   5.211  0.00  0.00    +0.130 A 
ENDBRANCH  13  14
ENDBRANCH  11  12
ENDBRANCH   1   9
BRANCH   3  24
ATOM     24  C   UNL     1      -0.257  -6.358  -1.159  0.00  0.00    +0.034 A 
ATOM     25  C   UNL     1      -0.183  -7.138  -0.012  0.00  0.00    +0.023 A 
ATOM     26  C   UNL     1       0.054  -8.494  -0.116  0.00  0.00    +0.004 A 
ATOM     27  C   UNL     1       0.217  -9.076  -1.360  0.00  0.00    -0.052 A 
ATOM     28  C   UNL     1       0.145  -8.303  -2.503  0.00  0.00    +0.058 A 
ATOM     29  C   UNL     1      -0.098  -6.946  -2.407  0.00  0.00    +0.036 A 
BRANCH  28  30
ATOM     30  C   UNL     1       0.324  -8.941  -3.857  0.00  0.00    +0.418 C 
ATOM     31  F   UNL     1       0.090  -7.990  -4.856  0.00  0.00    -0.166 F 
ATOM     32  F   UNL     1       1.631  -9.428  -3.973  0.00  0.00    -0.166 F 
ATOM     33  F   UNL     1      -0.582  -9.998  -3.998  0.00  0.00    -0.166 F 
ENDBRANCH  28  30
BRANCH  27  34
ATOM     34  C   UNL     1       0.476 -10.557  -1.469  0.00  0.00    -0.042 C 
BRANCH  34  35
ATOM     35  N   UNL     1       1.030 -11.052  -0.202  0.00  0.00    +0.384 N 
ATOM     36  C   UNL     1       2.363 -10.471   0.009  0.00  0.00    -0.063 C 
ATOM     37  C   UNL     1       2.933 -10.972   1.338  0.00  0.00    +0.065 C 
ATOM     38  N   UNL     1       3.018 -12.439   1.310  0.00  0.00    -0.309 NA
ATOM     39  C   UNL     1       1.695 -13.034   1.074  0.00  0.00    +0.065 C 
ATOM     40  C   UNL     1       1.135 -12.516  -0.253  0.00  0.00    -0.063 C 
ATOM     41  C   UNL     1       3.615 -12.956   2.548  0.00  0.00    +0.104 C 
ATOM     42  H   UNL     1       0.423 -10.785   0.558  0.00  0.00    -0.081 HD
ENDBRANCH  34  35
ENDBRANCH  27  34
ENDBRANCH   3  24
TORSDOF 7
