REMARK  Name = CHEMBL1214142
REMARK  7 active torsions:
REMARK  status: ('A' for Active; 'I' for Inactive)
REMARK    1  A    between atoms: C_1  and  C_2
REMARK    2  A    between atoms: C_5  and  N_27
REMARK    3  A    between atoms: C_7  and  N_8
REMARK    4  A    between atoms: N_16  and  C_19
REMARK    5  A    between atoms: N_20  and  C_21
REMARK    6  A    between atoms: C_28  and  C_30
REMARK    7  A    between atoms: C_34  and  C_36
REMARK                            x       y       z     vdW  Elec       q    Type
REMARK                         _______ _______ _______ _____ _____    ______ ____
ROOT
ATOM      1  C   UNL     1      -0.581   2.018  -0.098  0.00  0.00    +0.045 C 
ATOM      2  C   UNL     1      -0.357   0.547   0.136  0.00  0.00    -0.029 A 
ATOM      3  C   UNL     1      -0.243  -0.313  -0.940  0.00  0.00    +0.007 A 
ATOM      4  C   UNL     1      -0.038  -1.663  -0.730  0.00  0.00    +0.024 A 
ATOM      5  C   UNL     1       0.054  -2.160   0.565  0.00  0.00    +0.035 A 
ATOM      6  C   UNL     1      -0.060  -1.299   1.647  0.00  0.00    +0.047 A 
ATOM      7  C   UNL     1      -0.261   0.057   1.432  0.00  0.00    +0.043 A 
ENDROOT
BRANCH   7   8
ATOM      8  N   UNL     1      -0.370   0.929   2.521  0.00  0.00    -0.250 N 
ATOM      9  C   UNL     1      -1.685   1.204   3.129  0.00  0.00    +0.155 C 
ATOM     10  C   UNL     1      -1.704   2.157   4.298  0.00  0.00    +0.029 A 
ATOM     11  C   UNL     1      -2.865   2.493   4.951  0.00  0.00    +0.123 A 
ATOM     12  N   UNL     1      -2.799   3.340   5.972  0.00  0.00    -0.222 NA
ATOM     13  C   UNL     1      -1.638   3.851   6.355  0.00  0.00    +0.221 A 
ATOM     14  N   UNL     1      -0.499   3.547   5.747  0.00  0.00    -0.199 NA
ATOM     15  C   UNL     1      -0.493   2.708   4.719  0.00  0.00    +0.138 A 
ATOM     16  N   UNL     1       0.681   2.373   4.067  0.00  0.00    -0.242 N 
ATOM     17  C   UNL     1       0.723   1.526   3.030  0.00  0.00    +0.314 C 
ATOM     18  O   UNL     1       1.801   1.287   2.522  0.00  0.00    -0.252 OA
ATOM     19  C   UNL     1       1.935   2.969   4.534  0.00  0.00    +0.141 C 
ATOM     20  N   UNL     1      -1.613   4.730   7.425  0.00  0.00    -0.284 N 
ATOM     21  H   UNL     1      -0.786   5.174   7.669  0.00  0.00    +0.155 HD
BRANCH  20  22
ATOM     22  C   UNL     1      -2.780   4.978   8.154  0.00  0.00    +0.034 A 
ATOM     23  C   UNL     1      -3.701   3.959   8.360  0.00  0.00    +0.023 A 
ATOM     24  C   UNL     1      -4.853   4.207   9.080  0.00  0.00    +0.002 A 
ATOM     25  C   UNL     1      -5.090   5.468   9.596  0.00  0.00    +0.000 A 
ATOM     26  C   UNL     1      -4.175   6.485   9.392  0.00  0.00    +0.002 A 
ATOM     27  C   UNL     1      -3.018   6.242   8.678  0.00  0.00    +0.023 A 
ENDBRANCH  20  22
ENDBRANCH   7   8
BRANCH   5  28
ATOM     28  N   UNL     1       0.261  -3.527   0.776  0.00  0.00    -0.281 N 
ATOM     29  C   UNL     1       1.010  -3.942   1.817  0.00  0.00    +0.248 C 
ATOM     30  O   UNL     1       1.586  -3.129   2.514  0.00  0.00    -0.270 OA
ATOM     31  H   UNL     1      -0.134  -4.177   0.174  0.00  0.00    +0.155 HD
BRANCH  29  32
ATOM     32  C   UNL     1       1.130  -5.385   2.113  0.00  0.00    +0.038 A 
ATOM     33  C   UNL     1       0.474  -6.322   1.312  0.00  0.00    +0.013 A 
ATOM     34  C   UNL     1       0.591  -7.667   1.592  0.00  0.00    +0.001 A 
ATOM     35  C   UNL     1       1.356  -8.089   2.665  0.00  0.00    +0.012 A 
ATOM     36  C   UNL     1       2.008  -7.167   3.463  0.00  0.00    +0.056 A 
ATOM     37  C   UNL     1       1.905  -5.818   3.190  0.00  0.00    +0.025 A 
BRANCH  36  38
ATOM     38  C   UNL     1       2.838  -7.636   4.630  0.00  0.00    +0.417 C 
ATOM     39  F   UNL     1       2.796  -9.032   4.701  0.00  0.00    -0.166 F 
ATOM     40  F   UNL     1       4.162  -7.217   4.459  0.00  0.00    -0.166 F 
ATOM     41  F   UNL     1       2.328  -7.093   5.814  0.00  0.00    -0.166 F 
ENDBRANCH  36  38
ENDBRANCH  29  32
ENDBRANCH   5  28
TORSDOF 5
