REMARK  Name = CHEMBL400402
REMARK  8 active torsions:
REMARK  status: ('A' for Active; 'I' for Inactive)
REMARK    1  A    between atoms: C_1  and  C_2
REMARK    2  A    between atoms: C_4  and  C_27
REMARK    3  A    between atoms: N_12  and  C_13
REMARK    4  A    between atoms: C_16  and  O_19
REMARK    5  A    between atoms: O_19  and  C_20
REMARK    6  A    between atoms: C_20  and  C_21
REMARK    7  A    between atoms: C_21  and  N_22
REMARK    8  A    between atoms: C_29  and  O_34
REMARK                            x       y       z     vdW  Elec       q    Type
REMARK                         _______ _______ _______ _____ _____    ______ ____
ROOT
ATOM      1  C   UNL     1      -0.079   1.314  -0.051  0.00  0.00    +0.046 C 
ATOM      2  C   UNL     1      -0.972   0.112   0.118  0.00  0.00    -0.022 A 
ATOM      3  C   UNL     1      -1.644  -0.392  -0.950  0.00  0.00    +0.014 A 
ATOM      4  C   UNL     1      -2.481  -1.511  -0.812  0.00  0.00    -0.014 A 
ATOM      5  C   UNL     1      -2.639  -2.125   0.417  0.00  0.00    +0.040 A 
ATOM      6  C   UNL     1      -1.955  -1.621   1.532  0.00  0.00    +0.112 A 
ATOM      7  C   UNL     1      -1.107  -0.491   1.379  0.00  0.00    +0.097 A 
ATOM      8  N   UNL     1      -0.458  -0.027   2.453  0.00  0.00    -0.211 NA
ATOM      9  C   UNL     1      -0.622  -0.634   3.615  0.00  0.00    +0.240 A 
ATOM     10  N   UNL     1      -1.419  -1.698   3.740  0.00  0.00    -0.112 NA
ATOM     11  N   UNL     1      -2.076  -2.180   2.741  0.00  0.00    -0.144 NA
ATOM     12  N   UNL     1       0.048  -0.157   4.728  0.00  0.00    -0.282 N 
ATOM     13  H   UNL     1       0.566   0.661   4.669  0.00  0.00    +0.155 HD
ENDROOT
BRANCH   4  14
ATOM     14  C   UNL     1      -3.203  -2.039  -1.996  0.00  0.00    +0.004 A 
ATOM     15  C   UNL     1      -3.152  -3.398  -2.296  0.00  0.00    +0.055 A 
ATOM     16  C   UNL     1      -3.828  -3.885  -3.402  0.00  0.00    +0.118 A 
ATOM     17  C   UNL     1      -4.554  -3.020  -4.209  0.00  0.00    +0.047 A 
ATOM     18  C   UNL     1      -4.606  -1.671  -3.912  0.00  0.00    +0.024 A 
ATOM     19  C   UNL     1      -3.940  -1.177  -2.808  0.00  0.00    +0.049 A 
ATOM     20 CL   UNL     1      -4.014   0.517  -2.434  0.00  0.00    -0.083 Cl
BRANCH  16  21
ATOM     21  O   UNL     1      -3.780  -5.211  -3.698  0.00  0.00    -0.507 OA
ATOM     22  H   UNL     1      -4.482  -5.732  -3.285  0.00  0.00    +0.292 HD
ENDBRANCH  16  21
ENDBRANCH   4  14
BRANCH  12  23
ATOM     23  C   UNL     1      -0.022  -0.855   5.940  0.00  0.00    +0.034 A 
ATOM     24  C   UNL     1       0.009  -2.243   5.944  0.00  0.00    +0.027 A 
ATOM     25  C   UNL     1      -0.060  -2.931   7.140  0.00  0.00    +0.047 A 
ATOM     26  C   UNL     1      -0.160  -2.235   8.336  0.00  0.00    +0.121 A 
ATOM     27  C   UNL     1      -0.191  -0.849   8.332  0.00  0.00    +0.047 A 
ATOM     28  C   UNL     1      -0.116  -0.159   7.138  0.00  0.00    +0.027 A 
BRANCH  26  29
ATOM     29  O   UNL     1      -0.227  -2.913   9.513  0.00  0.00    -0.494 OA
BRANCH  29  30
ATOM     30  C   UNL     1      -0.329  -2.133  10.706  0.00  0.00    +0.210 C 
BRANCH  30  31
ATOM     31  C   UNL     1      -0.393  -3.063  11.919  0.00  0.00    -0.037 C 
BRANCH  31  32
ATOM     32  N   UNL     1       0.873  -3.798  12.041  0.00  0.00    +0.382 N 
ATOM     33  C   UNL     1       1.035  -4.706  10.886  0.00  0.00    -0.079 C 
ATOM     34  C   UNL     1       1.725  -5.965  11.467  0.00  0.00    -0.020 C 
ATOM     35  C   UNL     1       1.050  -6.079  12.859  0.00  0.00    -0.020 C 
ATOM     36  C   UNL     1       0.862  -4.605  13.275  0.00  0.00    -0.079 C 
ATOM     37  H   UNL     1       1.643  -3.146  12.069  0.00  0.00    -0.082 HD
ENDBRANCH  31  32
ENDBRANCH  30  31
ENDBRANCH  29  30
ENDBRANCH  26  29
ENDBRANCH  12  23
TORSDOF 7
