REMARK  Name = CHEMBL1085511
REMARK  11 active torsions:
REMARK  status: ('A' for Active; 'I' for Inactive)
REMARK    1  A    between atoms: C_1  and  C_2
REMARK    2  A    between atoms: C_2  and  C_3
REMARK    3  A    between atoms: C_2  and  C_4
REMARK    4  A    between atoms: C_4  and  O_5
REMARK    5  A    between atoms: O_5  and  C_6
REMARK    6  A    between atoms: N_8  and  C_9
REMARK    7  A    between atoms: C_12  and  C_15
REMARK    8  A    between atoms: C_19  and  C_25
REMARK    9  A    between atoms: C_23  and  N_24
REMARK   10  A    between atoms: C_28  and  N_31
REMARK   11  A    between atoms: N_34  and  C_37
REMARK                            x       y       z     vdW  Elec       q    Type
REMARK                         _______ _______ _______ _____ _____    ______ ____
ROOT
ATOM      1  C   UNL     1      -9.292  -2.077  -3.477  0.00  0.00    +0.040 A 
ATOM      2  C   UNL     1      -9.562  -3.454  -3.548  0.00  0.00    +0.125 A 
ATOM      3  N   UNL     1     -10.786  -3.877  -3.769  0.00  0.00    -0.235 NA
ATOM      4  C   UNL     1     -11.800  -3.020  -3.932  0.00  0.00    +0.165 A 
ATOM      5  C   UNL     1     -13.166  -3.212  -4.175  0.00  0.00    +0.046 A 
ATOM      6  C   UNL     1     -13.755  -1.945  -4.256  0.00  0.00    +0.145 A 
ATOM      7  N   UNL     1     -12.829  -1.035  -4.079  0.00  0.00    -0.171 NA
ATOM      8  N   UNL     1     -11.597  -1.666  -3.874  0.00  0.00    -0.200 N 
ATOM      9  C   UNL     1     -10.339  -1.176  -3.639  0.00  0.00    +0.129 A 
ENDROOT
BRANCH   1  13
ATOM     10  C   UNL     1      -5.337  -0.685  -2.761  0.00  0.00    +0.036 A 
ATOM     11  C   UNL     1      -6.002  -1.415  -1.785  0.00  0.00    +0.024 A 
ATOM     12  C   UNL     1      -7.284  -1.868  -2.014  0.00  0.00    +0.010 A 
ATOM     13  C   UNL     1      -7.913  -1.591  -3.228  0.00  0.00    -0.013 A 
ATOM     14  C   UNL     1      -7.243  -0.858  -4.206  0.00  0.00    +0.010 A 
ATOM     15  C   UNL     1      -5.963  -0.403  -3.969  0.00  0.00    +0.024 A 
BRANCH  10  18
ATOM     16  C   UNL     1      -3.176  -0.977  -1.808  0.00  0.00    +0.405 C 
ATOM     17  O   UNL     1      -3.555  -2.012  -1.297  0.00  0.00    -0.226 OA
ATOM     18  N   UNL     1      -4.035  -0.227  -2.526  0.00  0.00    -0.251 N 
ATOM     19  H   UNL     1      -3.751   0.631  -2.880  0.00  0.00    +0.158 HD
BRANCH  16  20
ATOM     20  O   UNL     1      -1.898  -0.580  -1.657  0.00  0.00    -0.450 OA
BRANCH  20  21
ATOM     21  C   UNL     1      -1.043  -1.424  -0.883  0.00  0.00    +0.236 C 
BRANCH  21  23
ATOM     22  C   UNL     1       0.304   0.514  -0.064  0.00  0.00    +0.010 C 
ATOM     23  C   UNL     1       0.358  -0.813  -0.824  0.00  0.00    +0.021 C 
ATOM     24  C   UNL     1       1.304  -1.776  -0.103  0.00  0.00    +0.010 C 
ENDBRANCH  21  23
ENDBRANCH  20  21
ENDBRANCH  16  20
ENDBRANCH  10  18
ENDBRANCH   1  13
BRANCH   5  25
ATOM     25  C   UNL     1     -13.858  -4.514  -4.319  0.00  0.00    -0.013 A 
ATOM     26  C   UNL     1     -13.349  -5.485  -5.181  0.00  0.00    +0.010 A 
ATOM     27  C   UNL     1     -13.995  -6.696  -5.313  0.00  0.00    +0.024 A 
ATOM     28  C   UNL     1     -15.152  -6.950  -4.587  0.00  0.00    +0.030 A 
ATOM     29  C   UNL     1     -15.662  -5.985  -3.727  0.00  0.00    +0.024 A 
ATOM     30  C   UNL     1     -15.017  -4.774  -3.587  0.00  0.00    +0.010 A 
BRANCH  28  31
ATOM     31  N   UNL     1     -15.806  -8.178  -4.723  0.00  0.00    -0.327 N 
ATOM     32  C   UNL     1     -17.098  -8.423  -4.064  0.00  0.00    +0.120 C 
ATOM     33  C   UNL     1     -18.084  -8.957  -5.108  0.00  0.00    +0.103 C 
ATOM     34  N   UNL     1     -17.497 -10.125  -5.779  0.00  0.00    -0.302 NA
ATOM     35  C   UNL     1     -16.280  -9.761  -6.516  0.00  0.00    +0.103 C 
ATOM     36  C   UNL     1     -15.223  -9.258  -5.534  0.00  0.00    +0.120 C 
ATOM     37  C   UNL     1     -18.476 -10.770  -6.664  0.00  0.00    +0.105 C 
ENDBRANCH  28  31
ENDBRANCH   5  25
BRANCH   9  38
ATOM     38  N   UNL     1     -10.116   0.179  -3.571  0.00  0.00    -0.343 N 
ATOM     39  H   UNL     1      -9.221   0.516  -3.408  0.00  0.00    +0.144 HD
ATOM     40  H   UNL     1     -10.854   0.799  -3.685  0.00  0.00    +0.144 HD
ENDBRANCH   9  38
TORSDOF 8
