REMARK  Name = CHEMBL251015
REMARK  8 active torsions:
REMARK  status: ('A' for Active; 'I' for Inactive)
REMARK    1  A    between atoms: C_1  and  C_2
REMARK    2  A    between atoms: C_4  and  C_30
REMARK    3  A    between atoms: N_12  and  C_13
REMARK    4  A    between atoms: C_16  and  S_19
REMARK    5  A    between atoms: S_19  and  N_22
REMARK    6  A    between atoms: N_22  and  C_23
REMARK    7  A    between atoms: C_23  and  C_24
REMARK    8  A    between atoms: C_24  and  N_25
REMARK                            x       y       z     vdW  Elec       q    Type
REMARK                         _______ _______ _______ _____ _____    ______ ____
ROOT
ATOM      1  C   UNL     1      -0.079   1.314  -0.051  0.00  0.00    +0.046 C 
ATOM      2  C   UNL     1      -0.973   0.113   0.118  0.00  0.00    -0.022 A 
ATOM      3  C   UNL     1      -1.645  -0.391  -0.950  0.00  0.00    +0.014 A 
ATOM      4  C   UNL     1      -2.483  -1.510  -0.812  0.00  0.00    -0.015 A 
ATOM      5  C   UNL     1      -2.641  -2.125   0.418  0.00  0.00    +0.040 A 
ATOM      6  C   UNL     1      -1.956  -1.620   1.532  0.00  0.00    +0.112 A 
ATOM      7  C   UNL     1      -1.108  -0.491   1.379  0.00  0.00    +0.097 A 
ATOM      8  N   UNL     1      -0.459  -0.026   2.453  0.00  0.00    -0.211 NA
ATOM      9  C   UNL     1      -0.623  -0.633   3.615  0.00  0.00    +0.240 A 
ATOM     10  N   UNL     1      -1.420  -1.697   3.740  0.00  0.00    -0.112 NA
ATOM     11  N   UNL     1      -2.077  -2.180   2.742  0.00  0.00    -0.144 NA
ATOM     12  N   UNL     1       0.047  -0.155   4.728  0.00  0.00    -0.282 N 
ATOM     13  H   UNL     1       0.565   0.663   4.669  0.00  0.00    +0.155 HD
ENDROOT
BRANCH   4  14
ATOM     14  C   UNL     1      -3.204  -2.038  -1.994  0.00  0.00    -0.009 A 
ATOM     15  C   UNL     1      -3.934  -1.181  -2.809  0.00  0.00    +0.009 A 
ATOM     16  C   UNL     1      -4.608  -1.676  -3.913  0.00  0.00    +0.003 A 
ATOM     17  C   UNL     1      -4.566  -3.019  -4.223  0.00  0.00    +0.026 A 
ATOM     18  C   UNL     1      -3.843  -3.899  -3.425  0.00  0.00    +0.047 A 
ATOM     19  C   UNL     1      -3.151  -3.408  -2.304  0.00  0.00    +0.007 A 
ATOM     20  C   UNL     1      -2.496  -4.564  -1.693  0.00  0.00    +0.028 A 
ATOM     21  C   UNL     1      -2.808  -5.635  -2.442  0.00  0.00    +0.083 A 
ATOM     22  N   UNL     1      -3.619  -5.258  -3.477  0.00  0.00    -0.361 N 
ATOM     23  H   UNL     1      -3.975  -5.855  -4.153  0.00  0.00    +0.165 HD
ENDBRANCH   4  14
BRANCH  12  24
ATOM     24  C   UNL     1      -0.023  -0.852   5.938  0.00  0.00    +0.034 A 
ATOM     25  C   UNL     1       0.008  -2.240   5.945  0.00  0.00    +0.025 A 
ATOM     26  C   UNL     1      -0.060  -2.925   7.142  0.00  0.00    +0.030 A 
ATOM     27  C   UNL     1      -0.161  -2.230   8.334  0.00  0.00    +0.105 A 
ATOM     28  C   UNL     1      -0.192  -0.848   8.331  0.00  0.00    +0.030 A 
ATOM     29  C   UNL     1      -0.118  -0.156   7.137  0.00  0.00    +0.025 A 
BRANCH  27  30
ATOM     30  S   UNL     1      -0.248  -3.108   9.859  0.00  0.00    +0.058 S 
ATOM     31  O   UNL     1      -0.886  -2.243  10.789  0.00  0.00    -0.153 OA
ATOM     32  O   UNL     1      -0.750  -4.402   9.554  0.00  0.00    -0.153 OA
BRANCH  30  33
ATOM     33  N   UNL     1       1.305  -3.316  10.394  0.00  0.00    -0.192 NA
ATOM     34  H   UNL     1       1.680  -4.208  10.460  0.00  0.00    +0.148 HD
BRANCH  33  35
ATOM     35  C   UNL     1       2.113  -2.152  10.769  0.00  0.00    +0.087 C 
BRANCH  35  36
ATOM     36  C   UNL     1       3.335  -2.615  11.565  0.00  0.00    -0.062 C 
BRANCH  36  37
ATOM     37  N   UNL     1       4.145  -1.448  11.940  0.00  0.00    +0.381 N 
ATOM     38  C   UNL     1       3.420  -0.622  12.940  0.00  0.00    -0.079 C 
ATOM     39  C   UNL     1       4.555   0.179  13.626  0.00  0.00    -0.020 C 
ATOM     40  C   UNL     1       5.709  -0.847  13.697  0.00  0.00    -0.020 C 
ATOM     41  C   UNL     1       5.391  -1.886  12.606  0.00  0.00    -0.079 C 
ATOM     42  H   UNL     1       4.361  -0.897  11.123  0.00  0.00    -0.082 HD
ENDBRANCH  36  37
ENDBRANCH  35  36
ENDBRANCH  33  35
ENDBRANCH  30  33
ENDBRANCH  27  30
ENDBRANCH  12  24
TORSDOF 7
