REMARK  Name = CHEMBL211508
REMARK  7 active torsions:
REMARK  status: ('A' for Active; 'I' for Inactive)
REMARK    1  A    between atoms: C_1  and  O_2
REMARK    2  A    between atoms: O_2  and  C_3
REMARK    3  A    between atoms: C_8  and  O_9
REMARK    4  A    between atoms: O_9  and  C_10
REMARK    5  A    between atoms: C_16  and  C_20
REMARK    6  A    between atoms: C_26  and  N_30
REMARK    7  A    between atoms: C_33  and  N_36
REMARK                            x       y       z     vdW  Elec       q    Type
REMARK                         _______ _______ _______ _____ _____    ______ ____
ROOT
ATOM      1  C   UNL     1      -1.798  -7.110   2.793  0.00  0.00    +0.158 A 
ATOM      2  N   UNL     1      -2.307  -8.152   3.527  0.00  0.00    -0.337 N 
ATOM      3  H   UNL     1      -2.210  -9.097   3.330  0.00  0.00    +0.167 HD
ATOM      4  C   UNL     1      -2.984  -7.601   4.602  0.00  0.00    +0.067 A 
ATOM      5  C   UNL     1      -3.691  -8.140   5.668  0.00  0.00    +0.029 A 
ATOM      6  C   UNL     1      -4.268  -7.307   6.602  0.00  0.00    +0.025 A 
ATOM      7  C   UNL     1      -4.147  -5.924   6.484  0.00  0.00    +0.032 A 
ATOM      8  C   UNL     1      -3.446  -5.371   5.429  0.00  0.00    +0.053 A 
ATOM      9  C   UNL     1      -2.856  -6.207   4.474  0.00  0.00    +0.091 A 
ATOM     10  N   UNL     1      -2.122  -5.969   3.361  0.00  0.00    -0.226 NA
ENDROOT
BRANCH   1  17
ATOM     11  C   UNL     1       0.206  -4.113  -0.126  0.00  0.00    +0.129 A 
ATOM     12  C   UNL     1       0.862  -4.764  -1.178  0.00  0.00    +0.048 A 
ATOM     13  C   UNL     1       0.879  -6.117  -1.283  0.00  0.00    +0.034 A 
ATOM     14  C   UNL     1       0.221  -6.899  -0.311  0.00  0.00    +0.093 A 
ATOM     15  C   UNL     1      -0.468  -6.212   0.793  0.00  0.00    +0.034 A 
ATOM     16  C   UNL     1      -0.445  -4.813   0.849  0.00  0.00    +0.058 A 
ATOM     17  C   UNL     1      -1.008  -7.248   1.565  0.00  0.00    +0.109 A 
ATOM     18  N   UNL     1      -0.653  -8.408   0.949  0.00  0.00    -0.273 N 
ATOM     19  N   UNL     1       0.041  -8.192  -0.110  0.00  0.00    -0.173 NA
ATOM     20  H   UNL     1      -0.895  -9.291   1.270  0.00  0.00    +0.189 HD
BRANCH  11  21
ATOM     21  O   UNL     1       0.222  -2.756  -0.072  0.00  0.00    -0.452 OA
BRANCH  21  27
ATOM     22  C   UNL     1      -0.687  -0.688  -0.833  0.00  0.00    +0.162 A 
ATOM     23  C   UNL     1      -1.512   0.004  -1.706  0.00  0.00    +0.049 A 
ATOM     24  C   UNL     1      -2.242  -0.683  -2.658  0.00  0.00    +0.004 A 
ATOM     25  C   UNL     1      -2.151  -2.060  -2.742  0.00  0.00    +0.004 A 
ATOM     26  C   UNL     1      -1.329  -2.756  -1.876  0.00  0.00    +0.050 A 
ATOM     27  C   UNL     1      -0.591  -2.073  -0.922  0.00  0.00    +0.170 A 
BRANCH  22  29
ATOM     28  C   UNL     1      -0.116   1.408   0.136  0.00  0.00    +0.277 C 
ATOM     29  O   UNL     1       0.032  -0.013   0.104  0.00  0.00    -0.491 OA
ENDBRANCH  22  29
ENDBRANCH  21  27
ENDBRANCH  11  21
ENDBRANCH   1  17
BRANCH   7  30
ATOM     30  N   UNL     1      -4.738  -5.090   7.440  0.00  0.00    -0.330 N 
ATOM     31  C   UNL     1      -4.741  -3.631   7.261  0.00  0.00    +0.103 C 
ATOM     32  C   UNL     1      -6.181  -3.123   7.379  0.00  0.00    +0.004 C 
ATOM     33  C   UNL     1      -6.778  -3.595   8.707  0.00  0.00    -0.066 C 
ATOM     34  C   UNL     1      -6.801  -5.125   8.742  0.00  0.00    +0.004 C 
ATOM     35  C   UNL     1      -5.373  -5.656   8.637  0.00  0.00    +0.103 C 
BRANCH  33  36
ATOM     36  N   UNL     1      -8.148  -3.082   8.837  0.00  0.00    +0.382 N 
ATOM     37  C   UNL     1      -8.125  -1.615   8.796  0.00  0.00    -0.078 C 
ATOM     38  C   UNL     1      -9.557  -1.077   8.850  0.00  0.00    -0.019 C 
ATOM     39  C   UNL     1     -10.222  -1.542  10.149  0.00  0.00    -0.004 C 
ATOM     40  C   UNL     1     -10.174  -3.071  10.216  0.00  0.00    -0.019 C 
ATOM     41  C   UNL     1      -8.719  -3.535  10.111  0.00  0.00    -0.078 C 
ATOM     42  H   UNL     1      -8.710  -3.429   8.075  0.00  0.00    -0.081 HD
ENDBRANCH  33  36
ENDBRANCH   7  30
TORSDOF 6
