REMARK  Name = CHEMBL207471
REMARK  1 active torsions:
REMARK  status: ('A' for Active; 'I' for Inactive)
REMARK    1  A    between atoms: C_6  and  C_7
REMARK                            x       y       z     vdW  Elec       q    Type
REMARK                         _______ _______ _______ _____ _____    ______ ____
ROOT
ATOM      1  C   UNL     1      -1.194  -0.889  -0.150  0.00  0.00    +0.078 A 
ATOM      2  C   UNL     1      -1.491  -1.984   0.657  0.00  0.00    +0.086 A 
ATOM      3  C   UNL     1      -0.799  -2.745   1.626  0.00  0.00    +0.131 A 
ATOM      4  N   UNL     1      -1.439  -3.754   2.202  0.00  0.00    -0.220 NA
ATOM      5  C   UNL     1      -2.690  -4.062   1.898  0.00  0.00    +0.225 A 
ATOM      6  N   UNL     1      -3.405  -3.412   1.014  0.00  0.00    -0.214 NA
ATOM      7  C   UNL     1      -2.879  -2.363   0.351  0.00  0.00    +0.186 A 
ATOM      8  N   UNL     1      -3.311  -1.524  -0.567  0.00  0.00    -0.153 NA
ATOM      9  N   UNL     1      -2.295  -0.614  -0.879  0.00  0.00    -0.274 N 
ATOM     10  N   UNL     1       0.503  -2.448   1.962  0.00  0.00    -0.342 N 
ATOM     11  H   UNL     1       0.912  -1.628   1.643  0.00  0.00    +0.144 HD
ATOM     12  H   UNL     1       1.012  -3.058   2.518  0.00  0.00    +0.144 HD
ATOM     13  H   UNL     1      -2.370   0.106  -1.525  0.00  0.00    +0.189 HD
ENDROOT
BRANCH   1  19
ATOM     14  C   UNL     1       0.106   1.234  -0.090  0.00  0.00    +0.011 A 
ATOM     15  C   UNL     1       1.307   1.910  -0.132  0.00  0.00    +0.020 A 
ATOM     16  C   UNL     1       2.494   1.211  -0.278  0.00  0.00    +0.041 A 
ATOM     17  C   UNL     1       2.483  -0.170  -0.383  0.00  0.00    +0.020 A 
ATOM     18  C   UNL     1       1.288  -0.858  -0.342  0.00  0.00    +0.011 A 
ATOM     19  C   UNL     1       0.088  -0.159  -0.195  0.00  0.00    +0.001 A 
ATOM     20 CL   UNL     1       4.002   2.070  -0.331  0.00  0.00    -0.084 Cl
ENDBRANCH   1  19
TORSDOF 1
