REMARK  Name = CHEMBL364623
REMARK  5 active torsions:
REMARK  status: ('A' for Active; 'I' for Inactive)
REMARK    1  A    between atoms: C_1  and  C_2
REMARK    2  A    between atoms: C_7  and  N_8
REMARK    3  A    between atoms: C_9  and  C_11
REMARK    4  A    between atoms: C_19  and  C_24
REMARK    5  A    between atoms: C_21  and  C_23
REMARK                            x       y       z     vdW  Elec       q    Type
REMARK                         _______ _______ _______ _____ _____    ______ ____
ROOT
ATOM      1  C   UNL     1      -0.432   0.105   4.803  0.00  0.00    +0.095 A 
ATOM      2  C   UNL     1      -0.797  -0.331   6.069  0.00  0.00    +0.133 A 
ATOM      3  N   UNL     1      -0.811   0.574   7.015  0.00  0.00    -0.232 NA
ATOM      4  C   UNL     1      -0.493   1.833   6.769  0.00  0.00    +0.164 A 
ATOM      5  S   UNL     1      -0.130   1.835   5.126  0.00  0.00    -0.047 S 
ATOM      6  N   UNL     1      -0.461   2.894   7.652  0.00  0.00    -0.279 N 
ATOM      7  C   UNL     1      -0.683   2.677   9.005  0.00  0.00    +0.128 A 
ATOM      8  C   UNL     1      -0.542   3.720   9.923  0.00  0.00    +0.067 A 
ATOM      9  C   UNL     1      -0.775   3.454  11.258  0.00  0.00    +0.044 A 
ATOM     10  N   UNL     1      -1.122   2.228  11.622  0.00  0.00    -0.237 NA
ATOM     11  C   UNL     1      -1.247   1.265  10.732  0.00  0.00    +0.128 A 
ATOM     12  N   UNL     1      -1.039   1.475   9.447  0.00  0.00    -0.217 NA
ATOM     13  C   UNL     1      -1.643  -0.113  11.194  0.00  0.00    +0.088 C 
ATOM     14  C   UNL     1      -0.636   4.545  12.288  0.00  0.00    +0.066 C 
ATOM     15  H   UNL     1      -0.282   3.790   7.328  0.00  0.00    +0.155 HD
ENDROOT
BRANCH   1  17
ATOM     16  N   UNL     1       0.061  -0.019   2.423  0.00  0.00    -0.280 N 
ATOM     17  C   UNL     1      -0.321  -0.646   3.553  0.00  0.00    +0.256 C 
ATOM     18  O   UNL     1      -0.573  -1.837   3.533  0.00  0.00    -0.269 OA
ATOM     19  H   UNL     1       0.340   0.910   2.453  0.00  0.00    +0.155 HD
BRANCH  16  26
ATOM     20  C   UNL     1      -1.310   1.151   0.222  0.00  0.00    +0.046 C 
ATOM     21  C   UNL     1      -0.601  -0.173   0.105  0.00  0.00    -0.028 A 
ATOM     22  C   UNL     1      -0.599  -0.853  -1.097  0.00  0.00    +0.005 A 
ATOM     23  C   UNL     1       0.052  -2.068  -1.205  0.00  0.00    +0.002 A 
ATOM     24  C   UNL     1       0.703  -2.607  -0.111  0.00  0.00    +0.022 A 
ATOM     25  C   UNL     1       0.705  -1.933   1.095  0.00  0.00    +0.062 A 
ATOM     26  C   UNL     1       0.057  -0.708   1.205  0.00  0.00    +0.055 A 
ATOM     27 CL   UNL     1       1.522  -2.610   2.469  0.00  0.00    -0.082 Cl
ENDBRANCH  16  26
ENDBRANCH   1  17
TORSDOF 2
