REMARK  Name = CHEMBL250019
REMARK  10 active torsions:
REMARK  status: ('A' for Active; 'I' for Inactive)
REMARK    1  A    between atoms: C_1  and  C_2
REMARK    2  A    between atoms: C_4  and  C_31
REMARK    3  A    between atoms: N_12  and  C_13
REMARK    4  A    between atoms: C_16  and  S_19
REMARK    5  A    between atoms: S_19  and  N_22
REMARK    6  A    between atoms: N_22  and  C_23
REMARK    7  A    between atoms: N_22  and  C_24
REMARK    8  A    between atoms: C_24  and  C_25
REMARK    9  A    between atoms: C_25  and  N_26
REMARK   10  A    between atoms: C_33  and  O_38
REMARK                            x       y       z     vdW  Elec       q    Type
REMARK                         _______ _______ _______ _____ _____    ______ ____
ROOT
ATOM      1  C   UNL     1      -0.080   1.315  -0.051  0.00  0.00    +0.046 C 
ATOM      2  C   UNL     1      -0.973   0.113   0.119  0.00  0.00    -0.022 A 
ATOM      3  C   UNL     1      -1.646  -0.391  -0.950  0.00  0.00    +0.014 A 
ATOM      4  C   UNL     1      -2.483  -1.510  -0.812  0.00  0.00    -0.014 A 
ATOM      5  C   UNL     1      -2.641  -2.124   0.417  0.00  0.00    +0.040 A 
ATOM      6  C   UNL     1      -1.957  -1.619   1.532  0.00  0.00    +0.112 A 
ATOM      7  C   UNL     1      -1.108  -0.491   1.379  0.00  0.00    +0.097 A 
ATOM      8  N   UNL     1      -0.458  -0.026   2.453  0.00  0.00    -0.211 NA
ATOM      9  C   UNL     1      -0.623  -0.634   3.615  0.00  0.00    +0.240 A 
ATOM     10  N   UNL     1      -1.420  -1.697   3.740  0.00  0.00    -0.112 NA
ATOM     11  N   UNL     1      -2.078  -2.179   2.742  0.00  0.00    -0.144 NA
ATOM     12  N   UNL     1       0.048  -0.157   4.728  0.00  0.00    -0.282 N 
ATOM     13  H   UNL     1       0.566   0.661   4.669  0.00  0.00    +0.155 HD
ENDROOT
BRANCH   4  14
ATOM     14  C   UNL     1      -3.205  -2.038  -1.995  0.00  0.00    +0.004 A 
ATOM     15  C   UNL     1      -3.154  -3.397  -2.296  0.00  0.00    +0.055 A 
ATOM     16  C   UNL     1      -3.830  -3.884  -3.402  0.00  0.00    +0.118 A 
ATOM     17  C   UNL     1      -4.557  -3.019  -4.208  0.00  0.00    +0.047 A 
ATOM     18  C   UNL     1      -4.609  -1.670  -3.912  0.00  0.00    +0.024 A 
ATOM     19  C   UNL     1      -3.942  -1.176  -2.807  0.00  0.00    +0.049 A 
ATOM     20 CL   UNL     1      -4.015   0.518  -2.434  0.00  0.00    -0.083 Cl
BRANCH  16  21
ATOM     21  O   UNL     1      -3.782  -5.210  -3.698  0.00  0.00    -0.507 OA
ATOM     22  H   UNL     1      -4.484  -5.731  -3.285  0.00  0.00    +0.292 HD
ENDBRANCH  16  21
ENDBRANCH   4  14
BRANCH  12  23
ATOM     23  C   UNL     1      -0.022  -0.854   5.938  0.00  0.00    +0.034 A 
ATOM     24  C   UNL     1       0.008  -2.242   5.944  0.00  0.00    +0.025 A 
ATOM     25  C   UNL     1      -0.061  -2.928   7.141  0.00  0.00    +0.030 A 
ATOM     26  C   UNL     1      -0.160  -2.233   8.333  0.00  0.00    +0.106 A 
ATOM     27  C   UNL     1      -0.191  -0.851   8.330  0.00  0.00    +0.030 A 
ATOM     28  C   UNL     1      -0.116  -0.159   7.137  0.00  0.00    +0.025 A 
BRANCH  26  29
ATOM     29  S   UNL     1      -0.249  -3.112   9.857  0.00  0.00    +0.061 S 
ATOM     30  O   UNL     1      -0.886  -2.247  10.788  0.00  0.00    -0.153 OA
ATOM     31  O   UNL     1      -0.751  -4.405   9.552  0.00  0.00    -0.153 OA
BRANCH  29  32
ATOM     32  N   UNL     1       1.304  -3.321  10.393  0.00  0.00    -0.181 NA
ATOM     33  C   UNL     1       1.923  -2.314  11.259  0.00  0.00    +0.131 C 
BRANCH  32  34
ATOM     34  C   UNL     1       2.060  -4.513  10.000  0.00  0.00    +0.090 C 
BRANCH  34  35
ATOM     35  C   UNL     1       2.914  -4.194   8.772  0.00  0.00    -0.062 C 
BRANCH  35  36
ATOM     36  N   UNL     1       3.672  -5.389   8.378  0.00  0.00    +0.381 N 
ATOM     37  C   UNL     1       2.751  -6.429   7.851  0.00  0.00    -0.079 C 
ATOM     38  C   UNL     1       3.680  -7.324   6.993  0.00  0.00    -0.020 C 
ATOM     39  C   UNL     1       4.647  -6.303   6.351  0.00  0.00    -0.020 C 
ATOM     40  C   UNL     1       4.593  -5.066   7.267  0.00  0.00    -0.079 C 
ATOM     41  H   UNL     1       4.190  -5.748   9.166  0.00  0.00    -0.082 HD
ENDBRANCH  35  36
ENDBRANCH  34  35
ENDBRANCH  32  34
ENDBRANCH  29  32
ENDBRANCH  26  29
ENDBRANCH  12  23
TORSDOF 8
