REMARK  Name = CHEMBL205723
REMARK  9 active torsions:
REMARK  status: ('A' for Active; 'I' for Inactive)
REMARK    1  A    between atoms: C_1  and  C_2
REMARK    2  A    between atoms: C_5  and  N_21
REMARK    3  A    between atoms: C_7  and  N_8
REMARK    4  A    between atoms: C_13  and  C_15
REMARK    5  A    between atoms: C_22  and  C_24
REMARK    6  A    between atoms: C_27  and  C_34
REMARK    7  A    between atoms: C_28  and  C_30
REMARK    8  A    between atoms: C_34  and  N_35
REMARK    9  A    between atoms: N_38  and  C_41
REMARK                            x       y       z     vdW  Elec       q    Type
REMARK                         _______ _______ _______ _____ _____    ______ ____
ROOT
ATOM      1  N   UNL     1       0.787  -2.111  -0.713  0.00  0.00    -0.281 N 
ATOM      2  C   UNL     1       0.689  -2.422  -2.020  0.00  0.00    +0.248 C 
ATOM      3  O   UNL     1       0.379  -1.568  -2.827  0.00  0.00    -0.270 OA
ATOM      4  H   UNL     1       0.966  -2.806  -0.060  0.00  0.00    +0.155 HD
ENDROOT
BRANCH   1   9
ATOM      5  C   UNL     1       0.142   3.274   0.968  0.00  0.00    +0.045 C 
ATOM      6  C   UNL     1       0.315   1.844   0.523  0.00  0.00    -0.029 A 
ATOM      7  C   UNL     1      -0.465   1.341  -0.501  0.00  0.00    +0.007 A 
ATOM      8  C   UNL     1      -0.310   0.032  -0.912  0.00  0.00    +0.024 A 
ATOM      9  C   UNL     1       0.632  -0.784  -0.297  0.00  0.00    +0.035 A 
ATOM     10  C   UNL     1       1.417  -0.283   0.731  0.00  0.00    +0.047 A 
ATOM     11  C   UNL     1       1.262   1.035   1.138  0.00  0.00    +0.038 A 
BRANCH  11  12
ATOM     12  N   UNL     1       2.055   1.547   2.170  0.00  0.00    -0.283 N 
ATOM     13  C   UNL     1       2.511   0.708   3.174  0.00  0.00    +0.220 A 
ATOM     14  N   UNL     1       2.089  -0.548   3.208  0.00  0.00    -0.223 NA
ATOM     15  C   UNL     1       2.501  -1.380   4.150  0.00  0.00    +0.116 A 
ATOM     16  C   UNL     1       3.386  -0.928   5.113  0.00  0.00    +0.048 A 
ATOM     17  C   UNL     1       3.814   0.401   5.052  0.00  0.00    +0.079 A 
ATOM     18  N   UNL     1       3.361   1.180   4.072  0.00  0.00    -0.214 NA
ATOM     19  H   UNL     1       2.287   2.489   2.183  0.00  0.00    +0.155 HD
BRANCH  17  20
ATOM     20  C   UNL     1       4.762   0.934   6.060  0.00  0.00    +0.037 A 
ATOM     21  C   UNL     1       5.252   0.120   7.086  0.00  0.00    +0.124 A 
ATOM     22  N   UNL     1       6.096   0.636   7.963  0.00  0.00    -0.243 NA
ATOM     23  C   UNL     1       6.475   1.895   7.880  0.00  0.00    +0.221 A 
ATOM     24  N   UNL     1       6.037   2.696   6.929  0.00  0.00    -0.243 NA
ATOM     25  C   UNL     1       5.196   2.261   6.007  0.00  0.00    +0.124 A 
ENDBRANCH  17  20
ENDBRANCH  11  12
ENDBRANCH   1   9
BRANCH   2  26
ATOM     26  C   UNL     1       0.959  -3.803  -2.473  0.00  0.00    +0.038 A 
ATOM     27  C   UNL     1       1.310  -4.788  -1.548  0.00  0.00    +0.013 A 
ATOM     28  C   UNL     1       1.561  -6.075  -1.977  0.00  0.00    +0.003 A 
ATOM     29  C   UNL     1       1.465  -6.391  -3.321  0.00  0.00    -0.052 A 
ATOM     30  C   UNL     1       1.118  -5.419  -4.243  0.00  0.00    +0.057 A 
ATOM     31  C   UNL     1       0.859  -4.130  -3.826  0.00  0.00    +0.025 A 
BRANCH  30  32
ATOM     32  C   UNL     1       1.016  -5.772  -5.705  0.00  0.00    +0.418 C 
ATOM     33  F   UNL     1       0.641  -4.638  -6.433  0.00  0.00    -0.166 F 
ATOM     34  F   UNL     1       2.257  -6.229  -6.161  0.00  0.00    -0.166 F 
ATOM     35  F   UNL     1       0.057  -6.776  -5.876  0.00  0.00    -0.166 F 
ENDBRANCH  30  32
BRANCH  29  36
ATOM     36  C   UNL     1       1.740  -7.799  -3.782  0.00  0.00    -0.042 C 
BRANCH  36  37
ATOM     37  N   UNL     1       2.470  -8.524  -2.734  0.00  0.00    +0.384 N 
ATOM     38  C   UNL     1       3.797  -7.922  -2.556  0.00  0.00    -0.063 C 
ATOM     39  C   UNL     1       4.551  -8.665  -1.450  0.00  0.00    +0.065 C 
ATOM     40  N   UNL     1       4.681 -10.082  -1.818  0.00  0.00    -0.309 NA
ATOM     41  C   UNL     1       3.360 -10.692  -2.024  0.00  0.00    +0.065 C 
ATOM     42  C   UNL     1       2.617  -9.932  -3.125  0.00  0.00    -0.063 C 
ATOM     43  C   UNL     1       5.450 -10.820  -0.806  0.00  0.00    +0.104 C 
ATOM     44  H   UNL     1       1.956  -8.468  -1.867  0.00  0.00    -0.081 HD
ENDBRANCH  36  37
ENDBRANCH  29  36
ENDBRANCH   2  26
TORSDOF 7
