REMARK  Name = CHEMBL103667
REMARK  12 active torsions:
REMARK  status: ('A' for Active; 'I' for Inactive)
REMARK    1  A    between atoms: C_1  and  C_2
REMARK    2  A    between atoms: C_5  and  N_8
REMARK    3  A    between atoms: C_9  and  N_17
REMARK    4  A    between atoms: C_11  and  C_13
REMARK    5  A    between atoms: C_13  and  C_14
REMARK    6  A    between atoms: C_13  and  C_15
REMARK    7  A    between atoms: C_13  and  C_16
REMARK    8  A    between atoms: N_20  and  C_21
REMARK    9  A    between atoms: C_24  and  O_31
REMARK   10  A    between atoms: O_31  and  C_32
REMARK   11  A    between atoms: C_32  and  C_33
REMARK   12  A    between atoms: C_33  and  N_34
REMARK                            x       y       z     vdW  Elec       q    Type
REMARK                         _______ _______ _______ _____ _____    ______ ____
ROOT
ATOM      1  N   UNL     1       1.600  -3.945   2.579  0.00  0.00    -0.254 N 
ATOM      2  C   UNL     1       2.161  -4.933   3.305  0.00  0.00    +0.309 C 
ATOM      3  O   UNL     1       2.062  -6.088   2.938  0.00  0.00    -0.252 OA
ATOM      4  N   UNL     1       2.831  -4.639   4.437  0.00  0.00    -0.269 N 
ATOM      5  H   UNL     1       1.678  -3.024   2.871  0.00  0.00    +0.158 HD
ATOM      6  H   UNL     1       2.967  -3.714   4.694  0.00  0.00    +0.156 HD
ENDROOT
BRANCH   4   7
ATOM      7  C   UNL     1       3.329  -5.670   5.241  0.00  0.00    +0.043 A 
ATOM      8  C   UNL     1       3.790  -6.835   4.669  0.00  0.00    +0.027 A 
ATOM      9  C   UNL     1       4.289  -7.868   5.458  0.00  0.00    +0.048 A 
ATOM     10  C   UNL     1       4.335  -7.755   6.819  0.00  0.00    +0.128 A 
ATOM     11  C   UNL     1       3.873  -6.578   7.440  0.00  0.00    +0.026 A 
ATOM     12  C   UNL     1       3.369  -5.521   6.643  0.00  0.00    +0.007 A 
ATOM     13  C   UNL     1       2.913  -4.346   7.264  0.00  0.00    +0.010 A 
ATOM     14  C   UNL     1       2.966  -4.237   8.620  0.00  0.00    +0.001 A 
ATOM     15  C   UNL     1       3.467  -5.274   9.404  0.00  0.00    +0.001 A 
ATOM     16  C   UNL     1       3.907  -6.431   8.837  0.00  0.00    +0.012 A 
BRANCH  10  17
ATOM     17  O   UNL     1       4.825  -8.775   7.571  0.00  0.00    -0.493 OA
BRANCH  17  18
ATOM     18  C   UNL     1       5.276  -9.938   6.872  0.00  0.00    +0.210 C 
BRANCH  18  19
ATOM     19  C   UNL     1       5.788 -10.970   7.878  0.00  0.00    -0.037 C 
BRANCH  19  20
ATOM     20  N   UNL     1       4.683 -11.404   8.742  0.00  0.00    +0.385 N 
ATOM     21  C   UNL     1       5.202 -12.284   9.798  0.00  0.00    -0.050 C 
ATOM     22  C   UNL     1       4.047 -12.733  10.697  0.00  0.00    +0.141 C 
ATOM     23  O   UNL     1       3.059 -13.394   9.902  0.00  0.00    -0.383 OA
ATOM     24  C   UNL     1       2.540 -12.584   8.843  0.00  0.00    +0.141 C 
ATOM     25  C   UNL     1       3.691 -12.134   7.941  0.00  0.00    -0.050 C 
ATOM     26  H   UNL     1       4.247 -10.596   9.162  0.00  0.00    -0.081 HD
ENDBRANCH  19  20
ENDBRANCH  18  19
ENDBRANCH  17  18
ENDBRANCH  10  17
ENDBRANCH   4   7
BRANCH   1  28
ATOM     27  N   UNL     1       0.293  -3.358   0.581  0.00  0.00    -0.218 N 
ATOM     28  C   UNL     1       0.906  -4.248   1.408  0.00  0.00    +0.130 A 
ATOM     29  C   UNL     1       0.719  -5.489   0.881  0.00  0.00    +0.069 A 
ATOM     30  C   UNL     1      -0.026  -5.349  -0.294  0.00  0.00    +0.071 A 
ATOM     31  N   UNL     1      -0.286  -4.079  -0.471  0.00  0.00    -0.169 NA
BRANCH  27  36
ATOM     32  C   UNL     1       0.097   2.271   1.284  0.00  0.00    +0.044 C 
ATOM     33  C   UNL     1       0.149   0.776   1.097  0.00  0.00    -0.050 A 
ATOM     34  C   UNL     1       0.226   0.242  -0.176  0.00  0.00    +0.005 A 
ATOM     35  C   UNL     1       0.275  -1.127  -0.350  0.00  0.00    +0.028 A 
ATOM     36  C   UNL     1       0.245  -1.968   0.755  0.00  0.00    +0.067 A 
ATOM     37  C   UNL     1       0.168  -1.428   2.032  0.00  0.00    +0.028 A 
ATOM     38  C   UNL     1       0.125  -0.058   2.200  0.00  0.00    +0.005 A 
ENDBRANCH  27  36
BRANCH  30  39
ATOM     39  C   UNL     1      -0.462  -6.472  -1.199  0.00  0.00    +0.006 C 
ATOM     40  C   UNL     1      -1.621  -7.231  -0.549  0.00  0.00    +0.017 C 
ATOM     41  C   UNL     1      -0.918  -5.896  -2.542  0.00  0.00    +0.017 C 
ATOM     42  C   UNL     1       0.711  -7.428  -1.426  0.00  0.00    +0.017 C 
ENDBRANCH  30  39
ENDBRANCH   1  28
TORSDOF 8
