REMARK  Name = CHEMBL536983
REMARK  13 active torsions:
REMARK  status: ('A' for Active; 'I' for Inactive)
REMARK    1  A    between atoms: C_1  and  C_2
REMARK    2  A    between atoms: C_5  and  N_21
REMARK    3  A    between atoms: C_7  and  N_8
REMARK    4  A    between atoms: C_13  and  C_15
REMARK    5  A    between atoms: N_21  and  C_22
REMARK    6  A    between atoms: C_22  and  C_23
REMARK    7  A    between atoms: C_22  and  O_41
REMARK    8  A    between atoms: C_26  and  C_33
REMARK    9  A    between atoms: C_27  and  C_29
REMARK   10  A    between atoms: C_33  and  N_34
REMARK   11  A    between atoms: C_36  and  N_38
REMARK   12  A    between atoms: N_38  and  C_39
REMARK   13  A    between atoms: N_38  and  C_40
REMARK                            x       y       z     vdW  Elec       q    Type
REMARK                         _______ _______ _______ _____ _____    ______ ____
ROOT
ATOM      1  N   UNL     1       0.206  -5.337   0.011  0.00  0.00    -0.316 N 
ATOM      2  H   UNL     1       0.227  -5.669   0.922  0.00  0.00    +0.149 HD
ENDROOT
BRANCH   1   7
ATOM      3  C   UNL     1      -0.996   0.115  -1.012  0.00  0.00    +0.045 C 
ATOM      4  C   UNL     1      -0.677  -1.333  -0.739  0.00  0.00    -0.029 A 
ATOM      5  C   UNL     1      -0.412  -2.191  -1.789  0.00  0.00    +0.007 A 
ATOM      6  C   UNL     1      -0.120  -3.518  -1.543  0.00  0.00    +0.023 A 
ATOM      7  C   UNL     1      -0.090  -3.995  -0.237  0.00  0.00    +0.031 A 
ATOM      8  C   UNL     1      -0.355  -3.135   0.819  0.00  0.00    +0.046 A 
ATOM      9  C   UNL     1      -0.643  -1.801   0.569  0.00  0.00    +0.038 A 
BRANCH   9  10
ATOM     10  N   UNL     1      -0.905  -0.930   1.631  0.00  0.00    -0.283 N 
ATOM     11  C   UNL     1      -1.512  -1.405   2.782  0.00  0.00    +0.220 A 
ATOM     12  N   UNL     1      -1.944  -2.657   2.815  0.00  0.00    -0.223 NA
ATOM     13  C   UNL     1      -2.529  -3.148   3.896  0.00  0.00    +0.116 A 
ATOM     14  C   UNL     1      -2.690  -2.337   5.006  0.00  0.00    +0.048 A 
ATOM     15  C   UNL     1      -2.225  -1.021   4.941  0.00  0.00    +0.079 A 
ATOM     16  N   UNL     1      -1.641  -0.597   3.823  0.00  0.00    -0.214 NA
ATOM     17  H   UNL     1      -0.661   0.006   1.562  0.00  0.00    +0.155 HD
BRANCH  15  18
ATOM     18  C   UNL     1      -2.375  -0.112   6.104  0.00  0.00    +0.037 A 
ATOM     19  C   UNL     1      -2.976  -0.551   7.286  0.00  0.00    +0.124 A 
ATOM     20  N   UNL     1      -3.088   0.291   8.298  0.00  0.00    -0.243 NA
ATOM     21  C   UNL     1      -2.643   1.529   8.203  0.00  0.00    +0.221 A 
ATOM     22  N   UNL     1      -2.070   1.983   7.106  0.00  0.00    -0.243 NA
ATOM     23  C   UNL     1      -1.913   1.206   6.049  0.00  0.00    +0.124 A 
ENDBRANCH  15  18
ENDBRANCH   9  10
ENDBRANCH   1   7
BRANCH   1  24
ATOM     24  C   UNL     1       0.485  -6.244  -1.106  0.00  0.00    +0.232 C 
BRANCH  24  25
ATOM     25  C   UNL     1       1.530  -7.247  -0.689  0.00  0.00    -0.001 A 
ATOM     26  C   UNL     1       1.619  -7.643   0.632  0.00  0.00    +0.008 A 
ATOM     27  C   UNL     1       2.577  -8.563   1.015  0.00  0.00    +0.003 A 
ATOM     28  C   UNL     1       3.446  -9.087   0.075  0.00  0.00    -0.052 A 
ATOM     29  C   UNL     1       3.356  -8.691  -1.246  0.00  0.00    +0.057 A 
ATOM     30  C   UNL     1       2.395  -7.775  -1.629  0.00  0.00    +0.020 A 
BRANCH  29  31
ATOM     31  C   UNL     1       4.303  -9.262  -2.270  0.00  0.00    +0.418 C 
ATOM     32  F   UNL     1       4.002  -8.734  -3.530  0.00  0.00    -0.166 F 
ATOM     33  F   UNL     1       5.618  -8.929  -1.926  0.00  0.00    -0.166 F 
ATOM     34  F   UNL     1       4.169 -10.655  -2.304  0.00  0.00    -0.166 F 
ENDBRANCH  29  31
BRANCH  28  35
ATOM     35  C   UNL     1       4.492 -10.089   0.492  0.00  0.00    -0.042 C 
BRANCH  35  36
ATOM     36  N   UNL     1       4.319 -10.414   1.914  0.00  0.00    +0.384 N 
ATOM     37  C   UNL     1       5.038  -9.497   2.817  0.00  0.00    -0.061 C 
ATOM     38  C   UNL     1       5.367 -10.710   3.698  0.00  0.00    +0.023 C 
ATOM     39  C   UNL     1       5.214 -11.488   2.383  0.00  0.00    -0.061 C 
ATOM     40  H   UNL     1       3.353 -10.556   2.171  0.00  0.00    -0.081 HD
BRANCH  38  41
ATOM     41  N   UNL     1       4.342 -11.020   4.703  0.00  0.00    -0.309 NA
ATOM     42  C   UNL     1       4.726 -12.189   5.505  0.00  0.00    +0.104 C 
ATOM     43  C   UNL     1       4.079  -9.857   5.562  0.00  0.00    +0.104 C 
ENDBRANCH  38  41
ENDBRANCH  35  36
ENDBRANCH  28  35
ENDBRANCH  24  25
BRANCH  24  44
ATOM     44  O   UNL     1      -0.714  -6.929  -1.474  0.00  0.00    -0.370 OA
ATOM     45  H   UNL     1      -1.096  -7.462  -0.763  0.00  0.00    +0.212 HD
ENDBRANCH  24  44
ENDBRANCH   1  24
TORSDOF 10
