REMARK  Name = CHEMBL1171658
REMARK  9 active torsions:
REMARK  status: ('A' for Active; 'I' for Inactive)
REMARK    1  A    between atoms: C_1  and  C_2
REMARK    2  A    between atoms: C_5  and  C_22
REMARK    3  A    between atoms: C_7  and  C_8
REMARK    4  A    between atoms: C_9  and  C_10
REMARK    5  A    between atoms: N_24  and  C_25
REMARK    6  A    between atoms: C_28  and  C_35
REMARK    7  A    between atoms: C_29  and  C_31
REMARK    8  A    between atoms: C_35  and  N_36
REMARK    9  A    between atoms: N_39  and  C_42
REMARK                            x       y       z     vdW  Elec       q    Type
REMARK                         _______ _______ _______ _____ _____    ______ ____
ROOT
ATOM      1  C   UNL     1       0.020  -4.284  -0.029  0.00  0.00    +0.248 C 
ATOM      2  O   UNL     1       0.612  -4.861   0.863  0.00  0.00    -0.270 OA
ATOM      3  N   UNL     1      -0.495  -4.983  -1.058  0.00  0.00    -0.281 N 
ATOM      4  H   UNL     1      -1.033  -4.534  -1.729  0.00  0.00    +0.155 HD
ENDROOT
BRANCH   1   9
ATOM      5  C   UNL     1      -0.597   1.447   0.120  0.00  0.00    +0.045 C 
ATOM      6  C   UNL     1      -0.433  -0.051   0.085  0.00  0.00    -0.035 A 
ATOM      7  C   UNL     1      -0.958  -0.776  -0.966  0.00  0.00    +0.005 A 
ATOM      8  C   UNL     1      -0.813  -2.149  -1.007  0.00  0.00    +0.013 A 
ATOM      9  C   UNL     1      -0.133  -2.814   0.017  0.00  0.00    +0.038 A 
ATOM     10  C   UNL     1       0.399  -2.089   1.081  0.00  0.00    +0.030 A 
ATOM     11  C   UNL     1       0.254  -0.702   1.113  0.00  0.00    +0.029 A 
BRANCH  11  12
ATOM     12  C   UNL     1       0.803   0.052   2.200  0.00  0.00    -0.061 C 
ATOM     13  C   UNL     1       1.254   0.670   3.090  0.00  0.00    -0.059 C 
BRANCH  13  14
ATOM     14  C   UNL     1       1.803   1.425   4.177  0.00  0.00    +0.045 A 
ATOM     15  C   UNL     1       1.652   2.818   4.224  0.00  0.00    +0.047 A 
ATOM     16  C   UNL     1       2.202   3.498   5.296  0.00  0.00    +0.087 A 
ATOM     17  C   UNL     1       2.883   2.784   6.290  0.00  0.00    +0.158 A 
ATOM     18  N   UNL     1       3.317   3.717   7.222  0.00  0.00    -0.291 N 
ATOM     19  H   UNL     1       3.821   3.521   8.027  0.00  0.00    +0.172 HD
ATOM     20  C   UNL     1       2.922   4.939   6.821  0.00  0.00    +0.326 A 
ATOM     21  O   UNL     1       3.144   5.977   7.416  0.00  0.00    -0.247 OA
ATOM     22  N   UNL     1       2.246   4.841   5.660  0.00  0.00    -0.305 N 
ATOM     23  H   UNL     1       1.857   5.578   5.164  0.00  0.00    +0.170 HD
ATOM     24  N   UNL     1       3.005   1.468   6.210  0.00  0.00    -0.235 NA
ATOM     25  C   UNL     1       2.492   0.783   5.209  0.00  0.00    +0.130 A 
ENDBRANCH  13  14
ENDBRANCH  11  12
ENDBRANCH   1   9
BRANCH   3  26
ATOM     26  C   UNL     1      -0.256  -6.357  -1.160  0.00  0.00    +0.034 A 
ATOM     27  C   UNL     1      -0.183  -7.138  -0.013  0.00  0.00    +0.023 A 
ATOM     28  C   UNL     1       0.054  -8.494  -0.116  0.00  0.00    +0.004 A 
ATOM     29  C   UNL     1       0.217  -9.076  -1.360  0.00  0.00    -0.052 A 
ATOM     30  C   UNL     1       0.145  -8.303  -2.503  0.00  0.00    +0.058 A 
ATOM     31  C   UNL     1      -0.097  -6.946  -2.407  0.00  0.00    +0.036 A 
BRANCH  30  32
ATOM     32  C   UNL     1       0.324  -8.941  -3.857  0.00  0.00    +0.418 C 
ATOM     33  F   UNL     1       0.090  -7.990  -4.856  0.00  0.00    -0.166 F 
ATOM     34  F   UNL     1       1.630  -9.428  -3.974  0.00  0.00    -0.166 F 
ATOM     35  F   UNL     1      -0.582  -9.998  -3.997  0.00  0.00    -0.166 F 
ENDBRANCH  30  32
BRANCH  29  36
ATOM     36  C   UNL     1       0.476 -10.557  -1.469  0.00  0.00    -0.042 C 
BRANCH  36  37
ATOM     37  N   UNL     1       1.030 -11.052  -0.202  0.00  0.00    +0.384 N 
ATOM     38  C   UNL     1       2.363 -10.471   0.009  0.00  0.00    -0.063 C 
ATOM     39  C   UNL     1       2.933 -10.972   1.339  0.00  0.00    +0.065 C 
ATOM     40  N   UNL     1       3.018 -12.438   1.310  0.00  0.00    -0.309 NA
ATOM     41  C   UNL     1       1.695 -13.034   1.075  0.00  0.00    +0.065 C 
ATOM     42  C   UNL     1       1.135 -12.516  -0.252  0.00  0.00    -0.063 C 
ATOM     43  C   UNL     1       3.614 -12.955   2.549  0.00  0.00    +0.104 C 
ATOM     44  H   UNL     1       0.423 -10.784   0.558  0.00  0.00    -0.081 HD
ENDBRANCH  36  37
ENDBRANCH  29  36
ENDBRANCH   3  26
TORSDOF 7
