REMARK  Name = CHEMBL195029
REMARK  11 active torsions:
REMARK  status: ('A' for Active; 'I' for Inactive)
REMARK    1  A    between atoms: C_1  and  O_2
REMARK    2  A    between atoms: O_2  and  C_3
REMARK    3  A    between atoms: C_12  and  O_13
REMARK    4  A    between atoms: O_13  and  C_14
REMARK    5  A    between atoms: C_14  and  C_15
REMARK    6  A    between atoms: C_15  and  N_16
REMARK    7  A    between atoms: C_24  and  C_37
REMARK    8  A    between atoms: C_25  and  N_26
REMARK    9  A    between atoms: N_26  and  C_27
REMARK   10  A    between atoms: C_29  and  O_35
REMARK   11  A    between atoms: O_35  and  C_36
REMARK                            x       y       z     vdW  Elec       q    Type
REMARK                         _______ _______ _______ _____ _____    ______ ____
ROOT
ATOM      1  C   UNL     1      -1.964  -0.468   0.958  0.00  0.00    +0.162 A 
ATOM      2  C   UNL     1      -3.204   0.075   0.818  0.00  0.00    +0.058 A 
ATOM      3  C   UNL     1      -4.323  -0.772   0.675  0.00  0.00    -0.013 A 
ATOM      4  C   UNL     1      -5.608  -0.248   0.530  0.00  0.00    +0.020 A 
ATOM      5  C   UNL     1      -6.689  -1.111   0.390  0.00  0.00    +0.023 A 
ATOM      6  C   UNL     1      -6.489  -2.563   0.394  0.00  0.00    +0.073 A 
ATOM      7  C   UNL     1      -5.207  -3.086   0.539  0.00  0.00    +0.037 A 
ATOM      8  C   UNL     1      -4.119  -2.224   0.680  0.00  0.00    -0.012 A 
ATOM      9  C   UNL     1      -2.809  -2.725   0.828  0.00  0.00    +0.058 A 
ATOM     10  C   UNL     1      -1.767  -1.858   0.957  0.00  0.00    +0.162 A 
ATOM     11  N   UNL     1      -7.550  -3.379   0.257  0.00  0.00    -0.254 NA
ATOM     12  C   UNL     1      -8.763  -2.916   0.119  0.00  0.00    +0.132 A 
ATOM     13  C   UNL     1      -9.048  -1.541   0.104  0.00  0.00    +0.091 A 
ATOM     14  C   UNL     1      -8.009  -0.610   0.240  0.00  0.00    +0.060 A 
ENDROOT
BRANCH   1  16
ATOM     15  C   UNL     1      -1.145   1.761   1.089  0.00  0.00    +0.277 C 
ATOM     16  O   UNL     1      -0.890   0.355   1.095  0.00  0.00    -0.491 OA
ENDBRANCH   1  16
BRANCH  14  17
ATOM     17  N   UNL     1      -8.261   0.745   0.228  0.00  0.00    -0.312 N 
ATOM     18  H   UNL     1      -7.567   1.364  -0.048  0.00  0.00    +0.152 HD
BRANCH  17  19
ATOM     19  C   UNL     1      -9.516   1.227   0.612  0.00  0.00    +0.053 A 
ATOM     20  C   UNL     1     -10.354   1.811  -0.328  0.00  0.00    +0.071 A 
ATOM     21  C   UNL     1     -11.597   2.287   0.057  0.00  0.00    +0.140 A 
ATOM     22  C   UNL     1     -12.002   2.179   1.381  0.00  0.00    +0.084 A 
ATOM     23  C   UNL     1     -11.166   1.598   2.316  0.00  0.00    +0.045 A 
ATOM     24  C   UNL     1      -9.928   1.116   1.935  0.00  0.00    +0.064 A 
ATOM     25 CL   UNL     1      -8.883   0.381   3.111  0.00  0.00    -0.082 Cl
ATOM     26 CL   UNL     1     -13.560   2.776   1.862  0.00  0.00    -0.080 Cl
BRANCH  21  27
ATOM     27  O   UNL     1     -12.420   2.859  -0.862  0.00  0.00    -0.494 OA
ATOM     28  C   UNL     1     -11.986   2.839  -2.223  0.00  0.00    +0.277 C 
ENDBRANCH  21  27
ENDBRANCH  17  19
ENDBRANCH  14  17
BRANCH  13  29
ATOM     29  C   UNL     1     -10.398  -1.090  -0.050  0.00  0.00    +0.103 C 
ATOM     30  N   UNL     1     -11.469  -0.733  -0.172  0.00  0.00    -0.191 NA
ENDBRANCH  13  29
BRANCH  10  31
ATOM     31  O   UNL     1      -0.508  -2.350   1.094  0.00  0.00    -0.490 OA
BRANCH  31  32
ATOM     32  C   UNL     1      -0.362  -3.772   1.087  0.00  0.00    +0.211 C 
BRANCH  32  33
ATOM     33  C   UNL     1       1.115  -4.134   1.251  0.00  0.00    -0.037 C 
BRANCH  33  34
ATOM     34  N   UNL     1       1.585  -3.688   2.569  0.00  0.00    +0.385 N 
ATOM     35  C   UNL     1       3.033  -3.912   2.675  0.00  0.00    -0.050 C 
ATOM     36  C   UNL     1       3.520  -3.446   4.049  0.00  0.00    +0.141 C 
ATOM     37  O   UNL     1       2.805  -4.151   5.067  0.00  0.00    -0.383 OA
ATOM     38  C   UNL     1       1.386  -3.984   4.992  0.00  0.00    +0.141 C 
ATOM     39  C   UNL     1       0.895  -4.451   3.619  0.00  0.00    -0.050 C 
ATOM     40  H   UNL     1       1.387  -2.705   2.682  0.00  0.00    -0.081 HD
ENDBRANCH  33  34
ENDBRANCH  32  33
ENDBRANCH  31  32
ENDBRANCH  10  31
TORSDOF 9
