REMARK  Name = CHEMBL482968
REMARK  5 active torsions:
REMARK  status: ('A' for Active; 'I' for Inactive)
REMARK    1  A    between atoms: C_1  and  C_2
REMARK    2  A    between atoms: C_11  and  N_23
REMARK    3  A    between atoms: C_13  and  C_15
REMARK    4  A    between atoms: C_16  and  C_17
REMARK    5  A    between atoms: N_26  and  C_29
REMARK                            x       y       z     vdW  Elec       q    Type
REMARK                         _______ _______ _______ _____ _____    ______ ____
ROOT
ATOM      1  C   UNL     1       0.195  -6.937   1.891  0.00  0.00    +0.065 C 
ATOM      2  C   UNL     1       0.159  -6.178   0.589  0.00  0.00    +0.035 A 
ATOM      3  C   UNL     1       0.115  -4.834   0.452  0.00  0.00    +0.068 A 
ATOM      4  C   UNL     1       0.093  -4.541  -0.922  0.00  0.00    +0.146 A 
ATOM      5  N   UNL     1       0.123  -5.676  -1.579  0.00  0.00    -0.158 NA
ATOM      6  N   UNL     1       0.170  -6.721  -0.647  0.00  0.00    -0.280 N 
ATOM      7  H   UNL     1       0.203  -7.668  -0.853  0.00  0.00    +0.189 HD
ATOM      8  N   UNL     1       0.047  -3.262  -1.490  0.00  0.00    -0.284 N 
ATOM      9  C   UNL     1       0.139  -3.110  -2.865  0.00  0.00    +0.106 A 
ATOM     10  C   UNL     1       0.230  -1.840  -3.431  0.00  0.00    +0.085 A 
ATOM     11  C   UNL     1       0.321  -1.735  -4.816  0.00  0.00    +0.127 A 
ATOM     12  N   UNL     1       0.318  -2.842  -5.552  0.00  0.00    -0.215 NA
ATOM     13  C   UNL     1       0.230  -4.038  -4.980  0.00  0.00    +0.134 A 
ATOM     14  N   UNL     1       0.147  -4.176  -3.661  0.00  0.00    -0.328 N 
ATOM     15  H   UNL     1      -0.049  -2.482  -0.921  0.00  0.00    +0.155 HD
ATOM     16  H   UNL     1       0.089  -5.063  -3.275  0.00  0.00    +0.169 HD
ENDROOT
BRANCH  11  17
ATOM     17  N   UNL     1       0.412  -0.490  -5.421  0.00  0.00    -0.319 N 
ATOM     18  C   UNL     1       0.287  -0.347  -6.880  0.00  0.00    +0.088 C 
ATOM     19  C   UNL     1      -0.742   0.749  -7.174  0.00  0.00    -0.060 C 
ATOM     20  N   UNL     1      -0.357   1.981  -6.475  0.00  0.00    +0.380 N 
ATOM     21  C   UNL     1      -0.409   1.770  -5.023  0.00  0.00    -0.060 C 
ATOM     22  C   UNL     1       0.632   0.725  -4.622  0.00  0.00    +0.088 C 
ATOM     23  C   UNL     1      -1.282   3.061  -6.844  0.00  0.00    -0.096 C 
ATOM     24  H   UNL     1       0.581   2.239  -6.743  0.00  0.00    -0.082 HD
ENDBRANCH  11  17
BRANCH  13  25
ATOM     25  C   UNL     1       0.229  -5.242  -5.829  0.00  0.00    +0.047 C 
ATOM     26  C   UNL     1       0.316  -5.122  -7.164  0.00  0.00    +0.011 C 
BRANCH  26  27
ATOM     27  C   UNL     1       0.316  -6.326  -8.013  0.00  0.00    -0.025 A 
ATOM     28  C   UNL     1       0.218  -7.594  -7.434  0.00  0.00    +0.008 A 
ATOM     29  C   UNL     1       0.217  -8.717  -8.235  0.00  0.00    +0.001 A 
ATOM     30  C   UNL     1       0.314  -8.590  -9.610  0.00  0.00    +0.000 A 
ATOM     31  C   UNL     1       0.411  -7.338 -10.191  0.00  0.00    +0.001 A 
ATOM     32  C   UNL     1       0.407  -6.206  -9.403  0.00  0.00    +0.008 A 
ENDBRANCH  26  27
ENDBRANCH  13  25
TORSDOF 3
