REMARK  Name = CHEMBL536073
REMARK  11 active torsions:
REMARK  status: ('A' for Active; 'I' for Inactive)
REMARK    1  A    between atoms: C_1  and  C_2
REMARK    2  A    between atoms: C_5  and  N_21
REMARK    3  A    between atoms: C_7  and  N_8
REMARK    4  A    between atoms: C_13  and  C_15
REMARK    5  A    between atoms: C_22  and  C_24
REMARK    6  A    between atoms: C_27  and  C_34
REMARK    7  A    between atoms: C_28  and  C_30
REMARK    8  A    between atoms: C_34  and  N_35
REMARK    9  A    between atoms: C_38  and  N_41
REMARK   10  A    between atoms: N_41  and  C_42
REMARK   11  A    between atoms: N_41  and  C_43
REMARK                            x       y       z     vdW  Elec       q    Type
REMARK                         _______ _______ _______ _____ _____    ______ ____
ROOT
ATOM      1  N   UNL     1       0.754  -2.542  -2.130  0.00  0.00    -0.281 N 
ATOM      2  C   UNL     1       0.546  -2.953  -3.397  0.00  0.00    +0.248 C 
ATOM      3  O   UNL     1       0.202  -2.154  -4.246  0.00  0.00    -0.270 OA
ATOM      4  H   UNL     1       0.958  -3.190  -1.437  0.00  0.00    +0.155 HD
ENDROOT
BRANCH   1   9
ATOM      5  C   UNL     1       0.431   2.981  -0.856  0.00  0.00    +0.045 C 
ATOM      6  C   UNL     1       0.519   1.514  -1.194  0.00  0.00    -0.029 A 
ATOM      7  C   UNL     1      -0.364   0.961  -2.101  0.00  0.00    +0.007 A 
ATOM      8  C   UNL     1      -0.288  -0.382  -2.413  0.00  0.00    +0.024 A 
ATOM      9  C   UNL     1       0.678  -1.182  -1.815  0.00  0.00    +0.035 A 
ATOM     10  C   UNL     1       1.567  -0.630  -0.903  0.00  0.00    +0.047 A 
ATOM     11  C   UNL     1       1.491   0.722  -0.597  0.00  0.00    +0.038 A 
BRANCH  11  12
ATOM     12  N   UNL     1       2.388   1.284   0.317  0.00  0.00    -0.283 N 
ATOM     13  C   UNL     1       2.960   0.494   1.301  0.00  0.00    +0.220 A 
ATOM     14  N   UNL     1       2.548  -0.757   1.445  0.00  0.00    -0.223 NA
ATOM     15  C   UNL     1       3.069  -1.544   2.373  0.00  0.00    +0.116 A 
ATOM     16  C   UNL     1       4.059  -1.047   3.203  0.00  0.00    +0.048 A 
ATOM     17  C   UNL     1       4.473   0.276   3.028  0.00  0.00    +0.079 A 
ATOM     18  N   UNL     1       3.907   1.007   2.070  0.00  0.00    -0.214 NA
ATOM     19  H   UNL     1       2.610   2.226   0.261  0.00  0.00    +0.155 HD
BRANCH  17  20
ATOM     20  C   UNL     1       5.530   0.855   3.892  0.00  0.00    +0.037 A 
ATOM     21  C   UNL     1       6.138   0.092   4.893  0.00  0.00    +0.124 A 
ATOM     22  N   UNL     1       7.076   0.648   5.640  0.00  0.00    -0.243 NA
ATOM     23  C   UNL     1       7.440   1.901   5.451  0.00  0.00    +0.221 A 
ATOM     24  N   UNL     1       6.892   2.655   4.519  0.00  0.00    -0.243 NA
ATOM     25  C   UNL     1       5.950   2.177   3.724  0.00  0.00    +0.124 A 
ENDBRANCH  17  20
ENDBRANCH  11  12
ENDBRANCH   1   9
BRANCH   2  26
ATOM     26  C   UNL     1       0.735  -4.375  -3.753  0.00  0.00    +0.038 A 
ATOM     27  C   UNL     1       1.125  -5.296  -2.779  0.00  0.00    +0.013 A 
ATOM     28  C   UNL     1       1.299  -6.622  -3.119  0.00  0.00    +0.003 A 
ATOM     29  C   UNL     1       1.089  -7.039  -4.421  0.00  0.00    -0.052 A 
ATOM     30  C   UNL     1       0.704  -6.131  -5.391  0.00  0.00    +0.057 A 
ATOM     31  C   UNL     1       0.519  -4.804  -5.064  0.00  0.00    +0.025 A 
BRANCH  30  32
ATOM     32  C   UNL     1       0.478  -6.595  -6.807  0.00  0.00    +0.418 C 
ATOM     33  F   UNL     1       0.020  -5.523  -7.581  0.00  0.00    -0.166 F 
ATOM     34  F   UNL     1       1.680  -7.074  -7.338  0.00  0.00    -0.166 F 
ATOM     35  F   UNL     1      -0.476  -7.618  -6.816  0.00  0.00    -0.166 F 
ENDBRANCH  30  32
BRANCH  29  36
ATOM     36  C   UNL     1       1.282  -8.489  -4.785  0.00  0.00    -0.042 C 
BRANCH  36  37
ATOM     37  N   UNL     1       1.851  -9.210  -3.638  0.00  0.00    +0.383 N 
ATOM     38  C   UNL     1       3.228  -8.736  -3.385  0.00  0.00    -0.077 C 
ATOM     39  C   UNL     1       4.004  -9.998  -2.933  0.00  0.00    -0.002 C 
ATOM     40  C   UNL     1       3.374 -11.093  -3.833  0.00  0.00    +0.038 C 
ATOM     41  C   UNL     1       1.898 -10.653  -3.933  0.00  0.00    -0.059 C 
ATOM     42  H   UNL     1       1.283  -9.049  -2.819  0.00  0.00    -0.081 HD
BRANCH  40  43
ATOM     43  N   UNL     1       3.485 -12.414  -3.200  0.00  0.00    -0.307 NA
ATOM     44  C   UNL     1       2.914 -13.459  -4.060  0.00  0.00    +0.104 C 
ATOM     45  C   UNL     1       4.880 -12.718  -2.857  0.00  0.00    +0.104 C 
ENDBRANCH  40  43
ENDBRANCH  36  37
ENDBRANCH  29  36
ENDBRANCH   2  26
TORSDOF 8
