REMARK  Name = CHEMBL1172719
REMARK  9 active torsions:
REMARK  status: ('A' for Active; 'I' for Inactive)
REMARK    1  A    between atoms: C_1  and  C_2
REMARK    2  A    between atoms: C_5  and  C_19
REMARK    3  A    between atoms: C_7  and  C_8
REMARK    4  A    between atoms: C_9  and  C_10
REMARK    5  A    between atoms: N_21  and  C_22
REMARK    6  A    between atoms: C_25  and  C_31
REMARK    7  A    between atoms: C_26  and  C_28
REMARK    8  A    between atoms: C_31  and  N_32
REMARK    9  A    between atoms: N_35  and  C_38
REMARK                            x       y       z     vdW  Elec       q    Type
REMARK                         _______ _______ _______ _____ _____    ______ ____
ROOT
ATOM      1  C   UNL     1       0.624  -4.231  -0.305  0.00  0.00    +0.248 C 
ATOM      2  O   UNL     1       1.078  -4.835   0.648  0.00  0.00    -0.270 OA
ATOM      3  N   UNL     1       0.124  -4.910  -1.357  0.00  0.00    -0.281 N 
ATOM      4  H   UNL     1      -0.300  -4.430  -2.085  0.00  0.00    +0.155 HD
ENDROOT
BRANCH   1   9
ATOM      5  C   UNL     1       0.595   1.535  -0.355  0.00  0.00    +0.045 C 
ATOM      6  C   UNL     1       0.605   0.028  -0.338  0.00  0.00    -0.035 A 
ATOM      7  C   UNL     1       0.095  -0.676  -1.410  0.00  0.00    +0.005 A 
ATOM      8  C   UNL     1       0.100  -2.057  -1.403  0.00  0.00    +0.013 A 
ATOM      9  C   UNL     1       0.621  -2.753  -0.309  0.00  0.00    +0.038 A 
ATOM     10  C   UNL     1       1.137  -2.051   0.777  0.00  0.00    +0.030 A 
ATOM     11  C   UNL     1       1.135  -0.655   0.762  0.00  0.00    +0.029 A 
BRANCH  11  12
ATOM     12  C   UNL     1       1.668   0.076   1.872  0.00  0.00    -0.059 C 
ATOM     13  C   UNL     1       2.106   0.675   2.782  0.00  0.00    -0.040 C 
BRANCH  13  14
ATOM     14  C   UNL     1       2.639   1.406   3.892  0.00  0.00    +0.136 A 
ATOM     15  C   UNL     1       2.695   2.784   4.026  0.00  0.00    +0.150 A 
ATOM     16  N   UNL     1       3.259   3.064   5.194  0.00  0.00    -0.233 NA
ATOM     17  C   UNL     1       3.570   1.936   5.822  0.00  0.00    +0.155 A 
ATOM     18  N   UNL     1       3.189   0.879   5.035  0.00  0.00    -0.205 N 
ATOM     19  N   UNL     1       3.402  -0.432   5.471  0.00  0.00    -0.172 NA
ATOM     20  C   UNL     1       3.960  -0.667   6.629  0.00  0.00    +0.133 A 
ATOM     21  C   UNL     1       4.358   0.387   7.461  0.00  0.00    +0.025 A 
ATOM     22  C   UNL     1       4.174   1.678   7.066  0.00  0.00    +0.050 A 
ENDBRANCH  13  14
ENDBRANCH  11  12
ENDBRANCH   1   9
BRANCH   3  23
ATOM     23  C   UNL     1       0.217  -6.304  -1.398  0.00  0.00    +0.034 A 
ATOM     24  C   UNL     1       0.104  -7.044  -0.228  0.00  0.00    +0.023 A 
ATOM     25  C   UNL     1       0.197  -8.421  -0.272  0.00  0.00    +0.007 A 
ATOM     26  C   UNL     1       0.402  -9.064  -1.479  0.00  0.00    -0.030 A 
ATOM     27  C   UNL     1       0.516  -8.330  -2.646  0.00  0.00    -0.038 A 
ATOM     28  C   UNL     1       0.418  -6.953  -2.609  0.00  0.00    +0.027 A 
BRANCH  27  29
ATOM     29  C   UNL     1       0.740  -9.035  -3.959  0.00  0.00    +0.019 C 
ATOM     30  C   UNL     1       0.942  -8.165  -5.201  0.00  0.00    +0.009 C 
ATOM     31  C   UNL     1      -0.366  -8.936  -5.011  0.00  0.00    +0.009 C 
ENDBRANCH  27  29
BRANCH  26  32
ATOM     32  C   UNL     1       0.503 -10.567  -1.523  0.00  0.00    +0.119 C 
BRANCH  32  33
ATOM     33  N   UNL     1      -0.736 -11.125  -2.082  0.00  0.00    -0.302 NA
ATOM     34  C   UNL     1      -1.887 -10.814  -1.223  0.00  0.00    +0.066 C 
ATOM     35  C   UNL     1      -3.163 -11.360  -1.868  0.00  0.00    -0.064 C 
ATOM     36  N   UNL     1      -3.040 -12.812  -2.045  0.00  0.00    +0.379 N 
ATOM     37  C   UNL     1      -1.900 -13.106  -2.924  0.00  0.00    -0.064 C 
ATOM     38  C   UNL     1      -0.614 -12.575  -2.288  0.00  0.00    +0.066 C 
ATOM     39  C   UNL     1      -4.272 -13.338  -2.648  0.00  0.00    -0.096 C 
ATOM     40  H   UNL     1      -2.892 -13.249  -1.147  0.00  0.00    -0.082 HD
ENDBRANCH  32  33
ENDBRANCH  26  32
ENDBRANCH   3  23
TORSDOF 7
