REMARK  Name = CHEMBL536073
REMARK  11 active torsions:
REMARK  status: ('A' for Active; 'I' for Inactive)
REMARK    1  A    between atoms: C_1  and  C_2
REMARK    2  A    between atoms: C_5  and  N_21
REMARK    3  A    between atoms: C_7  and  N_8
REMARK    4  A    between atoms: C_13  and  C_15
REMARK    5  A    between atoms: C_22  and  C_24
REMARK    6  A    between atoms: C_27  and  C_34
REMARK    7  A    between atoms: C_28  and  C_30
REMARK    8  A    between atoms: C_34  and  N_35
REMARK    9  A    between atoms: C_38  and  N_41
REMARK   10  A    between atoms: N_41  and  C_42
REMARK   11  A    between atoms: N_41  and  C_43
REMARK                            x       y       z     vdW  Elec       q    Type
REMARK                         _______ _______ _______ _____ _____    ______ ____
ROOT
ATOM      1  N   UNL     1       1.742  -3.296  -2.655  0.00  0.00    -0.281 N 
ATOM      2  C   UNL     1       1.883  -3.270  -3.995  0.00  0.00    +0.248 C 
ATOM      3  O   UNL     1       1.974  -2.206  -4.576  0.00  0.00    -0.270 OA
ATOM      4  H   UNL     1       1.595  -4.140  -2.199  0.00  0.00    +0.155 HD
ENDROOT
BRANCH   1   9
ATOM      5  C   UNL     1       1.996   1.537   0.312  0.00  0.00    +0.045 C 
ATOM      6  C   UNL     1       1.930   0.253  -0.475  0.00  0.00    -0.029 A 
ATOM      7  C   UNL     1       1.306   0.231  -1.708  0.00  0.00    +0.007 A 
ATOM      8  C   UNL     1       1.243  -0.944  -2.432  0.00  0.00    +0.024 A 
ATOM      9  C   UNL     1       1.807  -2.107  -1.922  0.00  0.00    +0.035 A 
ATOM     10  C   UNL     1       2.434  -2.088  -0.684  0.00  0.00    +0.047 A 
ATOM     11  C   UNL     1       2.501  -0.905   0.038  0.00  0.00    +0.038 A 
BRANCH  11  12
ATOM     12  N   UNL     1       3.137  -0.880   1.283  0.00  0.00    -0.283 N 
ATOM     13  C   UNL     1       3.233  -2.039   2.035  0.00  0.00    +0.220 A 
ATOM     14  N   UNL     1       2.617  -3.135   1.614  0.00  0.00    -0.223 NA
ATOM     15  C   UNL     1       2.686  -4.262   2.304  0.00  0.00    +0.116 A 
ATOM     16  C   UNL     1       3.413  -4.292   3.481  0.00  0.00    +0.048 A 
ATOM     17  C   UNL     1       4.052  -3.122   3.899  0.00  0.00    +0.079 A 
ATOM     18  N   UNL     1       3.943  -2.026   3.152  0.00  0.00    -0.214 NA
ATOM     19  H   UNL     1       3.510  -0.051   1.620  0.00  0.00    +0.155 HD
BRANCH  17  20
ATOM     20  C   UNL     1       4.843  -3.103   5.153  0.00  0.00    +0.037 A 
ATOM     21  C   UNL     1       4.972  -4.252   5.939  0.00  0.00    +0.124 A 
ATOM     22  N   UNL     1       5.687  -4.191   7.049  0.00  0.00    -0.243 NA
ATOM     23  C   UNL     1       6.273  -3.069   7.417  0.00  0.00    +0.221 A 
ATOM     24  N   UNL     1       6.176  -1.963   6.706  0.00  0.00    -0.243 NA
ATOM     25  C   UNL     1       5.486  -1.938   5.579  0.00  0.00    +0.124 A 
ENDBRANCH  17  20
ENDBRANCH  11  12
ENDBRANCH   1   9
BRANCH   2  26
ATOM     26  C   UNL     1       1.926  -4.535  -4.759  0.00  0.00    +0.038 A 
ATOM     27  C   UNL     1       1.816  -5.759  -4.095  0.00  0.00    +0.013 A 
ATOM     28  C   UNL     1       1.857  -6.936  -4.813  0.00  0.00    +0.006 A 
ATOM     29  C   UNL     1       2.008  -6.905  -6.189  0.00  0.00    -0.022 A 
ATOM     30  C   UNL     1       2.118  -5.697  -6.852  0.00  0.00    +0.060 A 
ATOM     31  C   UNL     1       2.072  -4.512  -6.146  0.00  0.00    +0.025 A 
BRANCH  30  32
ATOM     32  C   UNL     1       2.282  -5.673  -8.350  0.00  0.00    +0.418 C 
ATOM     33  F   UNL     1       2.399  -4.349  -8.786  0.00  0.00    -0.166 F 
ATOM     34  F   UNL     1       3.434  -6.384  -8.704  0.00  0.00    -0.166 F 
ATOM     35  F   UNL     1       1.166  -6.265  -8.951  0.00  0.00    -0.166 F 
ENDBRANCH  30  32
BRANCH  29  36
ATOM     36  C   UNL     1       2.053  -8.195  -6.967  0.00  0.00    +0.120 C 
BRANCH  36  37
ATOM     37  N   UNL     1       0.746  -8.433  -7.595  0.00  0.00    -0.300 NA
ATOM     38  C   UNL     1      -0.282  -8.743  -6.578  0.00  0.00    +0.083 C 
ATOM     39  C   UNL     1      -1.233  -9.750  -7.272  0.00  0.00    +0.001 C 
ATOM     40  C   UNL     1      -0.238 -10.594  -8.111  0.00  0.00    -0.054 C 
ATOM     41  C   UNL     1       0.815  -9.555  -8.549  0.00  0.00    +0.069 C 
BRANCH  40  42
ATOM     42  N   UNL     1      -0.911 -11.181  -9.278  0.00  0.00    +0.379 N 
ATOM     43  C   UNL     1       0.061 -11.944 -10.071  0.00  0.00    -0.096 C 
ATOM     44  C   UNL     1      -1.984 -12.076  -8.826  0.00  0.00    -0.096 C 
ATOM     45  H   UNL     1      -1.304 -10.444  -9.845  0.00  0.00    -0.082 HD
ENDBRANCH  40  42
ENDBRANCH  36  37
ENDBRANCH  29  36
ENDBRANCH   2  26
TORSDOF 8
