REMARK  Name = CHEMBL209617
REMARK  2 active torsions:
REMARK  status: ('A' for Active; 'I' for Inactive)
REMARK    1  A    between atoms: C_4  and  C_7
REMARK    2  A    between atoms: N_12  and  C_15
REMARK                            x       y       z     vdW  Elec       q    Type
REMARK                         _______ _______ _______ _____ _____    ______ ____
ROOT
ATOM      1  C   UNL     1       3.689  -0.676  -0.037  0.00  0.00    +0.026 C 
ATOM      2  C   UNL     1       3.715  -2.048   0.059  0.00  0.00    +0.102 C 
ATOM      3  C   UNL     1       4.904  -2.919   0.168  0.00  0.00    +0.266 C 
ATOM      4  O   UNL     1       6.066  -2.560   0.190  0.00  0.00    -0.268 OA
ATOM      5  N   UNL     1       4.454  -4.186   0.237  0.00  0.00    -0.223 N 
ATOM      6  N   UNL     1       3.061  -4.217   0.183  0.00  0.00    -0.184 N 
ATOM      7  C   UNL     1       2.562  -2.970   0.082  0.00  0.00    +0.272 C 
ATOM      8  O   UNL     1       1.387  -2.662   0.020  0.00  0.00    -0.268 OA
ATOM      9  H   UNL     1       5.020  -4.970   0.314  0.00  0.00    +0.174 HD
ENDROOT
BRANCH   6  10
ATOM     10  C   UNL     1       2.288  -5.381   0.232  0.00  0.00    +0.056 A 
ATOM     11  C   UNL     1       0.903  -5.301   0.164  0.00  0.00    +0.026 A 
ATOM     12  C   UNL     1       0.142  -6.453   0.212  0.00  0.00    +0.016 A 
ATOM     13  C   UNL     1       0.759  -7.686   0.329  0.00  0.00    +0.013 A 
ATOM     14  C   UNL     1       2.138  -7.769   0.397  0.00  0.00    +0.016 A 
ATOM     15  C   UNL     1       2.904  -6.621   0.343  0.00  0.00    +0.026 A 
ATOM     16  I   UNL     1      -0.399  -9.430   0.403  0.00  0.00    -0.044 I 
ENDBRANCH   6  10
BRANCH   1  20
ATOM     17  C   UNL     1       0.001   1.396   0.224  0.00  0.00    +0.000 A 
ATOM     18  C   UNL     1       0.226   0.289   1.024  0.00  0.00    +0.001 A 
ATOM     19  C   UNL     1       1.423  -0.391   0.946  0.00  0.00    +0.008 A 
ATOM     20  C   UNL     1       2.412   0.041   0.053  0.00  0.00    -0.024 A 
ATOM     21  C   UNL     1       2.175   1.163  -0.752  0.00  0.00    +0.008 A 
ATOM     22  C   UNL     1       0.973   1.831  -0.661  0.00  0.00    +0.001 A 
ENDBRANCH   1  20
TORSDOF 2
