REMARK  Name = CHEMBL377463
REMARK  5 active torsions:
REMARK  status: ('A' for Active; 'I' for Inactive)
REMARK    1  A    between atoms: C_3  and  C_6
REMARK    2  A    between atoms: N_8  and  C_9
REMARK    3  A    between atoms: C_15  and  C_19
REMARK    4  A    between atoms: C_24  and  N_28
REMARK    5  A    between atoms: C_31  and  N_34
REMARK                            x       y       z     vdW  Elec       q    Type
REMARK                         _______ _______ _______ _____ _____    ______ ____
ROOT
ATOM      1  C   UNL     1       8.200  -4.515  -0.569  0.00  0.00    +0.160 A 
ATOM      2  N   UNL     1       6.986  -5.006  -0.500  0.00  0.00    -0.226 NA
ATOM      3  C   UNL     1       7.036  -6.359  -0.576  0.00  0.00    +0.090 A 
ATOM      4  C   UNL     1       6.056  -7.357  -0.552  0.00  0.00    +0.032 A 
ATOM      5  C   UNL     1       6.417  -8.670  -0.650  0.00  0.00    +0.025 A 
ATOM      6  C   UNL     1       7.758  -9.030  -0.773  0.00  0.00    +0.032 A 
ATOM      7  C   UNL     1       8.744  -8.057  -0.798  0.00  0.00    +0.051 A 
ATOM      8  C   UNL     1       8.390  -6.719  -0.700  0.00  0.00    +0.068 A 
ATOM      9  N   UNL     1       9.106  -5.537  -0.699  0.00  0.00    -0.337 N 
ATOM     10  H   UNL     1      10.069  -5.447  -0.774  0.00  0.00    +0.167 HD
ENDROOT
BRANCH   1  17
ATOM     11  C   UNL     1       5.599  -0.652  -0.146  0.00  0.00    +0.035 A 
ATOM     12  C   UNL     1       6.371   0.510  -0.147  0.00  0.00    +0.025 A 
ATOM     13  C   UNL     1       7.729   0.445  -0.262  0.00  0.00    +0.029 A 
ATOM     14  C   UNL     1       8.362  -0.790  -0.381  0.00  0.00    +0.067 A 
ATOM     15  C   UNL     1       7.593  -1.968  -0.381  0.00  0.00    +0.032 A 
ATOM     16  C   UNL     1       6.204  -1.890  -0.257  0.00  0.00    +0.035 A 
ATOM     17  C   UNL     1       8.541  -3.080  -0.519  0.00  0.00    +0.135 A 
ATOM     18  N   UNL     1       9.747  -2.565  -0.591  0.00  0.00    -0.170 NA
ATOM     19  N   UNL     1       9.675  -1.171  -0.510  0.00  0.00    -0.276 N 
ATOM     20  H   UNL     1      10.434  -0.567  -0.541  0.00  0.00    +0.189 HD
BRANCH  11  23
ATOM     21  C   UNL     1       3.545   0.461  -0.598  0.00  0.00    +0.284 C 
ATOM     22  O   UNL     1       4.163   1.354  -1.147  0.00  0.00    -0.266 OA
ATOM     23  N   UNL     1       4.207  -0.565  -0.027  0.00  0.00    -0.279 N 
ATOM     24  H   UNL     1       3.719  -1.243   0.466  0.00  0.00    +0.155 HD
BRANCH  21  27
ATOM     25  C   UNL     1      -0.039   1.114  -0.822  0.00  0.00    +0.042 A 
ATOM     26  C   UNL     1       1.289   1.477  -1.093  0.00  0.00    +0.054 A 
ATOM     27  C   UNL     1       2.080   0.502  -0.557  0.00  0.00    +0.189 A 
ATOM     28  O   UNL     1       1.277  -0.419   0.016  0.00  0.00    -0.458 OA
ATOM     29  C   UNL     1      -0.002  -0.053  -0.141  0.00  0.00    +0.196 A 
ENDBRANCH  21  27
ENDBRANCH  11  23
ENDBRANCH   1  17
BRANCH   6  30
ATOM     30  N   UNL     1       8.110 -10.379  -0.872  0.00  0.00    -0.330 N 
ATOM     31  C   UNL     1       9.522 -10.787  -0.873  0.00  0.00    +0.103 C 
ATOM     32  C   UNL     1       9.732 -11.839   0.221  0.00  0.00    +0.004 C 
ATOM     33  C   UNL     1       8.746 -12.990   0.012  0.00  0.00    -0.066 C 
ATOM     34  C   UNL     1       7.313 -12.463   0.118  0.00  0.00    +0.004 C 
ATOM     35  C   UNL     1       7.075 -11.418  -0.970  0.00  0.00    +0.103 C 
BRANCH  33  36
ATOM     36  N   UNL     1       8.967 -14.017   1.039  0.00  0.00    +0.382 N 
ATOM     37  C   UNL     1      10.344 -14.517   0.940  0.00  0.00    -0.078 C 
ATOM     38  C   UNL     1      10.605 -15.528   2.059  0.00  0.00    -0.019 C 
ATOM     39  C   UNL     1       9.624 -16.696   1.922  0.00  0.00    -0.004 C 
ATOM     40  C   UNL     1       8.192 -16.154   1.952  0.00  0.00    -0.019 C 
ATOM     41  C   UNL     1       8.021 -15.120   0.837  0.00  0.00    -0.078 C 
ATOM     42  H   UNL     1       8.823 -13.614   1.952  0.00  0.00    -0.081 HD
ENDBRANCH  33  36
ENDBRANCH   6  30
TORSDOF 5
