REMARK  Name = CHEMBL230178
REMARK  10 active torsions:
REMARK  status: ('A' for Active; 'I' for Inactive)
REMARK    1  A    between atoms: C_1  and  C_2
REMARK    2  A    between atoms: C_5  and  N_21
REMARK    3  A    between atoms: C_7  and  N_8
REMARK    4  A    between atoms: C_13  and  C_15
REMARK    5  A    between atoms: C_22  and  C_24
REMARK    6  A    between atoms: C_27  and  N_34
REMARK    7  A    between atoms: C_28  and  C_30
REMARK    8  A    between atoms: N_35  and  N_36
REMARK    9  A    between atoms: N_36  and  C_37
REMARK   10  A    between atoms: N_36  and  C_38
REMARK                            x       y       z     vdW  Elec       q    Type
REMARK                         _______ _______ _______ _____ _____    ______ ____
ROOT
ATOM      1  C   UNL     1      -0.269   1.537   0.168  0.00  0.00    +0.045 C 
ATOM      2  C   UNL     1       0.169   0.128  -0.139  0.00  0.00    -0.029 A 
ATOM      3  C   UNL     1       0.119  -0.343  -1.437  0.00  0.00    +0.007 A 
ATOM      4  C   UNL     1       0.519  -1.633  -1.723  0.00  0.00    +0.024 A 
ATOM      5  C   UNL     1       0.975  -2.463  -0.705  0.00  0.00    +0.035 A 
ATOM      6  C   UNL     1       1.027  -1.993   0.599  0.00  0.00    +0.047 A 
ATOM      7  C   UNL     1       0.629  -0.694   0.882  0.00  0.00    +0.038 A 
ENDROOT
BRANCH   7   8
ATOM      8  N   UNL     1       0.685  -0.215   2.194  0.00  0.00    -0.283 N 
ATOM      9  C   UNL     1       0.574  -1.095   3.259  0.00  0.00    +0.220 A 
ATOM     10  N   UNL     1       0.297  -2.369   3.017  0.00  0.00    -0.223 NA
ATOM     11  C   UNL     1       0.183  -3.240   4.006  0.00  0.00    +0.116 A 
ATOM     12  C   UNL     1       0.354  -2.811   5.310  0.00  0.00    +0.048 A 
ATOM     13  C   UNL     1       0.645  -1.462   5.534  0.00  0.00    +0.077 A 
ATOM     14  N   UNL     1       0.751  -0.643   4.490  0.00  0.00    -0.214 NA
ATOM     15  H   UNL     1       0.803   0.734   2.360  0.00  0.00    +0.155 HD
BRANCH  13  16
ATOM     16  C   UNL     1       0.837  -0.953   6.913  0.00  0.00    +0.019 A 
ATOM     17  C   UNL     1       1.018   0.414   7.147  0.00  0.00    +0.013 A 
ATOM     18  C   UNL     1       1.194   0.839   8.452  0.00  0.00    +0.020 A 
ATOM     19  C   UNL     1       1.184  -0.093   9.475  0.00  0.00    +0.111 A 
ATOM     20  N   UNL     1       1.011  -1.376   9.223  0.00  0.00    -0.263 NA
ATOM     21  C   UNL     1       0.834  -1.827   7.998  0.00  0.00    +0.120 A 
ENDBRANCH  13  16
ENDBRANCH   7   8
BRANCH   5  22
ATOM     22  N   UNL     1       1.379  -3.770  -0.995  0.00  0.00    -0.281 N 
ATOM     23  C   UNL     1       2.061  -4.028  -2.129  0.00  0.00    +0.248 C 
ATOM     24  O   UNL     1       2.249  -3.143  -2.941  0.00  0.00    -0.270 OA
ATOM     25  H   UNL     1       1.169  -4.490  -0.381  0.00  0.00    +0.155 HD
BRANCH  23  26
ATOM     26  C   UNL     1       2.580  -5.386  -2.385  0.00  0.00    +0.038 A 
ATOM     27  C   UNL     1       2.359  -6.406  -1.454  0.00  0.00    +0.015 A 
ATOM     28  C   UNL     1       2.839  -7.662  -1.691  0.00  0.00    +0.031 A 
ATOM     29  C   UNL     1       3.551  -7.929  -2.864  0.00  0.00    +0.099 A 
ATOM     30  C   UNL     1       3.772  -6.910  -3.794  0.00  0.00    +0.083 A 
ATOM     31  C   UNL     1       3.287  -5.654  -3.560  0.00  0.00    +0.027 A 
BRANCH  30  32
ATOM     32  C   UNL     1       4.541  -7.197  -5.058  0.00  0.00    +0.419 C 
ATOM     33  F   UNL     1       4.631  -6.030  -5.824  0.00  0.00    -0.166 F 
ATOM     34  F   UNL     1       5.826  -7.641  -4.732  0.00  0.00    -0.166 F 
ATOM     35  F   UNL     1       3.877  -8.186  -5.792  0.00  0.00    -0.166 F 
ENDBRANCH  30  32
BRANCH  29  36
ATOM     36  N   UNL     1       4.032  -9.188  -3.101  0.00  0.00    -0.133 NA
ATOM     37  N   UNL     1       3.829 -10.129  -2.242  0.00  0.00    -0.079 NA
BRANCH  37  38
ATOM     38  N   UNL     1       4.321 -11.418  -2.485  0.00  0.00    -0.243 N 
ATOM     39  C   UNL     1       5.068 -11.697  -3.714  0.00  0.00    +0.153 C 
ATOM     40  C   UNL     1       4.090 -12.486  -1.510  0.00  0.00    +0.153 C 
ENDBRANCH  37  38
ENDBRANCH  29  36
ENDBRANCH  23  26
ENDBRANCH   5  22
TORSDOF 7
