REMARK  Name = CHEMBL211154
REMARK  6 active torsions:
REMARK  status: ('A' for Active; 'I' for Inactive)
REMARK    1  A    between atoms: C_3  and  C_6
REMARK    2  A    between atoms: C_6  and  N_7
REMARK    3  A    between atoms: N_7  and  C_8
REMARK    4  A    between atoms: C_14  and  C_18
REMARK    5  A    between atoms: C_24  and  N_28
REMARK    6  A    between atoms: C_31  and  N_34
REMARK                            x       y       z     vdW  Elec       q    Type
REMARK                         _______ _______ _______ _____ _____    ______ ____
ROOT
ATOM      1  C   UNL     1       7.657   0.462   5.725  0.00  0.00    +0.160 A 
ATOM      2  N   UNL     1       8.450   0.458   6.841  0.00  0.00    -0.337 N 
ATOM      3  H   UNL     1       9.420   0.450   6.859  0.00  0.00    +0.167 HD
ATOM      4  C   UNL     1       7.608   0.470   7.940  0.00  0.00    +0.067 A 
ATOM      5  C   UNL     1       7.820   0.472   9.312  0.00  0.00    +0.029 A 
ATOM      6  C   UNL     1       6.745   0.484  10.174  0.00  0.00    +0.025 A 
ATOM      7  C   UNL     1       5.442   0.494   9.677  0.00  0.00    +0.032 A 
ATOM      8  C   UNL     1       5.214   0.492   8.314  0.00  0.00    +0.053 A 
ATOM      9  C   UNL     1       6.298   0.481   7.430  0.00  0.00    +0.091 A 
ATOM     10  N   UNL     1       6.394   0.481   6.078  0.00  0.00    -0.226 NA
ENDROOT
BRANCH   1  17
ATOM     11  C   UNL     1       5.477   0.485   1.588  0.00  0.00    +0.028 A 
ATOM     12  C   UNL     1       6.370   0.472   0.517  0.00  0.00    +0.025 A 
ATOM     13  C   UNL     1       7.718   0.454   0.733  0.00  0.00    +0.029 A 
ATOM     14  C   UNL     1       8.217   0.449   2.034  0.00  0.00    +0.067 A 
ATOM     15  C   UNL     1       7.324   0.463   3.120  0.00  0.00    +0.032 A 
ATOM     16  C   UNL     1       5.947   0.486   2.888  0.00  0.00    +0.035 A 
ATOM     17  C   UNL     1       8.150   0.453   4.334  0.00  0.00    +0.135 A 
ATOM     18  N   UNL     1       9.408   0.435   3.956  0.00  0.00    -0.170 NA
ATOM     19  N   UNL     1       9.486   0.432   2.559  0.00  0.00    -0.276 N 
ATOM     20  H   UNL     1      10.307   0.420   2.043  0.00  0.00    +0.189 HD
BRANCH  11  21
ATOM     21  N   UNL     1       4.099   0.503   1.346  0.00  0.00    -0.337 N 
ATOM     22  H   UNL     1       3.476   0.517   2.090  0.00  0.00    +0.147 HD
BRANCH  21  23
ATOM     23  C   UNL     1       3.597   0.502  -0.030  0.00  0.00    +0.176 C 
BRANCH  23  26
ATOM     24  C   UNL     1      -0.024   1.186   0.002  0.00  0.00    +0.041 A 
ATOM     25  C   UNL     1       1.319   1.626  -0.014  0.00  0.00    +0.046 A 
ATOM     26  C   UNL     1       2.090   0.524  -0.015  0.00  0.00    +0.122 A 
ATOM     27  O   UNL     1       1.290  -0.554  -0.001  0.00  0.00    -0.466 OA
ATOM     28  C   UNL     1       0.006  -0.159   0.009  0.00  0.00    +0.195 A 
ENDBRANCH  23  26
ENDBRANCH  21  23
ENDBRANCH  11  21
ENDBRANCH   1  17
BRANCH   7  29
ATOM     29  N   UNL     1       4.360   0.506  10.564  0.00  0.00    -0.330 N 
ATOM     30  C   UNL     1       2.985   0.639  10.064  0.00  0.00    +0.103 C 
ATOM     31  C   UNL     1       2.145  -0.515  10.619  0.00  0.00    +0.004 C 
ATOM     32  C   UNL     1       2.260  -0.537  12.145  0.00  0.00    -0.066 C 
ATOM     33  C   UNL     1       3.719  -0.765  12.545  0.00  0.00    +0.004 C 
ATOM     34  C   UNL     1       4.577   0.380  12.011  0.00  0.00    +0.103 C 
BRANCH  32  35
ATOM     35  N   UNL     1       1.429  -1.623  12.683  0.00  0.00    +0.382 N 
ATOM     36  C   UNL     1       0.031  -1.406  12.293  0.00  0.00    -0.078 C 
ATOM     37  C   UNL     1      -0.826  -2.576  12.782  0.00  0.00    -0.019 C 
ATOM     38  C   UNL     1      -0.729  -2.670  14.307  0.00  0.00    -0.004 C 
ATOM     39  C   UNL     1       0.741  -2.821  14.707  0.00  0.00    -0.019 C 
ATOM     40  C   UNL     1       1.540  -1.642  14.147  0.00  0.00    -0.078 C 
ATOM     41  H   UNL     1       1.747  -2.505  12.311  0.00  0.00    -0.081 HD
ENDBRANCH  32  35
ENDBRANCH   7  29
TORSDOF 6
