REMARK  Name = CHEMBL399246
REMARK  6 active torsions:
REMARK  status: ('A' for Active; 'I' for Inactive)
REMARK    1  A    between atoms: C_1  and  C_2
REMARK    2  A    between atoms: C_4  and  C_28
REMARK    3  A    between atoms: N_12  and  C_13
REMARK    4  A    between atoms: C_16  and  C_19
REMARK    5  A    between atoms: N_24  and  C_27
REMARK    6  A    between atoms: C_30  and  O_35
REMARK                            x       y       z     vdW  Elec       q    Type
REMARK                         _______ _______ _______ _____ _____    ______ ____
ROOT
ATOM      1  C   UNL     1      -0.130   1.435   0.004  0.00  0.00    +0.046 C 
ATOM      2  C   UNL     1      -1.159   0.355   0.218  0.00  0.00    -0.022 A 
ATOM      3  C   UNL     1      -1.955  -0.040  -0.811  0.00  0.00    +0.014 A 
ATOM      4  C   UNL     1      -2.920  -1.044  -0.631  0.00  0.00    -0.014 A 
ATOM      5  C   UNL     1      -3.081  -1.653   0.600  0.00  0.00    +0.040 A 
ATOM      6  C   UNL     1      -2.270  -1.260   1.674  0.00  0.00    +0.112 A 
ATOM      7  C   UNL     1      -1.293  -0.248   1.478  0.00  0.00    +0.097 A 
ATOM      8  N   UNL     1      -0.524   0.111   2.514  0.00  0.00    -0.211 NA
ATOM      9  C   UNL     1      -0.695  -0.491   3.678  0.00  0.00    +0.240 A 
ATOM     10  N   UNL     1      -1.613  -1.445   3.843  0.00  0.00    -0.112 NA
ATOM     11  N   UNL     1      -2.389  -1.820   2.884  0.00  0.00    -0.144 NA
ATOM     12  N   UNL     1       0.099  -0.123   4.751  0.00  0.00    -0.282 N 
ATOM     13  H   UNL     1       0.713   0.624   4.668  0.00  0.00    +0.155 HD
ENDROOT
BRANCH   4  14
ATOM     14  C   UNL     1      -3.775  -1.455  -1.771  0.00  0.00    +0.004 A 
ATOM     15  C   UNL     1      -3.918  -2.804  -2.087  0.00  0.00    +0.055 A 
ATOM     16  C   UNL     1      -4.717  -3.181  -3.153  0.00  0.00    +0.118 A 
ATOM     17  C   UNL     1      -5.373  -2.216  -3.905  0.00  0.00    +0.047 A 
ATOM     18  C   UNL     1      -5.232  -0.877  -3.594  0.00  0.00    +0.024 A 
ATOM     19  C   UNL     1      -4.442  -0.491  -2.528  0.00  0.00    +0.049 A 
ATOM     20 CL   UNL     1      -4.274   1.191  -2.135  0.00  0.00    -0.083 Cl
BRANCH  16  21
ATOM     21  O   UNL     1      -4.859  -4.497  -3.463  0.00  0.00    -0.507 OA
ATOM     22  H   UNL     1      -5.596  -4.930  -3.013  0.00  0.00    +0.292 HD
ENDBRANCH  16  21
ENDBRANCH   4  14
BRANCH  12  23
ATOM     23  C   UNL     1       0.017  -0.825   5.950  0.00  0.00    +0.034 A 
ATOM     24  C   UNL     1      -0.176  -2.204   5.936  0.00  0.00    +0.024 A 
ATOM     25  C   UNL     1      -0.258  -2.901   7.120  0.00  0.00    +0.015 A 
ATOM     26  C   UNL     1      -0.147  -2.223   8.338  0.00  0.00    +0.037 A 
ATOM     27  C   UNL     1       0.048  -0.839   8.348  0.00  0.00    +0.015 A 
ATOM     28  C   UNL     1       0.134  -0.148   7.161  0.00  0.00    +0.024 A 
BRANCH  26  29
ATOM     29  C   UNL     1      -0.234  -2.967   9.608  0.00  0.00    +0.247 C 
ATOM     30  O   UNL     1       0.372  -4.012   9.744  0.00  0.00    -0.270 OA
ATOM     31  N   UNL     1      -0.987  -2.489  10.619  0.00  0.00    -0.295 N 
ATOM     32  C   UNL     1      -1.660  -1.186  10.508  0.00  0.00    +0.123 C 
ATOM     33  C   UNL     1      -3.138  -1.368  10.869  0.00  0.00    +0.103 C 
ATOM     34  N   UNL     1      -3.241  -2.010  12.186  0.00  0.00    -0.302 NA
ATOM     35  C   UNL     1      -2.656  -3.357  12.169  0.00  0.00    +0.103 C 
ATOM     36  C   UNL     1      -1.163  -3.259  11.859  0.00  0.00    +0.123 C 
ATOM     37  C   UNL     1      -4.636  -2.047  12.645  0.00  0.00    +0.105 C 
ENDBRANCH  26  29
ENDBRANCH  12  23
TORSDOF 4
