REMARK  Name = CHEMBL1171658
REMARK  9 active torsions:
REMARK  status: ('A' for Active; 'I' for Inactive)
REMARK    1  A    between atoms: C_1  and  C_2
REMARK    2  A    between atoms: C_5  and  C_22
REMARK    3  A    between atoms: C_7  and  C_8
REMARK    4  A    between atoms: C_9  and  C_10
REMARK    5  A    between atoms: N_24  and  C_25
REMARK    6  A    between atoms: C_28  and  C_35
REMARK    7  A    between atoms: C_29  and  C_31
REMARK    8  A    between atoms: C_35  and  N_36
REMARK    9  A    between atoms: N_39  and  C_42
REMARK                            x       y       z     vdW  Elec       q    Type
REMARK                         _______ _______ _______ _____ _____    ______ ____
ROOT
ATOM      1  C   UNL     1       0.367  -4.156  -0.483  0.00  0.00    +0.248 C 
ATOM      2  O   UNL     1       0.771  -4.690   0.532  0.00  0.00    -0.270 OA
ATOM      3  N   UNL     1      -0.025  -4.909  -1.530  0.00  0.00    -0.281 N 
ATOM      4  H   UNL     1      -0.412  -4.487  -2.313  0.00  0.00    +0.155 HD
ENDROOT
BRANCH   1   9
ATOM      5  C   UNL     1       0.113   1.592  -0.847  0.00  0.00    +0.045 C 
ATOM      6  C   UNL     1       0.181   0.090  -0.749  0.00  0.00    -0.035 A 
ATOM      7  C   UNL     1      -0.217  -0.690  -1.816  0.00  0.00    +0.005 A 
ATOM      8  C   UNL     1      -0.158  -2.067  -1.734  0.00  0.00    +0.013 A 
ATOM      9  C   UNL     1       0.306  -2.682  -0.569  0.00  0.00    +0.038 A 
ATOM     10  C   UNL     1       0.710  -1.903   0.513  0.00  0.00    +0.030 A 
ATOM     11  C   UNL     1       0.654  -0.512   0.422  0.00  0.00    +0.029 A 
BRANCH  11  12
ATOM     12  C   UNL     1       1.073   0.298   1.526  0.00  0.00    -0.061 C 
ATOM     13  C   UNL     1       1.417   0.961   2.432  0.00  0.00    -0.059 C 
BRANCH  13  14
ATOM     14  C   UNL     1       1.837   1.771   3.536  0.00  0.00    +0.045 A 
ATOM     15  C   UNL     1       1.773   3.170   3.458  0.00  0.00    +0.047 A 
ATOM     16  C   UNL     1       2.191   3.903   4.554  0.00  0.00    +0.087 A 
ATOM     17  C   UNL     1       2.658   3.237   5.693  0.00  0.00    +0.158 A 
ATOM     18  N   UNL     1       3.000   4.219   6.614  0.00  0.00    -0.291 N 
ATOM     19  H   UNL     1       3.357   4.062   7.502  0.00  0.00    +0.172 HD
ATOM     20  C   UNL     1       2.755   5.424   6.068  0.00  0.00    +0.326 A 
ATOM     21  O   UNL     1       2.948   6.493   6.615  0.00  0.00    -0.247 OA
ATOM     22  N   UNL     1       2.265   5.268   4.823  0.00  0.00    -0.305 N 
ATOM     23  H   UNL     1       2.009   5.981   4.219  0.00  0.00    +0.170 HD
ATOM     24  N   UNL     1       2.703   1.914   5.728  0.00  0.00    -0.235 NA
ATOM     25  C   UNL     1       2.310   1.179   4.710  0.00  0.00    +0.130 A 
ENDBRANCH  13  14
ENDBRANCH  11  12
ENDBRANCH   1   9
BRANCH   3  26
ATOM     26  C   UNL     1       0.126  -6.298  -1.488  0.00  0.00    +0.034 A 
ATOM     27  C   UNL     1      -0.046  -6.981  -0.291  0.00  0.00    +0.023 A 
ATOM     28  C   UNL     1       0.104  -8.354  -0.253  0.00  0.00    +0.007 A 
ATOM     29  C   UNL     1       0.425  -9.048  -1.405  0.00  0.00    -0.022 A 
ATOM     30  C   UNL     1       0.597  -8.371  -2.598  0.00  0.00    +0.061 A 
ATOM     31  C   UNL     1       0.443  -6.999  -2.644  0.00  0.00    +0.036 A 
BRANCH  30  32
ATOM     32  C   UNL     1       0.946  -9.132  -3.851  0.00  0.00    +0.418 C 
ATOM     33  F   UNL     1       1.019  -8.245  -4.931  0.00  0.00    -0.166 F 
ATOM     34  F   UNL     1       2.183  -9.764  -3.683  0.00  0.00    -0.166 F 
ATOM     35  F   UNL     1      -0.038 -10.093  -4.103  0.00  0.00    -0.166 F 
ENDBRANCH  30  32
BRANCH  29  36
ATOM     36  C   UNL     1       0.588 -10.545  -1.359  0.00  0.00    +0.120 C 
BRANCH  36  37
ATOM     37  N   UNL     1      -0.625 -11.187  -1.883  0.00  0.00    -0.302 NA
ATOM     38  C   UNL     1      -1.790 -10.873  -1.044  0.00  0.00    +0.066 C 
ATOM     39  C   UNL     1      -3.041 -11.508  -1.655  0.00  0.00    -0.064 C 
ATOM     40  N   UNL     1      -2.858 -12.963  -1.743  0.00  0.00    +0.379 N 
ATOM     41  C   UNL     1      -1.706 -13.261  -2.604  0.00  0.00    -0.064 C 
ATOM     42  C   UNL     1      -0.444 -12.640  -2.001  0.00  0.00    +0.066 C 
ATOM     43  C   UNL     1      -4.066 -13.574  -2.313  0.00  0.00    -0.096 C 
ATOM     44  H   UNL     1      -2.695 -13.338  -0.821  0.00  0.00    -0.082 HD
ENDBRANCH  36  37
ENDBRANCH  29  36
ENDBRANCH   3  26
TORSDOF 7
