REMARK  Name = CHEMBL29197
REMARK  5 active torsions:
REMARK  status: ('A' for Active; 'I' for Inactive)
REMARK    1  A    between atoms: C_1  and  O_2
REMARK    2  A    between atoms: O_2  and  C_3
REMARK    3  A    between atoms: C_8  and  O_9
REMARK    4  A    between atoms: O_9  and  C_10
REMARK    5  A    between atoms: N_15  and  C_16
REMARK                            x       y       z     vdW  Elec       q    Type
REMARK                         _______ _______ _______ _____ _____    ______ ____
ROOT
ATOM      1  C   UNL     1       0.052  -0.611  -1.444  0.00  0.00    +0.162 A 
ATOM      2  C   UNL     1       0.784   0.155  -2.308  0.00  0.00    +0.062 A 
ATOM      3  C   UNL     1       1.600  -0.464  -3.262  0.00  0.00    +0.044 A 
ATOM      4  C   UNL     1       1.663  -1.879  -3.327  0.00  0.00    +0.080 A 
ATOM      5  C   UNL     1       0.905  -2.643  -2.432  0.00  0.00    +0.078 A 
ATOM      6  C   UNL     1       0.114  -2.010  -1.499  0.00  0.00    +0.164 A 
ATOM      7  N   UNL     1       2.454  -2.447  -4.251  0.00  0.00    -0.235 NA
ATOM      8  C   UNL     1       3.153  -1.704  -5.076  0.00  0.00    +0.223 A 
ATOM      9  N   UNL     1       3.126  -0.381  -5.052  0.00  0.00    -0.220 NA
ATOM     10  C   UNL     1       2.378   0.282  -4.179  0.00  0.00    +0.134 A 
ATOM     11  N   UNL     1       2.359   1.662  -4.166  0.00  0.00    -0.299 N 
ATOM     12  H   UNL     1       1.874   2.134  -3.471  0.00  0.00    +0.154 HD
ENDROOT
BRANCH  11  13
ATOM     13  C   UNL     1       3.038   2.380  -5.155  0.00  0.00    +0.033 A 
ATOM     14  C   UNL     1       3.658   3.582  -4.840  0.00  0.00    +0.023 A 
ATOM     15  C   UNL     1       4.329   4.289  -5.818  0.00  0.00    +0.003 A 
ATOM     16  C   UNL     1       4.383   3.802  -7.111  0.00  0.00    +0.015 A 
ATOM     17  C   UNL     1       3.766   2.605  -7.429  0.00  0.00    +0.020 A 
ATOM     18  C   UNL     1       3.099   1.889  -6.452  0.00  0.00    +0.038 A 
ATOM     19 BR   UNL     1       3.842   1.943  -9.199  0.00  0.00    -0.050 Br
ENDBRANCH  11  13
BRANCH   1  21
ATOM     20  C   UNL     1      -0.760   1.420  -0.511  0.00  0.00    +0.277 C 
ATOM     21  O   UNL     1      -0.740  -0.009  -0.517  0.00  0.00    -0.491 OA
ENDBRANCH   1  21
BRANCH   6  22
ATOM     22  O   UNL     1      -0.618  -2.750  -0.626  0.00  0.00    -0.491 OA
ATOM     23  C   UNL     1      -0.513  -4.171  -0.733  0.00  0.00    +0.277 C 
ENDBRANCH   6  22
TORSDOF 3
