REMARK  Name = CHEMBL451790
REMARK  9 active torsions:
REMARK  status: ('A' for Active; 'I' for Inactive)
REMARK    1  A    between atoms: C_1  and  C_2
REMARK    2  A    between atoms: C_6  and  C_35
REMARK    3  A    between atoms: C_7  and  C_8
REMARK    4  A    between atoms: C_9  and  N_10
REMARK    5  A    between atoms: C_18  and  N_19
REMARK    6  A    between atoms: N_19  and  C_20
REMARK    7  A    between atoms: C_23  and  P_26
REMARK    8  A    between atoms: P_26  and  C_28
REMARK    9  A    between atoms: P_26  and  C_29
REMARK                            x       y       z     vdW  Elec       q    Type
REMARK                         _______ _______ _______ _____ _____    ______ ____
ROOT
ATOM      1  N   UNL     1      -1.188  -0.301   4.493  0.00  0.00    -0.290 N 
ATOM      2  C   UNL     1      -0.282   0.662   4.845  0.00  0.00    +0.206 A 
ATOM      3  N   UNL     1      -0.701   1.301   5.898  0.00  0.00    -0.230 NA
ATOM      4  C   UNL     1      -1.897   0.795   6.290  0.00  0.00    +0.148 A 
ATOM      5  C   UNL     1      -2.227  -0.234   5.391  0.00  0.00    +0.171 A 
ATOM      6  N   UNL     1      -3.367  -0.895   5.554  0.00  0.00    -0.194 NA
ATOM      7  C   UNL     1      -4.187  -0.590   6.548  0.00  0.00    +0.222 A 
ATOM      8  N   UNL     1      -3.917   0.376   7.417  0.00  0.00    -0.197 NA
ATOM      9  C   UNL     1      -2.795   1.082   7.332  0.00  0.00    +0.156 A 
ATOM     10  N   UNL     1      -5.367  -1.302   6.684  0.00  0.00    -0.300 N 
ATOM     11  C   UNL     1      -5.810  -2.401   5.814  0.00  0.00    +0.108 C 
ATOM     12  C   UNL     1      -7.187  -2.869   6.332  0.00  0.00    +0.020 C 
ATOM     13  C   UNL     1      -7.700  -1.634   7.119  0.00  0.00    +0.020 C 
ATOM     14  C   UNL     1      -6.383  -1.089   7.731  0.00  0.00    +0.108 C 
ENDROOT
BRANCH   1  16
ATOM     15  C   UNL     1      -0.010  -1.134   2.625  0.00  0.00    +0.026 C 
ATOM     16  C   UNL     1      -1.080  -1.180   3.422  0.00  0.00    +0.095 C 
BRANCH  15  23
ATOM     17  C   UNL     1       2.207  -2.958   2.268  0.00  0.00    +0.044 C 
ATOM     18  C   UNL     1       1.114  -2.867   1.235  0.00  0.00    -0.043 A 
ATOM     19  C   UNL     1       1.160  -3.661   0.108  0.00  0.00    +0.004 A 
ATOM     20  C   UNL     1       0.158  -3.578  -0.842  0.00  0.00    +0.001 A 
ATOM     21  C   UNL     1      -0.897  -2.700  -0.669  0.00  0.00    +0.004 A 
ATOM     22  C   UNL     1      -0.956  -1.900   0.453  0.00  0.00    -0.043 A 
ATOM     23  C   UNL     1       0.049  -1.982   1.419  0.00  0.00    -0.018 A 
ATOM     24  C   UNL     1      -2.106  -0.943   0.640  0.00  0.00    +0.044 C 
ENDBRANCH  15  23
ENDBRANCH   1  16
BRANCH   9  25
ATOM     25  N   UNL     1      -2.523   2.089   8.243  0.00  0.00    -0.298 N 
ATOM     26  H   UNL     1      -1.749   2.660   8.117  0.00  0.00    +0.154 HD
BRANCH  25  27
ATOM     27  C   UNL     1      -3.363   2.282   9.342  0.00  0.00    +0.032 A 
ATOM     28  C   UNL     1      -3.989   1.196   9.940  0.00  0.00    +0.024 A 
ATOM     29  C   UNL     1      -4.819   1.390  11.027  0.00  0.00    +0.013 A 
ATOM     30  C   UNL     1      -5.027   2.665  11.520  0.00  0.00    +0.011 A 
ATOM     31  C   UNL     1      -4.405   3.749  10.928  0.00  0.00    +0.013 A 
ATOM     32  C   UNL     1      -3.570   3.561   9.844  0.00  0.00    +0.024 A 
BRANCH  30  33
ATOM     33  P   UNL     1      -6.118   2.917  12.947  0.00  0.00    +0.111 P 
ATOM     34  O   UNL     1      -6.080   1.718  13.815  0.00  0.00    -0.317 OA
ATOM     35  C   UNL     1      -5.556   4.370  13.893  0.00  0.00    +0.085 C 
ATOM     36  C   UNL     1      -7.824   3.192  12.367  0.00  0.00    +0.085 C 
ENDBRANCH  30  33
ENDBRANCH  25  27
ENDBRANCH   9  25
TORSDOF 5
