REMARK  Name = CHEMBL536983
REMARK  13 active torsions:
REMARK  status: ('A' for Active; 'I' for Inactive)
REMARK    1  A    between atoms: C_1  and  C_2
REMARK    2  A    between atoms: C_5  and  N_21
REMARK    3  A    between atoms: C_7  and  N_8
REMARK    4  A    between atoms: C_13  and  C_15
REMARK    5  A    between atoms: N_21  and  C_22
REMARK    6  A    between atoms: C_22  and  C_23
REMARK    7  A    between atoms: C_22  and  O_41
REMARK    8  A    between atoms: C_26  and  C_33
REMARK    9  A    between atoms: C_27  and  C_29
REMARK   10  A    between atoms: C_33  and  N_34
REMARK   11  A    between atoms: C_36  and  N_38
REMARK   12  A    between atoms: N_38  and  C_39
REMARK   13  A    between atoms: N_38  and  C_40
REMARK                            x       y       z     vdW  Elec       q    Type
REMARK                         _______ _______ _______ _____ _____    ______ ____
ROOT
ATOM      1  N   UNL     1       0.688  -4.589   0.118  0.00  0.00    -0.316 N 
ATOM      2  H   UNL     1       0.543  -5.035   0.967  0.00  0.00    +0.149 HD
ENDROOT
BRANCH   1   7
ATOM      3  C   UNL     1      -0.119   1.011  -0.336  0.00  0.00    +0.045 C 
ATOM      4  C   UNL     1       0.095  -0.476  -0.214  0.00  0.00    -0.029 A 
ATOM      5  C   UNL     1       0.500  -1.208  -1.314  0.00  0.00    +0.007 A 
ATOM      6  C   UNL     1       0.697  -2.571  -1.206  0.00  0.00    +0.023 A 
ATOM      7  C   UNL     1       0.489  -3.210   0.010  0.00  0.00    +0.031 A 
ATOM      8  C   UNL     1       0.082  -2.479   1.117  0.00  0.00    +0.046 A 
ATOM      9  C   UNL     1      -0.110  -1.109   1.006  0.00  0.00    +0.038 A 
BRANCH   9  10
ATOM     10  N   UNL     1      -0.513  -0.366   2.120  0.00  0.00    -0.283 N 
ATOM     11  C   UNL     1      -1.313  -0.951   3.089  0.00  0.00    +0.220 A 
ATOM     12  N   UNL     1      -1.782  -2.174   2.887  0.00  0.00    -0.223 NA
ATOM     13  C   UNL     1      -2.549  -2.766   3.788  0.00  0.00    +0.116 A 
ATOM     14  C   UNL     1      -2.863  -2.095   4.957  0.00  0.00    +0.048 A 
ATOM     15  C   UNL     1      -2.354  -0.806   5.142  0.00  0.00    +0.079 A 
ATOM     16  N   UNL     1      -1.584  -0.275   4.194  0.00  0.00    -0.214 NA
ATOM     17  H   UNL     1      -0.233   0.557   2.215  0.00  0.00    +0.155 HD
BRANCH  15  18
ATOM     18  C   UNL     1      -2.662  -0.045   6.377  0.00  0.00    +0.037 A 
ATOM     19  C   UNL     1      -3.460  -0.599   7.382  0.00  0.00    +0.124 A 
ATOM     20  N   UNL     1      -3.709   0.114   8.466  0.00  0.00    -0.243 NA
ATOM     21  C   UNL     1      -3.217   1.329   8.607  0.00  0.00    +0.221 A 
ATOM     22  N   UNL     1      -2.460   1.889   7.684  0.00  0.00    -0.243 NA
ATOM     23  C   UNL     1      -2.157   1.244   6.570  0.00  0.00    +0.124 A 
ENDBRANCH  15  18
ENDBRANCH   9  10
ENDBRANCH   1   7
BRANCH   1  24
ATOM     24  C   UNL     1       1.117  -5.361  -1.051  0.00  0.00    +0.232 C 
BRANCH  24  25
ATOM     25  C   UNL     1       2.038  -6.469  -0.611  0.00  0.00    -0.001 A 
ATOM     26  C   UNL     1       1.889  -7.035   0.642  0.00  0.00    +0.008 A 
ATOM     27  C   UNL     1       2.734  -8.052   1.046  0.00  0.00    +0.006 A 
ATOM     28  C   UNL     1       3.728  -8.502   0.197  0.00  0.00    -0.022 A 
ATOM     29  C   UNL     1       3.877  -7.937  -1.055  0.00  0.00    +0.060 A 
ATOM     30  C   UNL     1       3.029  -6.923  -1.461  0.00  0.00    +0.020 A 
BRANCH  29  31
ATOM     31  C   UNL     1       4.961  -8.428  -1.980  0.00  0.00    +0.418 C 
ATOM     32  F   UNL     1       4.899  -7.723  -3.187  0.00  0.00    -0.166 F 
ATOM     33  F   UNL     1       6.210  -8.223  -1.384  0.00  0.00    -0.166 F 
ATOM     34  F   UNL     1       4.780  -9.793  -2.228  0.00  0.00    -0.166 F 
ENDBRANCH  29  31
BRANCH  28  35
ATOM     35  C   UNL     1       4.650  -9.610   0.638  0.00  0.00    +0.120 C 
BRANCH  35  36
ATOM     36  N   UNL     1       4.204 -10.881   0.052  0.00  0.00    -0.301 NA
ATOM     37  C   UNL     1       3.256 -11.571   0.947  0.00  0.00    +0.070 C 
ATOM     38  C   UNL     1       3.972 -12.884   0.602  0.00  0.00    -0.041 C 
ATOM     39  C   UNL     1       5.168 -11.961   0.334  0.00  0.00    +0.070 C 
BRANCH  38  40
ATOM     40  N   UNL     1       3.451 -13.556  -0.596  0.00  0.00    +0.379 N 
ATOM     41  C   UNL     1       4.205 -14.795  -0.830  0.00  0.00    -0.096 C 
ATOM     42  C   UNL     1       2.031 -13.878  -0.398  0.00  0.00    -0.096 C 
ATOM     43  H   UNL     1       3.549 -12.947  -1.394  0.00  0.00    -0.082 HD
ENDBRANCH  38  40
ENDBRANCH  35  36
ENDBRANCH  28  35
ENDBRANCH  24  25
BRANCH  24  44
ATOM     44  O   UNL     1      -0.027  -5.921  -1.697  0.00  0.00    -0.370 OA
ATOM     45  H   UNL     1      -0.544  -6.516  -1.137  0.00  0.00    +0.212 HD
ENDBRANCH  24  44
ENDBRANCH   1  24
TORSDOF 10
