REMARK  Name = CHEMBL1171532
REMARK  2 active torsions:
REMARK  status: ('A' for Active; 'I' for Inactive)
REMARK    1  A    between atoms: C_2  and  C_7
REMARK    2  A    between atoms: C_13  and  C_16
REMARK                            x       y       z     vdW  Elec       q    Type
REMARK                         _______ _______ _______ _____ _____    ______ ____
ROOT
ATOM      1  C   UNL     1       1.135   3.466   0.334  0.00  0.00    +0.020 A 
ATOM      2  C   UNL     1       0.941   4.270  -0.810  0.00  0.00    +0.124 A 
ATOM      3  N   UNL     1       1.577   5.409  -0.933  0.00  0.00    -0.220 NA
ATOM      4  C   UNL     1       2.421   5.838   0.016  0.00  0.00    +0.235 A 
ATOM      5  N   UNL     1       3.162   6.935   0.107  0.00  0.00    -0.218 NA
ATOM      6  C   UNL     1       3.846   6.917   1.252  0.00  0.00    +0.141 A 
ATOM      7  C   UNL     1       3.538   5.772   1.923  0.00  0.00    +0.078 A 
ATOM      8  N   UNL     1       2.636   5.086   1.144  0.00  0.00    -0.283 N 
ATOM      9  C   UNL     1       1.988   3.896   1.310  0.00  0.00    +0.104 A 
ENDROOT
BRANCH   1  11
ATOM     10  C   UNL     1      -0.933   2.012   0.597  0.00  0.00    +0.113 A 
ATOM     11  C   UNL     1       0.415   2.174   0.478  0.00  0.00    +0.022 A 
ATOM     12  C   UNL     1       1.003   0.895   0.516  0.00  0.00    +0.142 A 
ATOM     13  N   UNL     1       0.048   0.013   0.651  0.00  0.00    -0.182 NA
ATOM     14  N   UNL     1      -1.177   0.689   0.704  0.00  0.00    -0.284 N 
ATOM     15  H   UNL     1      -2.050   0.278   0.802  0.00  0.00    +0.188 HD
ENDBRANCH   1  11
BRANCH   7  16
ATOM     16  C   UNL     1       4.071   5.347   3.237  0.00  0.00    +0.038 A 
ATOM     17  C   UNL     1       3.960   4.103   3.790  0.00  0.00    +0.115 A 
ATOM     18  N   UNL     1       4.579   4.134   4.990  0.00  0.00    -0.284 N 
ATOM     19  H   UNL     1       4.659   3.390   5.608  0.00  0.00    +0.188 HD
ATOM     20  N   UNL     1       5.085   5.424   5.188  0.00  0.00    -0.182 NA
ATOM     21  C   UNL     1       4.791   6.152   4.144  0.00  0.00    +0.144 A 
ENDBRANCH   7  16
TORSDOF 2
