REMARK  Name = CHEMBL399246
REMARK  6 active torsions:
REMARK  status: ('A' for Active; 'I' for Inactive)
REMARK    1  A    between atoms: C_1  and  C_2
REMARK    2  A    between atoms: C_4  and  C_28
REMARK    3  A    between atoms: N_12  and  C_13
REMARK    4  A    between atoms: C_16  and  C_19
REMARK    5  A    between atoms: N_24  and  C_27
REMARK    6  A    between atoms: C_30  and  O_35
REMARK                            x       y       z     vdW  Elec       q    Type
REMARK                         _______ _______ _______ _____ _____    ______ ____
ROOT
ATOM      1  C   UNL     1      -0.124   1.432   0.002  0.00  0.00    +0.046 C 
ATOM      2  C   UNL     1      -1.149   0.347   0.214  0.00  0.00    -0.022 A 
ATOM      3  C   UNL     1      -1.940  -0.052  -0.817  0.00  0.00    +0.014 A 
ATOM      4  C   UNL     1      -2.901  -1.061  -0.639  0.00  0.00    -0.014 A 
ATOM      5  C   UNL     1      -3.062  -1.670   0.592  0.00  0.00    +0.040 A 
ATOM      6  C   UNL     1      -2.256  -1.273   1.668  0.00  0.00    +0.112 A 
ATOM      7  C   UNL     1      -1.284  -0.256   1.474  0.00  0.00    +0.097 A 
ATOM      8  N   UNL     1      -0.520   0.106   2.512  0.00  0.00    -0.211 NA
ATOM      9  C   UNL     1      -0.690  -0.495   3.675  0.00  0.00    +0.240 A 
ATOM     10  N   UNL     1      -1.605  -1.453   3.839  0.00  0.00    -0.112 NA
ATOM     11  N   UNL     1      -2.376  -1.833   2.878  0.00  0.00    -0.144 NA
ATOM     12  N   UNL     1       0.099  -0.123   4.751  0.00  0.00    -0.282 N 
ATOM     13  H   UNL     1       0.709   0.627   4.669  0.00  0.00    +0.155 HD
ENDROOT
BRANCH   4  14
ATOM     14  C   UNL     1      -3.751  -1.476  -1.782  0.00  0.00    +0.004 A 
ATOM     15  C   UNL     1      -3.886  -2.826  -2.097  0.00  0.00    +0.055 A 
ATOM     16  C   UNL     1      -4.681  -3.207  -3.165  0.00  0.00    +0.118 A 
ATOM     17  C   UNL     1      -5.340  -2.246  -3.919  0.00  0.00    +0.047 A 
ATOM     18  C   UNL     1      -5.206  -0.906  -3.608  0.00  0.00    +0.024 A 
ATOM     19  C   UNL     1      -4.420  -0.516  -2.540  0.00  0.00    +0.049 A 
ATOM     20 CL   UNL     1      -4.261   1.167  -2.148  0.00  0.00    -0.083 Cl
BRANCH  16  21
ATOM     21  O   UNL     1      -4.816  -4.524  -3.475  0.00  0.00    -0.507 OA
ATOM     22  H   UNL     1      -5.552  -4.960  -3.026  0.00  0.00    +0.292 HD
ENDBRANCH  16  21
ENDBRANCH   4  14
BRANCH  12  23
ATOM     23  C   UNL     1       0.017  -0.825   5.950  0.00  0.00    +0.034 A 
ATOM     24  C   UNL     1      -0.172  -2.204   5.936  0.00  0.00    +0.024 A 
ATOM     25  C   UNL     1      -0.253  -2.901   7.120  0.00  0.00    +0.015 A 
ATOM     26  C   UNL     1      -0.147  -2.223   8.338  0.00  0.00    +0.037 A 
ATOM     27  C   UNL     1       0.043  -0.838   8.348  0.00  0.00    +0.015 A 
ATOM     28  C   UNL     1       0.130  -0.148   7.161  0.00  0.00    +0.024 A 
BRANCH  26  29
ATOM     29  C   UNL     1      -0.234  -2.967   9.608  0.00  0.00    +0.246 C 
ATOM     30  O   UNL     1       0.372  -4.012   9.744  0.00  0.00    -0.270 OA
ATOM     31  N   UNL     1      -0.987  -2.489  10.619  0.00  0.00    -0.301 N 
ATOM     32  C   UNL     1      -1.661  -1.186  10.509  0.00  0.00    +0.089 C 
ATOM     33  C   UNL     1      -3.134  -1.366  10.889  0.00  0.00    -0.060 C 
ATOM     34  N   UNL     1      -3.224  -1.985  12.218  0.00  0.00    +0.380 N 
ATOM     35  C   UNL     1      -2.657  -3.339  12.178  0.00  0.00    -0.060 C 
ATOM     36  C   UNL     1      -1.164  -3.258  11.860  0.00  0.00    +0.089 C 
ATOM     37  C   UNL     1      -4.632  -2.057  12.628  0.00  0.00    -0.096 C 
ATOM     38  H   UNL     1      -2.710  -1.426  12.883  0.00  0.00    -0.082 HD
ENDBRANCH  26  29
ENDBRANCH  12  23
TORSDOF 4
