REMARK  Name = CHEMBL210827
REMARK  8 active torsions:
REMARK  status: ('A' for Active; 'I' for Inactive)
REMARK    1  A    between atoms: C_1  and  O_2
REMARK    2  A    between atoms: O_2  and  C_3
REMARK    3  A    between atoms: C_8  and  O_9
REMARK    4  A    between atoms: O_9  and  C_10
REMARK    5  A    between atoms: C_10  and  C_11
REMARK    6  A    between atoms: C_17  and  C_21
REMARK    7  A    between atoms: C_27  and  N_31
REMARK    8  A    between atoms: C_34  and  N_37
REMARK                            x       y       z     vdW  Elec       q    Type
REMARK                         _______ _______ _______ _____ _____    ______ ____
ROOT
ATOM      1  C   UNL     1      -5.622  -3.681   0.062  0.00  0.00    +0.160 A 
ATOM      2  N   UNL     1      -6.955  -3.993   0.047  0.00  0.00    -0.337 N 
ATOM      3  H   UNL     1      -7.694  -3.365   0.039  0.00  0.00    +0.167 HD
ATOM      4  C   UNL     1      -7.051  -5.374   0.043  0.00  0.00    +0.067 A 
ATOM      5  C   UNL     1      -8.117  -6.262   0.030  0.00  0.00    +0.029 A 
ATOM      6  C   UNL     1      -7.882  -7.620   0.030  0.00  0.00    +0.025 A 
ATOM      7  C   UNL     1      -6.577  -8.110   0.044  0.00  0.00    +0.032 A 
ATOM      8  C   UNL     1      -5.504  -7.239   0.057  0.00  0.00    +0.053 A 
ATOM      9  C   UNL     1      -5.731  -5.859   0.057  0.00  0.00    +0.091 A 
ATOM     10  N   UNL     1      -4.908  -4.782   0.062  0.00  0.00    -0.226 NA
ENDROOT
BRANCH   1  17
ATOM     11  C   UNL     1      -1.201  -0.638   0.102  0.00  0.00    +0.164 A 
ATOM     12  C   UNL     1      -2.365   0.103   0.097  0.00  0.00    +0.077 A 
ATOM     13  C   UNL     1      -3.599  -0.543   0.087  0.00  0.00    +0.070 A 
ATOM     14  C   UNL     1      -3.648  -1.949   0.082  0.00  0.00    +0.034 A 
ATOM     15  C   UNL     1      -2.463  -2.688   0.087  0.00  0.00    +0.061 A 
ATOM     16  C   UNL     1      -1.249  -2.035   0.091  0.00  0.00    +0.163 A 
ATOM     17  C   UNL     1      -5.071  -2.312   0.071  0.00  0.00    +0.135 A 
ATOM     18  N   UNL     1      -5.764  -1.196   0.070  0.00  0.00    -0.170 NA
ATOM     19  N   UNL     1      -4.898  -0.098   0.080  0.00  0.00    -0.276 N 
ATOM     20  H   UNL     1      -5.172   0.833   0.081  0.00  0.00    +0.189 HD
BRANCH  11  22
ATOM     21  C   UNL     1      -0.018   1.425   0.123  0.00  0.00    +0.277 C 
ATOM     22  O   UNL     1       0.002  -0.004   0.112  0.00  0.00    -0.491 OA
ENDBRANCH  11  22
BRANCH  16  23
ATOM     23  O   UNL     1      -0.094  -2.752   0.091  0.00  0.00    -0.484 OA
BRANCH  23  24
ATOM     24  C   UNL     1      -0.214  -4.176   0.079  0.00  0.00    +0.264 C 
BRANCH  24  25
ATOM     25  C   UNL     1       1.159  -4.796   0.080  0.00  0.00    -0.010 A 
ATOM     26  C   UNL     1       1.796  -5.067  -1.117  0.00  0.00    +0.007 A 
ATOM     27  C   UNL     1       3.056  -5.636  -1.116  0.00  0.00    +0.000 A 
ATOM     28  C   UNL     1       3.679  -5.934   0.081  0.00  0.00    +0.000 A 
ATOM     29  C   UNL     1       3.042  -5.663   1.278  0.00  0.00    +0.000 A 
ATOM     30  C   UNL     1       1.784  -5.090   1.277  0.00  0.00    +0.007 A 
ENDBRANCH  24  25
ENDBRANCH  23  24
ENDBRANCH  16  23
ENDBRANCH   1  17
BRANCH   7  31
ATOM     31  N   UNL     1      -6.352  -9.491   0.045  0.00  0.00    -0.330 N 
ATOM     32  C   UNL     1      -4.988 -10.027  -0.062  0.00  0.00    +0.103 C 
ATOM     33  C   UNL     1      -4.745 -10.991   1.103  0.00  0.00    +0.004 C 
ATOM     34  C   UNL     1      -5.841 -12.059   1.114  0.00  0.00    -0.066 C 
ATOM     35  C   UNL     1      -7.203 -11.392   1.316  0.00  0.00    +0.004 C 
ATOM     36  C   UNL     1      -7.474 -10.432   0.160  0.00  0.00    +0.103 C 
BRANCH  34  37
ATOM     37  N   UNL     1      -5.592 -13.005   2.210  0.00  0.00    +0.382 N 
ATOM     38  C   UNL     1      -4.282 -13.639   2.019  0.00  0.00    -0.078 C 
ATOM     39  C   UNL     1      -3.982 -14.564   3.200  0.00  0.00    -0.019 C 
ATOM     40  C   UNL     1      -5.066 -15.643   3.285  0.00  0.00    -0.004 C 
ATOM     41  C   UNL     1      -6.435 -14.969   3.409  0.00  0.00    -0.019 C 
ATOM     42  C   UNL     1      -6.644 -14.028   2.220  0.00  0.00    -0.078 C 
ATOM     43  H   UNL     1      -5.598 -12.509   3.089  0.00  0.00    -0.081 HD
ENDBRANCH  34  37
ENDBRANCH   7  31
TORSDOF 7
