REMARK  Name = CHEMBL20252
REMARK  5 active torsions:
REMARK  status: ('A' for Active; 'I' for Inactive)
REMARK    1  A    between atoms: C_1  and  C_2
REMARK    2  A    between atoms: C_5  and  N_21
REMARK    3  A    between atoms: C_7  and  N_8
REMARK    4  A    between atoms: C_13  and  C_15
REMARK    5  A    between atoms: C_22  and  C_24
REMARK                            x       y       z     vdW  Elec       q    Type
REMARK                         _______ _______ _______ _____ _____    ______ ____
ROOT
ATOM      1  C   UNL     1      -0.270   1.539   0.170  0.00  0.00    +0.045 C 
ATOM      2  C   UNL     1       0.169   0.131  -0.139  0.00  0.00    -0.029 A 
ATOM      3  C   UNL     1       0.118  -0.339  -1.437  0.00  0.00    +0.007 A 
ATOM      4  C   UNL     1       0.519  -1.630  -1.724  0.00  0.00    +0.024 A 
ATOM      5  C   UNL     1       0.976  -2.460  -0.707  0.00  0.00    +0.035 A 
ATOM      6  C   UNL     1       1.028  -1.991   0.597  0.00  0.00    +0.047 A 
ATOM      7  C   UNL     1       0.630  -0.692   0.882  0.00  0.00    +0.038 A 
ENDROOT
BRANCH   7   8
ATOM      8  N   UNL     1       0.686  -0.214   2.194  0.00  0.00    -0.283 N 
ATOM      9  C   UNL     1       0.576  -1.095   3.258  0.00  0.00    +0.220 A 
ATOM     10  N   UNL     1       0.300  -2.368   3.015  0.00  0.00    -0.223 NA
ATOM     11  C   UNL     1       0.186  -3.241   4.004  0.00  0.00    +0.116 A 
ATOM     12  C   UNL     1       0.359  -2.812   5.308  0.00  0.00    +0.048 A 
ATOM     13  C   UNL     1       0.649  -1.464   5.533  0.00  0.00    +0.077 A 
ATOM     14  N   UNL     1       0.754  -0.644   4.489  0.00  0.00    -0.214 NA
ATOM     15  H   UNL     1       0.803   0.735   2.360  0.00  0.00    +0.155 HD
BRANCH  13  16
ATOM     16  C   UNL     1       0.842  -0.955   6.912  0.00  0.00    +0.019 A 
ATOM     17  C   UNL     1       1.023   0.411   7.147  0.00  0.00    +0.013 A 
ATOM     18  C   UNL     1       1.199   0.836   8.453  0.00  0.00    +0.020 A 
ATOM     19  C   UNL     1       1.191  -0.097   9.474  0.00  0.00    +0.111 A 
ATOM     20  N   UNL     1       1.018  -1.380   9.222  0.00  0.00    -0.263 NA
ATOM     21  C   UNL     1       0.841  -1.830   7.997  0.00  0.00    +0.120 A 
ENDBRANCH  13  16
ENDBRANCH   7   8
BRANCH   5  22
ATOM     22  N   UNL     1       1.381  -3.766  -0.999  0.00  0.00    -0.281 N 
ATOM     23  C   UNL     1       2.062  -4.023  -2.133  0.00  0.00    +0.248 C 
ATOM     24  O   UNL     1       2.249  -3.137  -2.944  0.00  0.00    -0.270 OA
ATOM     25  H   UNL     1       1.171  -4.487  -0.385  0.00  0.00    +0.155 HD
BRANCH  23  26
ATOM     26  C   UNL     1       2.582  -5.382  -2.390  0.00  0.00    +0.038 A 
ATOM     27  C   UNL     1       2.359  -6.404  -1.450  0.00  0.00    +0.013 A 
ATOM     28  C   UNL     1       2.826  -7.660  -1.664  0.00  0.00    +0.009 A 
ATOM     29  C   UNL     1       3.546  -7.953  -2.838  0.00  0.00    -0.018 A 
ATOM     30  C   UNL     1       4.039  -9.246  -3.081  0.00  0.00    +0.008 A 
ATOM     31  C   UNL     1       4.731  -9.500  -4.226  0.00  0.00    +0.001 A 
ATOM     32  C   UNL     1       4.960  -8.495  -5.164  0.00  0.00    +0.001 A 
ATOM     33  C   UNL     1       4.498  -7.231  -4.963  0.00  0.00    +0.008 A 
ATOM     34  C   UNL     1       3.778  -6.931  -3.792  0.00  0.00    -0.017 A 
ATOM     35  C   UNL     1       3.282  -5.640  -3.557  0.00  0.00    +0.021 A 
ENDBRANCH  23  26
ENDBRANCH   5  22
TORSDOF 4
