REMARK  Name = CHEMBL1171282
REMARK  9 active torsions:
REMARK  status: ('A' for Active; 'I' for Inactive)
REMARK    1  A    between atoms: C_1  and  C_2
REMARK    2  A    between atoms: C_5  and  C_19
REMARK    3  A    between atoms: C_7  and  C_8
REMARK    4  A    between atoms: C_9  and  C_10
REMARK    5  A    between atoms: N_21  and  C_22
REMARK    6  A    between atoms: C_24  and  C_32
REMARK    7  A    between atoms: C_26  and  C_28
REMARK    8  A    between atoms: C_32  and  N_33
REMARK    9  A    between atoms: N_36  and  C_39
REMARK                            x       y       z     vdW  Elec       q    Type
REMARK                         _______ _______ _______ _____ _____    ______ ____
ROOT
ATOM      1  C   UNL     1       0.644  -4.253  -0.198  0.00  0.00    +0.248 C 
ATOM      2  O   UNL     1       1.190  -4.866   0.698  0.00  0.00    -0.270 OA
ATOM      3  N   UNL     1       0.062  -4.919  -1.215  0.00  0.00    -0.281 N 
ATOM      4  H   UNL     1      -0.431  -4.434  -1.894  0.00  0.00    +0.155 HD
ENDROOT
BRANCH   1   9
ATOM      5  C   UNL     1       0.520   1.512  -0.129  0.00  0.00    +0.045 C 
ATOM      6  C   UNL     1       0.554   0.005  -0.143  0.00  0.00    -0.035 A 
ATOM      7  C   UNL     1      -0.037  -0.687  -1.180  0.00  0.00    +0.005 A 
ATOM      8  C   UNL     1      -0.011  -2.068  -1.201  0.00  0.00    +0.013 A 
ATOM      9  C   UNL     1       0.617  -2.775  -0.172  0.00  0.00    +0.038 A 
ATOM     10  C   UNL     1       1.217  -2.084   0.878  0.00  0.00    +0.030 A 
ATOM     11  C   UNL     1       1.192  -0.688   0.891  0.00  0.00    +0.029 A 
BRANCH  11  12
ATOM     12  C   UNL     1       1.811   0.031   1.964  0.00  0.00    -0.059 C 
ATOM     13  C   UNL     1       2.319   0.621   2.842  0.00  0.00    -0.041 C 
BRANCH  13  14
ATOM     14  C   UNL     1       2.939   1.340   3.915  0.00  0.00    +0.117 A 
ATOM     15  C   UNL     1       2.986   2.713   4.071  0.00  0.00    +0.148 A 
ATOM     16  N   UNL     1       3.649   2.981   5.190  0.00  0.00    -0.235 NA
ATOM     17  C   UNL     1       4.033   1.847   5.766  0.00  0.00    +0.138 A 
ATOM     18  N   UNL     1       3.600   0.799   4.997  0.00  0.00    -0.293 N 
ATOM     19  C   UNL     1       3.859  -0.487   5.370  0.00  0.00    +0.094 A 
ATOM     20  C   UNL     1       4.543  -0.750   6.504  0.00  0.00    +0.018 A 
ATOM     21  C   UNL     1       4.997   0.302   7.315  0.00  0.00    +0.005 A 
ATOM     22  C   UNL     1       4.753   1.590   6.949  0.00  0.00    +0.047 A 
ENDBRANCH  13  14
ENDBRANCH  11  12
ENDBRANCH   1   9
BRANCH   3  23
ATOM     23  C   UNL     1       0.171  -6.312  -1.291  0.00  0.00    +0.034 A 
ATOM     24  C   UNL     1       0.274  -6.935  -2.527  0.00  0.00    +0.025 A 
ATOM     25  C   UNL     1       0.381  -8.310  -2.599  0.00  0.00    -0.062 A 
ATOM     26  C   UNL     1       0.385  -9.066  -1.441  0.00  0.00    +0.014 A 
ATOM     27  C   UNL     1       0.281  -8.448  -0.208  0.00  0.00    +0.057 A 
ATOM     28  C   UNL     1       0.180  -7.073  -0.129  0.00  0.00    +0.035 A 
BRANCH  27  29
ATOM     29  C   UNL     1       0.285  -9.276   1.051  0.00  0.00    +0.417 C 
ATOM     30  F   UNL     1       1.601  -9.433   1.502  0.00  0.00    -0.166 F 
ATOM     31  F   UNL     1      -0.471  -8.631   2.036  0.00  0.00    -0.166 F 
ATOM     32  F   UNL     1      -0.270 -10.532   0.786  0.00  0.00    -0.166 F 
ENDBRANCH  27  29
BRANCH  25  33
ATOM     33  C   UNL     1       0.493  -8.988  -3.940  0.00  0.00    -0.043 C 
BRANCH  33  34
ATOM     34  N   UNL     1       1.909  -9.104  -4.313  0.00  0.00    +0.384 N 
ATOM     35  C   UNL     1       2.476  -7.763  -4.505  0.00  0.00    -0.063 C 
ATOM     36  C   UNL     1       3.956  -7.883  -4.876  0.00  0.00    +0.065 C 
ATOM     37  N   UNL     1       4.087  -8.670  -6.110  0.00  0.00    -0.309 NA
ATOM     38  C   UNL     1       3.501 -10.007  -5.941  0.00  0.00    +0.065 C 
ATOM     39  C   UNL     1       2.025  -9.870  -5.562  0.00  0.00    -0.063 C 
ATOM     40  C   UNL     1       5.492  -8.760  -6.530  0.00  0.00    +0.104 C 
ATOM     41  H   UNL     1       2.412  -9.580  -3.579  0.00  0.00    -0.081 HD
ENDBRANCH  33  34
ENDBRANCH  25  33
ENDBRANCH   3  23
TORSDOF 7
