REMARK  Name = CHEMBL56669
REMARK  8 active torsions:
REMARK  status: ('A' for Active; 'I' for Inactive)
REMARK    1  A    between atoms: C_1  and  C_2
REMARK    2  A    between atoms: C_2  and  C_3
REMARK    3  A    between atoms: C_3  and  C_4
REMARK    4  A    between atoms: C_4  and  C_5
REMARK    5  A    between atoms: C_5  and  C_6
REMARK    6  A    between atoms: N_8  and  C_9
REMARK    7  A    between atoms: C_13  and  N_15
REMARK    8  A    between atoms: C_20  and  C_22
REMARK                            x       y       z     vdW  Elec       q    Type
REMARK                         _______ _______ _______ _____ _____    ______ ____
ROOT
ATOM      1  C   UNL     1      -3.893  -6.207  -0.068  0.00  0.00    +0.035 A 
ATOM      2  C   UNL     1      -2.671  -6.814   0.195  0.00  0.00    +0.023 A 
ATOM      3  C   UNL     1      -2.613  -8.171   0.448  0.00  0.00    +0.004 A 
ATOM      4  C   UNL     1      -3.768  -8.929   0.440  0.00  0.00    +0.023 A 
ATOM      5  C   UNL     1      -4.993  -8.328   0.177  0.00  0.00    +0.035 A 
ATOM      6  C   UNL     1      -5.056  -6.964  -0.071  0.00  0.00    +0.046 A 
ENDROOT
BRANCH   5   7
ATOM      7  N   UNL     1      -6.162  -9.095   0.168  0.00  0.00    -0.284 N 
ATOM      8  C   UNL     1      -6.123 -10.411  -0.265  0.00  0.00    +0.220 A 
ATOM      9  N   UNL     1      -4.993 -10.895  -0.759  0.00  0.00    -0.223 NA
ATOM     10  C   UNL     1      -4.916 -12.146  -1.183  0.00  0.00    +0.116 A 
ATOM     11  C   UNL     1      -6.035 -12.957  -1.107  0.00  0.00    +0.048 A 
ATOM     12  C   UNL     1      -7.212 -12.418  -0.582  0.00  0.00    +0.077 A 
ATOM     13  N   UNL     1      -7.215 -11.153  -0.170  0.00  0.00    -0.214 NA
ATOM     14  H   UNL     1      -6.999  -8.707   0.465  0.00  0.00    +0.155 HD
BRANCH  12  15
ATOM     15  C   UNL     1      -8.439 -13.246  -0.480  0.00  0.00    +0.019 A 
ATOM     16  C   UNL     1      -9.645 -12.680  -0.058  0.00  0.00    +0.013 A 
ATOM     17  C   UNL     1     -10.761 -13.495   0.021  0.00  0.00    +0.020 A 
ATOM     18  C   UNL     1     -10.648 -14.831  -0.318  0.00  0.00    +0.111 A 
ATOM     19  N   UNL     1      -9.496 -15.337  -0.713  0.00  0.00    -0.263 NA
ATOM     20  C   UNL     1      -8.409 -14.600  -0.809  0.00  0.00    +0.120 A 
ENDBRANCH  12  15
ENDBRANCH   5   7
BRANCH   1  23
ATOM     21  C   UNL     1      -5.002  -4.110   0.113  0.00  0.00    +0.217 C 
ATOM     22  O   UNL     1      -5.937  -4.663   0.651  0.00  0.00    -0.275 OA
ATOM     23  N   UNL     1      -3.951  -4.833  -0.324  0.00  0.00    -0.285 N 
ATOM     24  H   UNL     1      -3.235  -4.400  -0.815  0.00  0.00    +0.155 HD
BRANCH  21  25
ATOM     25  C   UNL     1      -5.014  -2.614  -0.069  0.00  0.00    +0.096 C 
BRANCH  25  26
ATOM     26  C   UNL     1      -6.310  -2.041   0.509  0.00  0.00    +0.009 C 
BRANCH  26  27
ATOM     27  C   UNL     1      -6.323  -0.522   0.325  0.00  0.00    +0.000 C 
BRANCH  27  29
ATOM     28  C   UNL     1      -7.631   1.569   0.719  0.00  0.00    +0.004 C 
ATOM     29  C   UNL     1      -7.618   0.051   0.903  0.00  0.00    -0.003 C 
ENDBRANCH  27  29
ENDBRANCH  26  27
ENDBRANCH  25  26
ENDBRANCH  21  25
ENDBRANCH   1  23
TORSDOF 7
