REMARK  Name = CHEMBL1169705
REMARK  9 active torsions:
REMARK  status: ('A' for Active; 'I' for Inactive)
REMARK    1  A    between atoms: C_1  and  C_2
REMARK    2  A    between atoms: C_5  and  C_19
REMARK    3  A    between atoms: C_7  and  C_8
REMARK    4  A    between atoms: C_9  and  C_10
REMARK    5  A    between atoms: N_21  and  C_22
REMARK    6  A    between atoms: C_25  and  C_32
REMARK    7  A    between atoms: C_26  and  C_28
REMARK    8  A    between atoms: C_32  and  N_33
REMARK    9  A    between atoms: N_37  and  C_40
REMARK                            x       y       z     vdW  Elec       q    Type
REMARK                         _______ _______ _______ _____ _____    ______ ____
ROOT
ATOM      1  C   UNL     1       0.479  -4.070  -1.357  0.00  0.00    +0.248 C 
ATOM      2  O   UNL     1       0.817  -4.471  -0.260  0.00  0.00    -0.270 OA
ATOM      3  N   UNL     1       0.139  -4.949  -2.320  0.00  0.00    -0.281 N 
ATOM      4  H   UNL     1      -0.197  -4.629  -3.172  0.00  0.00    +0.155 HD
ENDROOT
BRANCH   1   9
ATOM      5  C   UNL     1       0.321   1.585  -2.472  0.00  0.00    +0.045 C 
ATOM      6  C   UNL     1       0.364   0.108  -2.177  0.00  0.00    -0.035 A 
ATOM      7  C   UNL     1       0.018  -0.801  -3.156  0.00  0.00    +0.005 A 
ATOM      8  C   UNL     1       0.054  -2.156  -2.895  0.00  0.00    +0.013 A 
ATOM      9  C   UNL     1       0.442  -2.619  -1.634  0.00  0.00    +0.038 A 
ATOM     10  C   UNL     1       0.793  -1.709  -0.639  0.00  0.00    +0.030 A 
ATOM     11  C   UNL     1       0.760  -0.340  -0.912  0.00  0.00    +0.029 A 
BRANCH  11  12
ATOM     12  C   UNL     1       1.125   0.603   0.102  0.00  0.00    -0.059 C 
ATOM     13  C   UNL     1       1.424   1.376   0.934  0.00  0.00    -0.041 C 
BRANCH  13  14
ATOM     14  C   UNL     1       1.789   2.319   1.948  0.00  0.00    +0.117 A 
ATOM     15  C   UNL     1       1.795   3.697   1.832  0.00  0.00    +0.148 A 
ATOM     16  N   UNL     1       2.194   4.209   2.990  0.00  0.00    -0.235 NA
ATOM     17  C   UNL     1       2.446   3.228   3.851  0.00  0.00    +0.138 A 
ATOM     18  N   UNL     1       2.197   2.031   3.233  0.00  0.00    -0.293 N 
ATOM     19  C   UNL     1       2.372   0.856   3.902  0.00  0.00    +0.094 A 
ATOM     20  C   UNL     1       2.791   0.852   5.187  0.00  0.00    +0.018 A 
ATOM     21  C   UNL     1       3.051   2.062   5.849  0.00  0.00    +0.005 A 
ATOM     22  C   UNL     1       2.888   3.241   5.188  0.00  0.00    +0.047 A 
ENDBRANCH  13  14
ENDBRANCH  11  12
ENDBRANCH   1   9
BRANCH   3  23
ATOM     23  C   UNL     1       0.270  -6.323  -2.092  0.00  0.00    +0.034 A 
ATOM     24  C   UNL     1       0.013  -6.846  -0.831  0.00  0.00    +0.023 A 
ATOM     25  C   UNL     1       0.143  -8.203  -0.609  0.00  0.00    +0.007 A 
ATOM     26  C   UNL     1       0.529  -9.040  -1.640  0.00  0.00    -0.022 A 
ATOM     27  C   UNL     1       0.786  -8.522  -2.896  0.00  0.00    +0.061 A 
ATOM     28  C   UNL     1       0.652  -7.167  -3.126  0.00  0.00    +0.036 A 
BRANCH  27  29
ATOM     29  C   UNL     1       1.207  -9.438  -4.016  0.00  0.00    +0.418 C 
ATOM     30  F   UNL     1       1.398  -8.691  -5.183  0.00  0.00    -0.166 F 
ATOM     31  F   UNL     1       2.402 -10.078  -3.671  0.00  0.00    -0.166 F 
ATOM     32  F   UNL     1       0.211 -10.396  -4.234  0.00  0.00    -0.166 F 
ENDBRANCH  27  29
BRANCH  26  33
ATOM     33  C   UNL     1       0.671 -10.520  -1.393  0.00  0.00    +0.120 C 
BRANCH  33  34
ATOM     34  N   UNL     1      -0.503 -11.220  -1.931  0.00  0.00    -0.300 NA
ATOM     35  C   UNL     1      -1.720 -10.897  -1.147  0.00  0.00    +0.083 C 
ATOM     36  C   UNL     1      -2.926 -11.115  -2.025  0.00  0.00    -0.003 C 
ATOM     37  C   UNL     1      -3.511 -12.530  -1.887  0.00  0.00    -0.078 C 
ATOM     38  N   UNL     1      -2.466 -13.576  -1.827  0.00  0.00    +0.379 N 
ATOM     39  C   UNL     1      -1.397 -13.336  -2.770  0.00  0.00    -0.064 C 
ATOM     40  C   UNL     1      -0.261 -12.593  -2.043  0.00  0.00    +0.066 C 
ATOM     41  C   UNL     1      -3.078 -14.878  -2.122  0.00  0.00    -0.096 C 
ATOM     42  H   UNL     1      -2.080 -13.601  -0.895  0.00  0.00    -0.082 HD
ENDBRANCH  33  34
ENDBRANCH  26  33
ENDBRANCH   3  23
TORSDOF 7
