REMARK  Name = CHEMBL185775
REMARK  4 active torsions:
REMARK  status: ('A' for Active; 'I' for Inactive)
REMARK    1  A    between atoms: C_1  and  C_2
REMARK    2  A    between atoms: C_5  and  N_21
REMARK    3  A    between atoms: C_7  and  N_8
REMARK    4  A    between atoms: C_13  and  C_15
REMARK                            x       y       z     vdW  Elec       q    Type
REMARK                         _______ _______ _______ _____ _____    ______ ____
ROOT
ATOM      1  C   UNL     1      -0.157   1.501  -0.412  0.00  0.00    +0.045 C 
ATOM      2  C   UNL     1       0.182   0.078  -0.052  0.00  0.00    -0.029 A 
ATOM      3  C   UNL     1       0.921  -0.698  -0.925  0.00  0.00    +0.007 A 
ATOM      4  C   UNL     1       1.233  -2.003  -0.599  0.00  0.00    +0.024 A 
ATOM      5  C   UNL     1       0.806  -2.541   0.609  0.00  0.00    +0.037 A 
ATOM      6  C   UNL     1       0.064  -1.765   1.488  0.00  0.00    +0.047 A 
ATOM      7  C   UNL     1      -0.244  -0.452   1.160  0.00  0.00    +0.038 A 
ENDROOT
BRANCH   5   8
ATOM      8  N   UNL     1       1.122  -3.863   0.938  0.00  0.00    -0.269 N 
ATOM      9  C   UNL     1       1.206  -4.797  -0.030  0.00  0.00    +0.306 C 
ATOM     10  O   UNL     1       0.887  -4.521  -1.170  0.00  0.00    -0.252 OA
ATOM     11  N   UNL     1       1.642  -6.038   0.266  0.00  0.00    -0.285 N 
ATOM     12  C   UNL     1       1.913  -6.424   1.658  0.00  0.00    +0.109 C 
ATOM     13  C   UNL     1       1.129  -7.702   1.976  0.00  0.00    +0.019 C 
ATOM     14  C   UNL     1       1.478  -8.778   0.945  0.00  0.00    +0.003 C 
ATOM     15  C   UNL     1       1.075  -8.300  -0.451  0.00  0.00    +0.019 C 
ATOM     16  C   UNL     1       1.851  -7.031  -0.796  0.00  0.00    +0.109 C 
ATOM     17  H   UNL     1       1.282  -4.108   1.863  0.00  0.00    +0.156 HD
ENDBRANCH   5   8
BRANCH   7  18
ATOM     18  N   UNL     1      -0.986   0.335   2.045  0.00  0.00    -0.283 N 
ATOM     19  C   UNL     1      -1.973  -0.244   2.827  0.00  0.00    +0.220 A 
ATOM     20  N   UNL     1      -2.273  -1.522   2.645  0.00  0.00    -0.223 NA
ATOM     21  C   UNL     1      -3.209  -2.112   3.371  0.00  0.00    +0.116 A 
ATOM     22  C   UNL     1      -3.882  -1.379   4.333  0.00  0.00    +0.048 A 
ATOM     23  C   UNL     1      -3.543  -0.034   4.502  0.00  0.00    +0.077 A 
ATOM     24  N   UNL     1      -2.587   0.491   3.739  0.00  0.00    -0.214 NA
ATOM     25  H   UNL     1      -0.811   1.287   2.113  0.00  0.00    +0.155 HD
BRANCH  23  26
ATOM     26  C   UNL     1      -4.235   0.794   5.520  0.00  0.00    +0.019 A 
ATOM     27  C   UNL     1      -3.976   2.164   5.616  0.00  0.00    +0.013 A 
ATOM     28  C   UNL     1      -4.648   2.893   6.582  0.00  0.00    +0.020 A 
ATOM     29  C   UNL     1      -5.545   2.248   7.414  0.00  0.00    +0.111 A 
ATOM     30  N   UNL     1      -5.768   0.953   7.300  0.00  0.00    -0.263 NA
ATOM     31  C   UNL     1      -5.158   0.219   6.392  0.00  0.00    +0.120 A 
ENDBRANCH  23  26
ENDBRANCH   7  18
TORSDOF 3
