REMARK  Name = CHEMBL262276
REMARK  8 active torsions:
REMARK  status: ('A' for Active; 'I' for Inactive)
REMARK    1  A    between atoms: C_1  and  O_2
REMARK    2  A    between atoms: O_2  and  C_3
REMARK    3  A    between atoms: C_3  and  C_5
REMARK    4  A    between atoms: C_5  and  N_6
REMARK    5  A    between atoms: C_9  and  N_12
REMARK    6  A    between atoms: C_14  and  C_22
REMARK    7  A    between atoms: C_20  and  N_21
REMARK    8  A    between atoms: C_26  and  O_28
REMARK                            x       y       z     vdW  Elec       q    Type
REMARK                         _______ _______ _______ _____ _____    ______ ____
ROOT
ATOM      1  N   UNL     1       4.129  -4.296   4.981  0.00  0.00    -0.328 N 
ATOM      2  C   UNL     1       3.708  -3.859   6.207  0.00  0.00    +0.097 A 
ATOM      3  C   UNL     1       4.517  -4.361   7.173  0.00  0.00    +0.012 A 
ATOM      4  C   UNL     1       5.526  -5.178   6.488  0.00  0.00    +0.066 A 
ATOM      5  C   UNL     1       5.227  -5.103   5.117  0.00  0.00    +0.147 A 
ATOM      6  N   UNL     1       5.998  -5.770   4.259  0.00  0.00    -0.218 NA
ATOM      7  C   UNL     1       7.015  -6.486   4.687  0.00  0.00    +0.225 A 
ATOM      8  N   UNL     1       7.328  -6.587   5.966  0.00  0.00    -0.220 NA
ATOM      9  C   UNL     1       6.622  -5.949   6.897  0.00  0.00    +0.129 A 
ENDROOT
BRANCH   1  13
ATOM     10  N   UNL     1       1.400  -2.529   2.299  0.00  0.00    +0.387 N 
ATOM     11  C   UNL     1       2.795  -2.079   2.214  0.00  0.00    -0.076 C 
ATOM     12  C   UNL     1       3.530  -2.436   3.507  0.00  0.00    +0.006 C 
ATOM     13  C   UNL     1       3.493  -3.954   3.707  0.00  0.00    +0.085 C 
ATOM     14  C   UNL     1       2.035  -4.422   3.720  0.00  0.00    +0.006 C 
ATOM     15  C   UNL     1       1.355  -3.991   2.419  0.00  0.00    -0.076 C 
ATOM     16  H   UNL     1       0.964  -2.113   3.108  0.00  0.00    -0.081 HD
BRANCH  10  17
ATOM     17  C   UNL     1       0.679  -2.115   1.088  0.00  0.00    +0.044 C 
BRANCH  17  18
ATOM     18  C   UNL     1       0.618  -0.611   1.029  0.00  0.00    +0.290 C 
ATOM     19  O   UNL     1       1.124   0.049   1.905  0.00  0.00    -0.253 OA
BRANCH  18  21
ATOM     20  C   UNL     1      -0.017   1.425   0.010  0.00  0.00    +0.280 C 
ATOM     21  O   UNL     1       0.002  -0.004   0.002  0.00  0.00    -0.469 OA
ENDBRANCH  18  21
ENDBRANCH  17  18
ENDBRANCH  10  17
ENDBRANCH   1  13
BRANCH   3  22
ATOM     22  C   UNL     1       4.405  -4.129   8.633  0.00  0.00    -0.012 A 
ATOM     23  C   UNL     1       4.431  -5.208   9.516  0.00  0.00    +0.009 A 
ATOM     24  C   UNL     1       4.326  -4.990  10.875  0.00  0.00    +0.004 A 
ATOM     25  C   UNL     1       4.196  -3.703  11.364  0.00  0.00    +0.045 A 
ATOM     26  C   UNL     1       4.168  -2.624  10.492  0.00  0.00    +0.117 A 
ATOM     27  C   UNL     1       4.279  -2.833   9.127  0.00  0.00    +0.054 A 
BRANCH  26  28
ATOM     28  O   UNL     1       4.039  -1.361  10.977  0.00  0.00    -0.507 OA
ATOM     29  H   UNL     1       4.881  -0.927  11.174  0.00  0.00    +0.292 HD
ENDBRANCH  26  28
ENDBRANCH   3  22
BRANCH   9  30
ATOM     30  N   UNL     1       6.953  -6.058   8.236  0.00  0.00    -0.343 N 
ATOM     31  H   UNL     1       6.423  -5.597   8.905  0.00  0.00    +0.144 HD
ATOM     32  H   UNL     1       7.714  -6.595   8.505  0.00  0.00    +0.144 HD
ENDBRANCH   9  30
TORSDOF 7
