REMARK  Name = CHEMBL400403
REMARK  8 active torsions:
REMARK  status: ('A' for Active; 'I' for Inactive)
REMARK    1  A    between atoms: C_1  and  C_2
REMARK    2  A    between atoms: C_4  and  C_29
REMARK    3  A    between atoms: N_12  and  C_13
REMARK    4  A    between atoms: C_16  and  C_19
REMARK    5  A    between atoms: N_21  and  C_22
REMARK    6  A    between atoms: C_22  and  C_23
REMARK    7  A    between atoms: C_23  and  N_24
REMARK    8  A    between atoms: C_31  and  O_36
REMARK                            x       y       z     vdW  Elec       q    Type
REMARK                         _______ _______ _______ _____ _____    ______ ____
ROOT
ATOM      1  C   UNL     1       0.029   1.285  -0.061  0.00  0.00    +0.046 C 
ATOM      2  C   UNL     1      -0.772   0.015   0.074  0.00  0.00    -0.022 A 
ATOM      3  C   UNL     1      -1.350  -0.545  -1.021  0.00  0.00    +0.014 A 
ATOM      4  C   UNL     1      -2.099  -1.728  -0.915  0.00  0.00    -0.014 A 
ATOM      5  C   UNL     1      -2.266  -2.349   0.310  0.00  0.00    +0.040 A 
ATOM      6  C   UNL     1      -1.678  -1.787   1.452  0.00  0.00    +0.112 A 
ATOM      7  C   UNL     1      -0.917  -0.594   1.331  0.00  0.00    +0.097 A 
ATOM      8  N   UNL     1      -0.359  -0.075   2.431  0.00  0.00    -0.211 NA
ATOM      9  C   UNL     1      -0.528  -0.690   3.588  0.00  0.00    +0.240 A 
ATOM     10  N   UNL     1      -1.242  -1.814   3.683  0.00  0.00    -0.112 NA
ATOM     11  N   UNL     1      -1.811  -2.350   2.658  0.00  0.00    -0.144 NA
ATOM     12  N   UNL     1       0.048  -0.156   4.729  0.00  0.00    -0.282 N 
ATOM     13  H   UNL     1       0.500   0.701   4.688  0.00  0.00    +0.155 HD
ENDROOT
BRANCH   4  14
ATOM     14  C   UNL     1      -2.719  -2.317  -2.127  0.00  0.00    +0.004 A 
ATOM     15  C   UNL     1      -2.543  -3.668  -2.416  0.00  0.00    +0.055 A 
ATOM     16  C   UNL     1      -3.124  -4.212  -3.549  0.00  0.00    +0.118 A 
ATOM     17  C   UNL     1      -3.878  -3.412  -4.396  0.00  0.00    +0.047 A 
ATOM     18  C   UNL     1      -4.053  -2.070  -4.112  0.00  0.00    +0.024 A 
ATOM     19  C   UNL     1      -3.483  -1.520  -2.980  0.00  0.00    +0.049 A 
ATOM     20 CL   UNL     1      -3.712   0.163  -2.622  0.00  0.00    -0.083 Cl
BRANCH  16  21
ATOM     21  O   UNL     1      -2.954  -5.531  -3.833  0.00  0.00    -0.507 OA
ATOM     22  H   UNL     1      -3.631  -6.106  -3.450  0.00  0.00    +0.292 HD
ENDBRANCH  16  21
ENDBRANCH   4  14
BRANCH  12  23
ATOM     23  C   UNL     1      -0.021  -0.850   5.933  0.00  0.00    +0.034 A 
ATOM     24  C   UNL     1       0.009  -2.242   5.936  0.00  0.00    +0.024 A 
ATOM     25  C   UNL     1      -0.060  -2.931   7.125  0.00  0.00    +0.015 A 
ATOM     26  C   UNL     1      -0.160  -2.232   8.332  0.00  0.00    +0.037 A 
ATOM     27  C   UNL     1      -0.190  -0.834   8.326  0.00  0.00    +0.015 A 
ATOM     28  C   UNL     1      -0.115  -0.151   7.133  0.00  0.00    +0.024 A 
BRANCH  26  29
ATOM     29  C   UNL     1      -0.234  -2.967   9.608  0.00  0.00    +0.244 C 
ATOM     30  O   UNL     1      -0.209  -4.183   9.612  0.00  0.00    -0.270 OA
ATOM     31  N   UNL     1      -0.331  -2.292  10.771  0.00  0.00    -0.313 N 
ATOM     32  H   UNL     1      -0.351  -1.322  10.768  0.00  0.00    +0.149 HD
BRANCH  31  33
ATOM     33  C   UNL     1      -0.405  -3.022  12.039  0.00  0.00    +0.086 C 
BRANCH  33  34
ATOM     34  C   UNL     1      -0.508  -2.026  13.195  0.00  0.00    -0.060 C 
BRANCH  34  35
ATOM     35  N   UNL     1      -0.582  -2.759  14.467  0.00  0.00    +0.381 N 
ATOM     36  C   UNL     1       0.714  -3.427  14.749  0.00  0.00    -0.079 C 
ATOM     37  C   UNL     1       0.674  -3.644  16.283  0.00  0.00    -0.020 C 
ATOM     38  C   UNL     1      -0.021  -2.362  16.796  0.00  0.00    -0.020 C 
ATOM     39  C   UNL     1      -0.803  -1.817  15.586  0.00  0.00    -0.079 C 
ATOM     40  H   UNL     1      -1.326  -3.440  14.434  0.00  0.00    -0.082 HD
ENDBRANCH  34  35
ENDBRANCH  33  34
ENDBRANCH  31  33
ENDBRANCH  26  29
ENDBRANCH  12  23
TORSDOF 7
