REMARK  Name = CHEMBL57443
REMARK  3 active torsions:
REMARK  status: ('A' for Active; 'I' for Inactive)
REMARK    1  A    between atoms: C_3  and  N_20
REMARK    2  A    between atoms: C_5  and  N_7
REMARK    3  A    between atoms: C_12  and  C_14
REMARK                            x       y       z     vdW  Elec       q    Type
REMARK                         _______ _______ _______ _____ _____    ______ ____
ROOT
ATOM      1  N   UNL     1       1.232  -2.082  -0.021  0.00  0.00    -0.284 N 
ATOM      2  C   UNL     1       0.047  -2.791   0.091  0.00  0.00    +0.220 A 
ATOM      3  N   UNL     1      -1.102  -2.130   0.100  0.00  0.00    -0.223 NA
ATOM      4  C   UNL     1      -2.255  -2.771   0.205  0.00  0.00    +0.116 A 
ATOM      5  C   UNL     1      -2.255  -4.152   0.308  0.00  0.00    +0.048 A 
ATOM      6  C   UNL     1      -1.029  -4.820   0.296  0.00  0.00    +0.076 A 
ATOM      7  N   UNL     1       0.091  -4.110   0.182  0.00  0.00    -0.214 NA
ATOM      8  H   UNL     1       2.074  -2.556  -0.114  0.00  0.00    +0.155 HD
ENDROOT
BRANCH   1  13
ATOM      9  C   UNL     1       2.120   1.414  -0.738  0.00  0.00    +0.004 A 
ATOM     10  C   UNL     1       1.190   2.087   0.030  0.00  0.00    +0.023 A 
ATOM     11  C   UNL     1       0.267   1.376   0.787  0.00  0.00    +0.026 A 
ATOM     12  C   UNL     1       0.280  -0.011   0.771  0.00  0.00    +0.046 A 
ATOM     13  C   UNL     1       1.215  -0.684  -0.002  0.00  0.00    +0.035 A 
ATOM     14  C   UNL     1       2.136   0.033  -0.756  0.00  0.00    +0.023 A 
BRANCH  11  15
ATOM     15  N   UNL     1      -0.673   2.057   1.564  0.00  0.00    -0.358 N 
ATOM     16  H   UNL     1      -0.682   3.027   1.576  0.00  0.00    +0.142 HD
ATOM     17  H   UNL     1      -1.317   1.560   2.092  0.00  0.00    +0.142 HD
ENDBRANCH  11  15
ENDBRANCH   1  13
BRANCH   6  18
ATOM     18  C   UNL     1      -0.976  -6.299   0.403  0.00  0.00    +0.003 A 
ATOM     19  C   UNL     1      -2.148  -7.053   0.512  0.00  0.00    +0.030 A 
ATOM     20  C   UNL     1      -2.053  -8.427   0.610  0.00  0.00    +0.111 A 
ATOM     21  N   UNL     1      -0.879  -9.027   0.602  0.00  0.00    -0.263 NA
ATOM     22  C   UNL     1       0.250  -8.352   0.501  0.00  0.00    +0.111 A 
ATOM     23  C   UNL     1       0.246  -6.976   0.392  0.00  0.00    +0.030 A 
ENDBRANCH   6  18
TORSDOF 3
