REMARK  Name = CHEMBL428029
REMARK  7 active torsions:
REMARK  status: ('A' for Active; 'I' for Inactive)
REMARK    1  A    between atoms: C_1  and  C_2
REMARK    2  A    between atoms: C_2  and  S_3
REMARK    3  A    between atoms: S_3  and  C_4
REMARK    4  A    between atoms: N_10  and  C_13
REMARK    5  A    between atoms: C_13  and  C_14
REMARK    6  A    between atoms: C_14  and  C_15
REMARK    7  A    between atoms: N_22  and  C_23
REMARK                            x       y       z     vdW  Elec       q    Type
REMARK                         _______ _______ _______ _____ _____    ______ ____
ROOT
ATOM      1  C   UNL     1      -1.518  -2.415  -0.333  0.00  0.00    +0.192 A 
ATOM      2  N   UNL     1      -0.289  -2.921  -0.300  0.00  0.00    -0.206 NA
ATOM      3  C   UNL     1      -0.084  -4.209  -0.056  0.00  0.00    +0.138 A 
ATOM      4  C   UNL     1      -1.202  -5.037   0.170  0.00  0.00    +0.079 A 
ATOM      5  C   UNL     1      -1.377  -6.409   0.452  0.00  0.00    +0.148 A 
ATOM      6  N   UNL     1      -2.652  -6.647   0.569  0.00  0.00    -0.177 NA
ATOM      7  N   UNL     1      -3.373  -5.462   0.373  0.00  0.00    -0.245 N 
ATOM      8  C   UNL     1      -2.485  -4.458   0.125  0.00  0.00    +0.164 A 
ATOM      9  N   UNL     1      -2.594  -3.154  -0.122  0.00  0.00    -0.202 NA
ATOM     10  N   UNL     1       1.197  -4.726  -0.023  0.00  0.00    -0.299 N 
ATOM     11  H   UNL     1       1.332  -5.682   0.073  0.00  0.00    +0.154 HD
ENDROOT
BRANCH  10  12
ATOM     12  C   UNL     1       2.299  -3.872  -0.130  0.00  0.00    +0.034 A 
ATOM     13  C   UNL     1       2.271  -2.621   0.473  0.00  0.00    +0.023 A 
ATOM     14  C   UNL     1       3.361  -1.780   0.366  0.00  0.00    +0.003 A 
ATOM     15  C   UNL     1       4.479  -2.181  -0.341  0.00  0.00    +0.020 A 
ATOM     16  C   UNL     1       4.511  -3.426  -0.944  0.00  0.00    +0.043 A 
ATOM     17  C   UNL     1       3.426  -4.275  -0.835  0.00  0.00    +0.043 A 
ATOM     18 CL   UNL     1       5.917  -3.925  -1.831  0.00  0.00    -0.083 Cl
ENDBRANCH  10  12
BRANCH   1  19
ATOM     19  S   UNL     1      -1.719  -0.696  -0.663  0.00  0.00    -0.086 S 
BRANCH  19  21
ATOM     20  C   UNL     1      -0.053   1.411  -1.181  0.00  0.00    +0.016 C 
ATOM     21  C   UNL     1      -0.024  -0.090  -0.884  0.00  0.00    +0.074 C 
ENDBRANCH  19  21
ENDBRANCH   1  19
BRANCH   7  22
ATOM     22  C   UNL     1      -4.831  -5.325   0.426  0.00  0.00    +0.169 C 
BRANCH  22  23
ATOM     23  C   UNL     1      -5.261  -4.996   1.857  0.00  0.00    +0.132 C 
ATOM     24 CL   UNL     1      -4.874  -6.388   2.935  0.00  0.00    -0.115 Cl
BRANCH  23  25
ATOM     25  C   UNL     1      -6.745  -4.735   1.887  0.00  0.00    -0.028 A 
ATOM     26  C   UNL     1      -7.633  -5.754   1.595  0.00  0.00    +0.005 A 
ATOM     27  C   UNL     1      -8.994  -5.514   1.624  0.00  0.00    +0.000 A 
ATOM     28  C   UNL     1      -9.467  -4.255   1.944  0.00  0.00    +0.000 A 
ATOM     29  C   UNL     1      -8.580  -3.236   2.236  0.00  0.00    +0.000 A 
ATOM     30  C   UNL     1      -7.219  -3.478   2.212  0.00  0.00    +0.005 A 
ENDBRANCH  23  25
ENDBRANCH  22  23
ENDBRANCH   7  22
TORSDOF 6
