REMARK  Name = CHEMBL377463
REMARK  5 active torsions:
REMARK  status: ('A' for Active; 'I' for Inactive)
REMARK    1  A    between atoms: C_3  and  C_6
REMARK    2  A    between atoms: N_8  and  C_9
REMARK    3  A    between atoms: C_15  and  C_19
REMARK    4  A    between atoms: C_25  and  N_29
REMARK    5  A    between atoms: C_32  and  N_35
REMARK                            x       y       z     vdW  Elec       q    Type
REMARK                         _______ _______ _______ _____ _____    ______ ____
ROOT
ATOM      1  C   UNL     1       8.203  -4.518  -0.530  0.00  0.00    +0.160 A 
ATOM      2  N   UNL     1       9.107  -5.537  -0.661  0.00  0.00    -0.337 N 
ATOM      3  H   UNL     1      10.071  -5.448  -0.728  0.00  0.00    +0.167 HD
ATOM      4  C   UNL     1       8.389  -6.720  -0.682  0.00  0.00    +0.067 A 
ATOM      5  C   UNL     1       8.744  -8.057  -0.792  0.00  0.00    +0.029 A 
ATOM      6  C   UNL     1       7.769  -9.031  -0.780  0.00  0.00    +0.025 A 
ATOM      7  C   UNL     1       6.425  -8.683  -0.658  0.00  0.00    +0.032 A 
ATOM      8  C   UNL     1       6.055  -7.356  -0.547  0.00  0.00    +0.053 A 
ATOM      9  C   UNL     1       7.036  -6.359  -0.558  0.00  0.00    +0.091 A 
ATOM     10  N   UNL     1       6.988  -5.008  -0.464  0.00  0.00    -0.226 NA
ENDROOT
BRANCH   1  17
ATOM     11  C   UNL     1       5.604  -0.656  -0.078  0.00  0.00    +0.035 A 
ATOM     12  C   UNL     1       6.377   0.505  -0.064  0.00  0.00    +0.025 A 
ATOM     13  C   UNL     1       7.735   0.440  -0.176  0.00  0.00    +0.029 A 
ATOM     14  C   UNL     1       8.367  -0.795  -0.305  0.00  0.00    +0.067 A 
ATOM     15  C   UNL     1       7.597  -1.971  -0.320  0.00  0.00    +0.032 A 
ATOM     16  C   UNL     1       6.208  -1.893  -0.199  0.00  0.00    +0.035 A 
ATOM     17  C   UNL     1       8.544  -3.083  -0.466  0.00  0.00    +0.135 A 
ATOM     18  N   UNL     1       9.751  -2.568  -0.529  0.00  0.00    -0.170 NA
ATOM     19  N   UNL     1       9.681  -1.175  -0.434  0.00  0.00    -0.276 N 
ATOM     20  H   UNL     1      10.440  -0.572  -0.456  0.00  0.00    +0.189 HD
BRANCH  11  23
ATOM     21  C   UNL     1       3.552   0.463  -0.523  0.00  0.00    +0.284 C 
ATOM     22  O   UNL     1       4.173   1.361  -1.062  0.00  0.00    -0.266 OA
ATOM     23  N   UNL     1       4.212  -0.569   0.038  0.00  0.00    -0.279 N 
ATOM     24  H   UNL     1       3.722  -1.252   0.523  0.00  0.00    +0.155 HD
BRANCH  21  27
ATOM     25  C   UNL     1      -0.031   1.122  -0.749  0.00  0.00    +0.042 A 
ATOM     26  C   UNL     1       1.298   1.487  -1.013  0.00  0.00    +0.054 A 
ATOM     27  C   UNL     1       2.087   0.505  -0.485  0.00  0.00    +0.189 A 
ATOM     28  O   UNL     1       1.282  -0.421   0.076  0.00  0.00    -0.458 OA
ATOM     29  C   UNL     1       0.004  -0.052  -0.081  0.00  0.00    +0.196 A 
ENDBRANCH  21  27
ENDBRANCH  11  23
ENDBRANCH   1  17
BRANCH   7  30
ATOM     30  N   UNL     1       5.446  -9.682  -0.648  0.00  0.00    -0.330 N 
ATOM     31  C   UNL     1       4.019  -9.332  -0.650  0.00  0.00    +0.103 C 
ATOM     32  C   UNL     1       3.334 -10.060  -1.810  0.00  0.00    +0.004 C 
ATOM     33  C   UNL     1       3.612 -11.561  -1.700  0.00  0.00    -0.066 C 
ATOM     34  C   UNL     1       5.119 -11.810  -1.796  0.00  0.00    +0.004 C 
ATOM     35  C   UNL     1       5.824 -11.102  -0.641  0.00  0.00    +0.103 C 
BRANCH  33  36
ATOM     36  N   UNL     1       2.929 -12.267  -2.793  0.00  0.00    +0.382 N 
ATOM     37  C   UNL     1       1.485 -12.021  -2.704  0.00  0.00    -0.078 C 
ATOM     38  C   UNL     1       0.777 -12.687  -3.886  0.00  0.00    -0.019 C 
ATOM     39  C   UNL     1       1.043 -14.195  -3.850  0.00  0.00    -0.004 C 
ATOM     40  C   UNL     1       2.555 -14.437  -3.867  0.00  0.00    -0.019 C 
ATOM     41  C   UNL     1       3.197 -13.706  -2.686  0.00  0.00    -0.078 C 
ATOM     42  H   UNL     1       3.273 -11.927  -3.678  0.00  0.00    -0.081 HD
ENDBRANCH  33  36
ENDBRANCH   7  30
TORSDOF 5
