REMARK  Name = CHEMBL209753
REMARK  7 active torsions:
REMARK  status: ('A' for Active; 'I' for Inactive)
REMARK    1  A    between atoms: C_4  and  C_7
REMARK    2  A    between atoms: C_7  and  N_8
REMARK    3  A    between atoms: C_11  and  N_14
REMARK    4  A    between atoms: N_14  and  C_15
REMARK    5  A    between atoms: C_21  and  C_25
REMARK    6  A    between atoms: C_30  and  N_34
REMARK    7  A    between atoms: C_37  and  N_40
REMARK                            x       y       z     vdW  Elec       q    Type
REMARK                         _______ _______ _______ _____ _____    ______ ____
ROOT
ATOM      1  C   UNL     1       7.702  -1.409   5.269  0.00  0.00    +0.028 A 
ATOM      2  C   UNL     1       8.698  -1.409   4.284  0.00  0.00    +0.025 A 
ATOM      3  C   UNL     1       9.993  -1.688   4.577  0.00  0.00    +0.032 A 
ATOM      4  C   UNL     1      10.358  -1.988   5.906  0.00  0.00    +0.093 A 
ATOM      5  C   UNL     1       9.310  -1.988   6.939  0.00  0.00    +0.032 A 
ATOM      6  C   UNL     1       7.992  -1.686   6.576  0.00  0.00    +0.035 A 
ATOM      7  C   UNL     1       9.986  -2.317   8.120  0.00  0.00    +0.109 A 
ATOM      8  N   UNL     1      11.292  -2.486   7.779  0.00  0.00    -0.273 N 
ATOM      9  N   UNL     1      11.484  -2.296   6.524  0.00  0.00    -0.173 NA
ATOM     10  H   UNL     1      11.993  -2.721   8.408  0.00  0.00    +0.189 HD
ENDROOT
BRANCH   7  11
ATOM     11  C   UNL     1       9.401  -2.452   9.459  0.00  0.00    +0.158 A 
ATOM     12  N   UNL     1       8.130  -2.286   9.751  0.00  0.00    -0.226 NA
ATOM     13  C   UNL     1       7.937  -2.486  11.077  0.00  0.00    +0.090 A 
ATOM     14  C   UNL     1       6.805  -2.437  11.899  0.00  0.00    +0.032 A 
ATOM     15  C   UNL     1       6.920  -2.691  13.235  0.00  0.00    +0.025 A 
ATOM     16  C   UNL     1       8.159  -3.001  13.794  0.00  0.00    +0.032 A 
ATOM     17  C   UNL     1       9.292  -3.054  12.998  0.00  0.00    +0.051 A 
ATOM     18  C   UNL     1       9.188  -2.799  11.639  0.00  0.00    +0.068 A 
ATOM     19  N   UNL     1      10.097  -2.777  10.598  0.00  0.00    -0.337 N 
ATOM     20  H   UNL     1      11.049  -2.956  10.660  0.00  0.00    +0.167 HD
BRANCH  16  21
ATOM     21  N   UNL     1       8.259  -3.258  15.165  0.00  0.00    -0.330 N 
ATOM     22  C   UNL     1       9.530  -3.704  15.752  0.00  0.00    +0.103 C 
ATOM     23  C   UNL     1       9.890  -2.771  16.913  0.00  0.00    +0.004 C 
ATOM     24  C   UNL     1       8.724  -2.720  17.902  0.00  0.00    -0.066 C 
ATOM     25  C   UNL     1       7.483  -2.163  17.203  0.00  0.00    +0.004 C 
ATOM     26  C   UNL     1       7.096  -3.083  16.046  0.00  0.00    +0.103 C 
BRANCH  24  27
ATOM     27  N   UNL     1       9.080  -1.853  19.033  0.00  0.00    +0.382 N 
ATOM     28  C   UNL     1      10.275  -2.385  19.700  0.00  0.00    -0.078 C 
ATOM     29  C   UNL     1      10.697  -1.441  20.828  0.00  0.00    -0.019 C 
ATOM     30  C   UNL     1       9.555  -1.324  21.842  0.00  0.00    -0.004 C 
ATOM     31  C   UNL     1       8.293  -0.839  21.121  0.00  0.00    -0.019 C 
ATOM     32  C   UNL     1       7.960  -1.805  19.982  0.00  0.00    -0.078 C 
ATOM     33  H   UNL     1       9.272  -0.922  18.695  0.00  0.00    -0.081 HD
ENDBRANCH  24  27
ENDBRANCH  16  21
ENDBRANCH   7  11
BRANCH   1  34
ATOM     34  N   UNL     1       6.385  -1.114   4.909  0.00  0.00    -0.341 N 
ATOM     35  H   UNL     1       5.687  -1.108   5.584  0.00  0.00    +0.146 HD
BRANCH  34  39
ATOM     36  N   UNL     1       4.157  -0.996   1.333  0.00  0.00    +0.382 N 
ATOM     37  C   UNL     1       4.409   0.289   1.996  0.00  0.00    -0.077 C 
ATOM     38  C   UNL     1       4.791   0.046   3.458  0.00  0.00    +0.003 C 
ATOM     39  C   UNL     1       6.056  -0.815   3.513  0.00  0.00    +0.067 C 
ATOM     40  C   UNL     1       5.806  -2.121   2.755  0.00  0.00    +0.003 C 
ATOM     41  C   UNL     1       5.386  -1.798   1.319  0.00  0.00    -0.077 C 
ATOM     42  H   UNL     1       3.437  -1.495   1.833  0.00  0.00    -0.081 HD
BRANCH  36  43
ATOM     43  C   UNL     1       3.716  -0.755  -0.047  0.00  0.00    -0.043 C 
BRANCH  43  47
ATOM     44  C   UNL     1      -0.041   1.278  -0.007  0.00  0.00    +0.000 A 
ATOM     45  C   UNL     1       1.137   2.002  -0.011  0.00  0.00    +0.000 A 
ATOM     46  C   UNL     1       2.353   1.344  -0.024  0.00  0.00    +0.002 A 
ATOM     47  C   UNL     1       2.390  -0.038  -0.032  0.00  0.00    -0.064 A 
ATOM     48  C   UNL     1       1.213  -0.762  -0.028  0.00  0.00    +0.002 A 
ATOM     49  C   UNL     1      -0.003  -0.104  -0.016  0.00  0.00    +0.000 A 
ENDBRANCH  43  47
ENDBRANCH  36  43
ENDBRANCH  34  39
ENDBRANCH   1  34
TORSDOF 7
