REMARK  Name = CHEMBL1171247
REMARK  9 active torsions:
REMARK  status: ('A' for Active; 'I' for Inactive)
REMARK    1  A    between atoms: C_1  and  C_2
REMARK    2  A    between atoms: C_5  and  C_21
REMARK    3  A    between atoms: C_7  and  C_8
REMARK    4  A    between atoms: C_9  and  C_10
REMARK    5  A    between atoms: N_23  and  C_24
REMARK    6  A    between atoms: C_27  and  C_34
REMARK    7  A    between atoms: C_28  and  C_30
REMARK    8  A    between atoms: C_34  and  N_35
REMARK    9  A    between atoms: N_38  and  C_41
REMARK                            x       y       z     vdW  Elec       q    Type
REMARK                         _______ _______ _______ _____ _____    ______ ____
ROOT
ATOM      1  C   UNL     1       0.366  -4.157  -0.483  0.00  0.00    +0.248 C 
ATOM      2  O   UNL     1       0.770  -4.691   0.531  0.00  0.00    -0.270 OA
ATOM      3  N   UNL     1      -0.026  -4.909  -1.530  0.00  0.00    -0.281 N 
ATOM      4  H   UNL     1      -0.413  -4.486  -2.313  0.00  0.00    +0.155 HD
ENDROOT
BRANCH   1   9
ATOM      5  C   UNL     1       0.113   1.592  -0.847  0.00  0.00    +0.045 C 
ATOM      6  C   UNL     1       0.181   0.090  -0.748  0.00  0.00    -0.035 A 
ATOM      7  C   UNL     1      -0.217  -0.690  -1.816  0.00  0.00    +0.005 A 
ATOM      8  C   UNL     1      -0.159  -2.067  -1.734  0.00  0.00    +0.013 A 
ATOM      9  C   UNL     1       0.305  -2.682  -0.569  0.00  0.00    +0.038 A 
ATOM     10  C   UNL     1       0.710  -1.903   0.513  0.00  0.00    +0.030 A 
ATOM     11  C   UNL     1       0.654  -0.512   0.422  0.00  0.00    +0.029 A 
BRANCH  11  12
ATOM     12  C   UNL     1       1.073   0.297   1.526  0.00  0.00    -0.061 C 
ATOM     13  C   UNL     1       1.417   0.961   2.432  0.00  0.00    -0.059 C 
BRANCH  13  14
ATOM     14  C   UNL     1       1.837   1.770   3.536  0.00  0.00    +0.047 A 
ATOM     15  C   UNL     1       1.773   3.171   3.458  0.00  0.00    +0.067 A 
ATOM     16  C   UNL     1       2.190   3.904   4.552  0.00  0.00    +0.162 A 
ATOM     17  C   UNL     1       2.658   3.238   5.689  0.00  0.00    +0.167 A 
ATOM     18  N   UNL     1       2.703   1.917   5.727  0.00  0.00    -0.235 NA
ATOM     19  C   UNL     1       2.310   1.179   4.709  0.00  0.00    +0.130 A 
ATOM     20  N   UNL     1       3.079   3.991   6.788  0.00  0.00    -0.265 N 
ATOM     21  C   UNL     1       2.740   5.296   6.861  0.00  0.00    +0.256 C 
ATOM     22  O   UNL     1       3.121   5.972   7.793  0.00  0.00    -0.272 OA
ATOM     23  C   UNL     1       1.886   5.912   5.782  0.00  0.00    +0.325 C 
ATOM     24  O   UNL     1       2.150   5.262   4.535  0.00  0.00    -0.479 OA
ATOM     25  H   UNL     1       3.608   3.582   7.490  0.00  0.00    +0.156 HD
ENDBRANCH  13  14
ENDBRANCH  11  12
ENDBRANCH   1   9
BRANCH   3  26
ATOM     26  C   UNL     1       0.124  -6.299  -1.488  0.00  0.00    +0.034 A 
ATOM     27  C   UNL     1      -0.048  -6.981  -0.291  0.00  0.00    +0.023 A 
ATOM     28  C   UNL     1       0.102  -8.354  -0.253  0.00  0.00    +0.007 A 
ATOM     29  C   UNL     1       0.422  -9.048  -1.405  0.00  0.00    -0.022 A 
ATOM     30  C   UNL     1       0.594  -8.371  -2.599  0.00  0.00    +0.061 A 
ATOM     31  C   UNL     1       0.440  -7.000  -2.645  0.00  0.00    +0.036 A 
BRANCH  30  32
ATOM     32  C   UNL     1       0.943  -9.132  -3.852  0.00  0.00    +0.418 C 
ATOM     33  F   UNL     1       1.016  -8.245  -4.931  0.00  0.00    -0.166 F 
ATOM     34  F   UNL     1       2.180  -9.765  -3.684  0.00  0.00    -0.166 F 
ATOM     35  F   UNL     1      -0.042 -10.093  -4.103  0.00  0.00    -0.166 F 
ENDBRANCH  30  32
BRANCH  29  36
ATOM     36  C   UNL     1       0.585 -10.546  -1.360  0.00  0.00    +0.120 C 
BRANCH  36  37
ATOM     37  N   UNL     1      -0.629 -11.186  -1.883  0.00  0.00    -0.302 NA
ATOM     38  C   UNL     1      -1.794 -10.872  -1.044  0.00  0.00    +0.066 C 
ATOM     39  C   UNL     1      -3.045 -11.507  -1.654  0.00  0.00    -0.064 C 
ATOM     40  N   UNL     1      -2.862 -12.962  -1.743  0.00  0.00    +0.379 N 
ATOM     41  C   UNL     1      -1.710 -13.261  -2.604  0.00  0.00    -0.064 C 
ATOM     42  C   UNL     1      -0.448 -12.640  -2.001  0.00  0.00    +0.066 C 
ATOM     43  C   UNL     1      -4.071 -13.573  -2.312  0.00  0.00    -0.096 C 
ATOM     44  H   UNL     1      -2.699 -13.337  -0.821  0.00  0.00    -0.082 HD
ENDBRANCH  36  37
ENDBRANCH  29  36
ENDBRANCH   3  26
TORSDOF 7
