REMARK  Name = CHEMBL248392
REMARK  11 active torsions:
REMARK  status: ('A' for Active; 'I' for Inactive)
REMARK    1  A    between atoms: C_1  and  O_2
REMARK    2  A    between atoms: O_2  and  C_3
REMARK    3  A    between atoms: C_8  and  O_9
REMARK    4  A    between atoms: O_9  and  C_10
REMARK    5  A    between atoms: C_10  and  C_11
REMARK    6  A    between atoms: C_11  and  C_12
REMARK    7  A    between atoms: C_12  and  N_13
REMARK    8  A    between atoms: C_21  and  C_35
REMARK    9  A    between atoms: C_22  and  N_23
REMARK   10  A    between atoms: N_23  and  C_24
REMARK   11  A    between atoms: C_27  and  C_29
REMARK                            x       y       z     vdW  Elec       q    Type
REMARK                         _______ _______ _______ _____ _____    ______ ____
ROOT
ATOM      1  C   UNL     1      -0.181  -0.769  -1.819  0.00  0.00    +0.162 A 
ATOM      2  C   UNL     1       0.624   0.045  -2.563  0.00  0.00    +0.061 A 
ATOM      3  C   UNL     1       1.649  -0.511  -3.342  0.00  0.00    +0.026 A 
ATOM      4  C   UNL     1       1.846  -1.913  -3.356  0.00  0.00    +0.076 A 
ATOM      5  C   UNL     1       1.005  -2.729  -2.584  0.00  0.00    +0.077 A 
ATOM      6  C   UNL     1       0.010  -2.158  -1.823  0.00  0.00    +0.164 A 
ATOM      7  N   UNL     1       2.825  -2.450  -4.098  0.00  0.00    -0.253 NA
ATOM      8  C   UNL     1       3.625  -1.716  -4.828  0.00  0.00    +0.132 A 
ATOM      9  C   UNL     1       3.502  -0.318  -4.875  0.00  0.00    +0.091 A 
ATOM     10  C   UNL     1       2.498   0.309  -4.122  0.00  0.00    +0.056 A 
ENDROOT
BRANCH   1  12
ATOM     11  C   UNL     1      -1.317   1.194  -1.103  0.00  0.00    +0.277 C 
ATOM     12  O   UNL     1      -1.174  -0.228  -1.064  0.00  0.00    -0.491 OA
ENDBRANCH   1  12
BRANCH  10  13
ATOM     13  N   UNL     1       2.344   1.680  -4.140  0.00  0.00    -0.339 N 
ATOM     14  H   UNL     1       1.963   2.136  -3.373  0.00  0.00    +0.146 HD
BRANCH  13  15
ATOM     15  C   UNL     1       2.756   2.448  -5.318  0.00  0.00    +0.078 C 
ATOM     16  C   UNL     1       3.750   3.591  -5.105  0.00  0.00    +0.032 C 
ATOM     17  C   UNL     1       2.284   3.900  -5.416  0.00  0.00    +0.041 C 
BRANCH  17  18
ATOM     18  C   UNL     1       1.962   4.436  -6.787  0.00  0.00    -0.042 A 
ATOM     19  C   UNL     1       2.936   4.459  -7.767  0.00  0.00    +0.004 A 
ATOM     20  C   UNL     1       2.641   4.951  -9.024  0.00  0.00    +0.000 A 
ATOM     21  C   UNL     1       1.370   5.419  -9.302  0.00  0.00    +0.000 A 
ATOM     22  C   UNL     1       0.395   5.395  -8.322  0.00  0.00    +0.000 A 
ATOM     23  C   UNL     1       0.690   4.899  -7.066  0.00  0.00    +0.004 A 
ENDBRANCH  17  18
ENDBRANCH  13  15
ENDBRANCH  10  13
BRANCH   9  24
ATOM     24  C   UNL     1       4.393   0.460  -5.682  0.00  0.00    +0.103 C 
ATOM     25  N   UNL     1       5.099   1.077  -6.323  0.00  0.00    -0.191 NA
ENDBRANCH   9  24
BRANCH   6  26
ATOM     26  O   UNL     1      -0.799  -2.949  -1.071  0.00  0.00    -0.488 OA
BRANCH  26  27
ATOM     27  C   UNL     1      -0.554  -4.356  -1.117  0.00  0.00    +0.227 C 
BRANCH  27  28
ATOM     28  C   UNL     1      -1.557  -5.078  -0.214  0.00  0.00    +0.022 C 
BRANCH  28  29
ATOM     29  C   UNL     1      -1.295  -6.585  -0.263  0.00  0.00    -0.075 C 
BRANCH  29  30
ATOM     30  N   UNL     1      -2.257  -7.278   0.604  0.00  0.00    +0.383 N 
ATOM     31  C   UNL     1      -2.026  -6.889   2.002  0.00  0.00    -0.050 C 
ATOM     32  C   UNL     1      -3.030  -7.612   2.903  0.00  0.00    +0.141 C 
ATOM     33  O   UNL     1      -2.895  -9.024   2.721  0.00  0.00    -0.383 OA
ATOM     34  C   UNL     1      -3.088  -9.450   1.369  0.00  0.00    +0.141 C 
ATOM     35  C   UNL     1      -2.084  -8.730   0.465  0.00  0.00    -0.050 C 
ATOM     36  H   UNL     1      -3.196  -7.023   0.335  0.00  0.00    -0.082 HD
ENDBRANCH  29  30
ENDBRANCH  28  29
ENDBRANCH  27  28
ENDBRANCH  26  27
ENDBRANCH   6  26
TORSDOF 10
