REMARK  Name = CHEMBL482968
REMARK  6 active torsions:
REMARK  status: ('A' for Active; 'I' for Inactive)
REMARK    1  A    between atoms: C_1  and  C_2
REMARK    2  A    between atoms: C_4  and  N_8
REMARK    3  A    between atoms: C_11  and  N_23
REMARK    4  A    between atoms: C_13  and  C_15
REMARK    5  A    between atoms: C_16  and  C_17
REMARK    6  A    between atoms: N_26  and  C_29
REMARK                            x       y       z     vdW  Elec       q    Type
REMARK                         _______ _______ _______ _____ _____    ______ ____
ROOT
ATOM      1  N   UNL     1       0.044  -3.255   1.515  0.00  0.00    -0.286 N 
ATOM      2  C   UNL     1       0.155  -3.175   2.896  0.00  0.00    +0.106 A 
ATOM      3  C   UNL     1       0.132  -1.937   3.535  0.00  0.00    +0.085 A 
ATOM      4  C   UNL     1       0.246  -1.903   4.922  0.00  0.00    +0.127 A 
ATOM      5  N   UNL     1       0.371  -3.046   5.590  0.00  0.00    -0.215 NA
ATOM      6  C   UNL     1       0.389  -4.210   4.949  0.00  0.00    +0.134 A 
ATOM      7  N   UNL     1       0.278  -4.279   3.627  0.00  0.00    -0.328 N 
ATOM      8  H   UNL     1      -0.291  -4.066   1.102  0.00  0.00    +0.155 HD
ATOM      9  H   UNL     1       0.290  -5.145   3.189  0.00  0.00    +0.169 HD
ENDROOT
BRANCH   4  10
ATOM     10  N   UNL     1       0.229  -0.693   5.599  0.00  0.00    -0.319 N 
ATOM     11  C   UNL     1       0.561  -0.622   7.030  0.00  0.00    +0.088 C 
ATOM     12  C   UNL     1       1.611   0.476   7.231  0.00  0.00    -0.060 C 
ATOM     13  N   UNL     1       1.117   1.735   6.660  0.00  0.00    +0.380 N 
ATOM     14  C   UNL     1       0.961   1.599   5.207  0.00  0.00    -0.060 C 
ATOM     15  C   UNL     1      -0.115   0.557   4.904  0.00  0.00    +0.088 C 
ATOM     16  C   UNL     1       2.074   2.811   6.950  0.00  0.00    -0.096 C 
ATOM     17  H   UNL     1       0.224   1.962   7.073  0.00  0.00    -0.082 HD
ENDBRANCH   4  10
BRANCH   1  21
ATOM     18  C   UNL     1       0.721  -0.266  -2.422  0.00  0.00    +0.067 C 
ATOM     19  C   UNL     1       0.731  -0.813  -1.018  0.00  0.00    +0.062 A 
ATOM     20  C   UNL     1       0.212  -2.048  -0.618  0.00  0.00    +0.068 A 
ATOM     21  C   UNL     1       0.414  -2.171   0.723  0.00  0.00    +0.119 A 
ATOM     22  N   UNL     1       1.042  -1.044   1.146  0.00  0.00    -0.264 N 
ATOM     23  N   UNL     1       1.232  -0.215   0.032  0.00  0.00    -0.178 NA
ATOM     24  H   UNL     1       1.313  -0.848   2.056  0.00  0.00    +0.190 HD
ENDBRANCH   1  21
BRANCH   6  25
ATOM     25  C   UNL     1       0.530  -5.454   5.724  0.00  0.00    +0.047 C 
ATOM     26  C   UNL     1       0.638  -5.404   7.062  0.00  0.00    +0.011 C 
BRANCH  26  27
ATOM     27  C   UNL     1       0.779  -6.649   7.837  0.00  0.00    -0.025 A 
ATOM     28  C   UNL     1       0.806  -7.884   7.183  0.00  0.00    +0.008 A 
ATOM     29  C   UNL     1       0.938  -9.045   7.915  0.00  0.00    +0.001 A 
ATOM     30  C   UNL     1       1.044  -8.990   9.294  0.00  0.00    +0.000 A 
ATOM     31  C   UNL     1       1.018  -7.771   9.948  0.00  0.00    +0.001 A 
ATOM     32  C   UNL     1       0.893  -6.601   9.229  0.00  0.00    +0.008 A 
ENDBRANCH  26  27
ENDBRANCH   6  25
TORSDOF 4
