REMARK  Name = CHEMBL205723
REMARK  9 active torsions:
REMARK  status: ('A' for Active; 'I' for Inactive)
REMARK    1  A    between atoms: C_1  and  C_2
REMARK    2  A    between atoms: C_5  and  N_21
REMARK    3  A    between atoms: C_7  and  N_8
REMARK    4  A    between atoms: C_13  and  C_15
REMARK    5  A    between atoms: C_22  and  C_24
REMARK    6  A    between atoms: C_27  and  C_34
REMARK    7  A    between atoms: C_28  and  C_30
REMARK    8  A    between atoms: C_34  and  N_35
REMARK    9  A    between atoms: N_38  and  C_41
REMARK                            x       y       z     vdW  Elec       q    Type
REMARK                         _______ _______ _______ _____ _____    ______ ____
ROOT
ATOM      1  N   UNL     1       2.573  -3.108  -3.238  0.00  0.00    -0.281 N 
ATOM      2  C   UNL     1       2.589  -3.235  -4.580  0.00  0.00    +0.248 C 
ATOM      3  O   UNL     1       2.721  -2.251  -5.282  0.00  0.00    -0.270 OA
ATOM      4  H   UNL     1       2.393  -3.881  -2.680  0.00  0.00    +0.155 HD
ENDROOT
BRANCH   1   9
ATOM      5  C   UNL     1       3.544   1.956  -0.863  0.00  0.00    +0.045 C 
ATOM      6  C   UNL     1       3.287   0.612  -1.493  0.00  0.00    -0.029 A 
ATOM      7  C   UNL     1       2.563   0.525  -2.666  0.00  0.00    +0.007 A 
ATOM      8  C   UNL     1       2.325  -0.706  -3.246  0.00  0.00    +0.024 A 
ATOM      9  C   UNL     1       2.814  -1.862  -2.651  0.00  0.00    +0.035 A 
ATOM     10  C   UNL     1       3.543  -1.779  -1.473  0.00  0.00    +0.047 A 
ATOM     11  C   UNL     1       3.785  -0.540  -0.896  0.00  0.00    +0.038 A 
BRANCH  11  12
ATOM     12  N   UNL     1       4.523  -0.452   0.288  0.00  0.00    -0.283 N 
ATOM     13  C   UNL     1       4.575  -1.532   1.155  0.00  0.00    +0.220 A 
ATOM     14  N   UNL     1       3.828  -2.597   0.903  0.00  0.00    -0.223 NA
ATOM     15  C   UNL     1       3.850  -3.649   1.706  0.00  0.00    +0.116 A 
ATOM     16  C   UNL     1       4.667  -3.631   2.824  0.00  0.00    +0.048 A 
ATOM     17  C   UNL     1       5.443  -2.494   3.062  0.00  0.00    +0.079 A 
ATOM     18  N   UNL     1       5.373  -1.475   2.209  0.00  0.00    -0.214 NA
ATOM     19  H   UNL     1       4.999   0.366   0.503  0.00  0.00    +0.155 HD
BRANCH  17  20
ATOM     20  C   UNL     1       6.334  -2.425   4.246  0.00  0.00    +0.037 A 
ATOM     21  C   UNL     1       6.421  -3.494   5.142  0.00  0.00    +0.124 A 
ATOM     22  N   UNL     1       7.228  -3.392   6.184  0.00  0.00    -0.243 NA
ATOM     23  C   UNL     1       7.943  -2.302   6.383  0.00  0.00    +0.221 A 
ATOM     24  N   UNL     1       7.890  -1.271   5.563  0.00  0.00    -0.243 NA
ATOM     25  C   UNL     1       7.114  -1.292   4.493  0.00  0.00    +0.124 A 
ENDBRANCH  17  20
ENDBRANCH  11  12
ENDBRANCH   1   9
BRANCH   2  26
ATOM     26  C   UNL     1       2.446  -4.570  -5.197  0.00  0.00    +0.038 A 
ATOM     27  C   UNL     1       2.289  -5.701  -4.394  0.00  0.00    +0.013 A 
ATOM     28  C   UNL     1       2.156  -6.944  -4.977  0.00  0.00    +0.006 A 
ATOM     29  C   UNL     1       2.179  -7.072  -6.355  0.00  0.00    -0.022 A 
ATOM     30  C   UNL     1       2.335  -5.955  -7.156  0.00  0.00    +0.060 A 
ATOM     31  C   UNL     1       2.462  -4.705  -6.586  0.00  0.00    +0.025 A 
BRANCH  30  32
ATOM     32  C   UNL     1       2.359  -6.104  -8.656  0.00  0.00    +0.418 C 
ATOM     33  F   UNL     1       2.506  -4.844  -9.247  0.00  0.00    -0.166 F 
ATOM     34  F   UNL     1       3.432  -6.921  -9.026  0.00  0.00    -0.166 F 
ATOM     35  F   UNL     1       1.161  -6.684  -9.086  0.00  0.00    -0.166 F 
ENDBRANCH  30  32
BRANCH  29  36
ATOM     36  C   UNL     1       2.033  -8.433  -6.984  0.00  0.00    +0.120 C 
BRANCH  36  37
ATOM     37  N   UNL     1       0.651  -8.612  -7.449  0.00  0.00    -0.302 NA
ATOM     38  C   UNL     1      -0.267  -8.792  -6.315  0.00  0.00    +0.066 C 
ATOM     39  C   UNL     1      -1.700  -8.915  -6.837  0.00  0.00    -0.064 C 
ATOM     40  N   UNL     1      -1.792 -10.062  -7.750  0.00  0.00    +0.379 N 
ATOM     41  C   UNL     1      -0.888  -9.857  -8.889  0.00  0.00    -0.064 C 
ATOM     42  C   UNL     1       0.552  -9.742  -8.384  0.00  0.00    +0.066 C 
ATOM     43  C   UNL     1      -3.171 -10.191  -8.237  0.00  0.00    -0.096 C 
ATOM     44  H   UNL     1      -1.528 -10.904  -7.259  0.00  0.00    -0.082 HD
ENDBRANCH  36  37
ENDBRANCH  29  36
ENDBRANCH   2  26
TORSDOF 7
