REMARK  Name = CHEMBL296844
REMARK  11 active torsions:
REMARK  status: ('A' for Active; 'I' for Inactive)
REMARK    1  A    between atoms: C_1  and  N_2
REMARK    2  A    between atoms: C_7  and  C_8
REMARK    3  A    between atoms: C_8  and  O_9
REMARK    4  A    between atoms: O_9  and  C_10
REMARK    5  A    between atoms: C_15  and  O_16
REMARK    6  A    between atoms: O_16  and  C_17
REMARK    7  A    between atoms: C_18  and  N_24
REMARK    8  A    between atoms: C_19  and  C_22
REMARK    9  A    between atoms: N_24  and  C_25
REMARK   10  A    between atoms: C_27  and  O_33
REMARK   11  A    between atoms: O_33  and  C_34
REMARK                            x       y       z     vdW  Elec       q    Type
REMARK                         _______ _______ _______ _____ _____    ______ ____
ROOT
ATOM      1  C   UNL     1       7.655  -0.628   3.045  0.00  0.00    +0.164 A 
ATOM      2  C   UNL     1       6.978   0.564   2.918  0.00  0.00    +0.077 A 
ATOM      3  C   UNL     1       7.108   1.317   1.741  0.00  0.00    +0.077 A 
ATOM      4  C   UNL     1       7.938   0.833   0.701  0.00  0.00    +0.026 A 
ATOM      5  C   UNL     1       8.617  -0.384   0.856  0.00  0.00    +0.061 A 
ATOM      6  C   UNL     1       8.479  -1.096   2.013  0.00  0.00    +0.162 A 
ATOM      7  C   UNL     1       8.066   1.594  -0.484  0.00  0.00    +0.060 A 
ATOM      8  C   UNL     1       7.357   2.802  -0.567  0.00  0.00    +0.091 A 
ATOM      9  C   UNL     1       6.557   3.204   0.514  0.00  0.00    +0.132 A 
ATOM     10  N   UNL     1       6.456   2.481   1.600  0.00  0.00    -0.253 NA
ENDROOT
BRANCH   6  11
ATOM     11  O   UNL     1       9.143  -2.274   2.162  0.00  0.00    -0.491 OA
ATOM     12  C   UNL     1       9.966  -2.697   1.073  0.00  0.00    +0.277 C 
ENDBRANCH   6  11
BRANCH   8  13
ATOM     13  C   UNL     1       7.448   3.615  -1.742  0.00  0.00    +0.103 C 
ATOM     14  N   UNL     1       7.521   4.261  -2.674  0.00  0.00    -0.191 NA
ENDBRANCH   8  13
BRANCH   7  15
ATOM     15  N   UNL     1       8.864   1.163  -1.525  0.00  0.00    -0.312 N 
ATOM     16  H   UNL     1       8.469   0.693  -2.277  0.00  0.00    +0.152 HD
BRANCH  15  17
ATOM     17  C   UNL     1      10.241   1.403  -1.496  0.00  0.00    +0.053 A 
ATOM     18  C   UNL     1      10.825   1.968  -0.370  0.00  0.00    +0.071 A 
ATOM     19  C   UNL     1      12.190   2.204  -0.345  0.00  0.00    +0.140 A 
ATOM     20  C   UNL     1      12.972   1.877  -1.445  0.00  0.00    +0.084 A 
ATOM     21  C   UNL     1      12.389   1.314  -2.566  0.00  0.00    +0.045 A 
ATOM     22  C   UNL     1      11.029   1.071  -2.593  0.00  0.00    +0.064 A 
ATOM     23 CL   UNL     1      10.302   0.358  -3.999  0.00  0.00    -0.082 Cl
ATOM     24 CL   UNL     1      14.682   2.174  -1.413  0.00  0.00    -0.080 Cl
BRANCH  19  25
ATOM     25  O   UNL     1      12.764   2.757   0.757  0.00  0.00    -0.494 OA
ATOM     26  C   UNL     1      11.923   2.957   1.895  0.00  0.00    +0.277 C 
ENDBRANCH  19  25
ENDBRANCH  15  17
ENDBRANCH   7  15
BRANCH   1  27
ATOM     27  O   UNL     1       7.528  -1.355   4.186  0.00  0.00    -0.490 OA
BRANCH  27  28
ATOM     28  C   UNL     1       6.674  -0.824   5.201  0.00  0.00    +0.214 C 
BRANCH  28  35
ATOM     29  C   UNL     1       4.698  -2.801   5.475  0.00  0.00    -0.096 C 
ATOM     30  N   UNL     1       6.045  -3.049   6.006  0.00  0.00    +0.382 N 
ATOM     31  C   UNL     1       5.955  -3.939   7.169  0.00  0.00    -0.079 C 
ATOM     32  C   UNL     1       7.362  -4.266   7.676  0.00  0.00    -0.019 C 
ATOM     33  C   UNL     1       8.068  -2.968   8.078  0.00  0.00    -0.003 C 
ATOM     34  C   UNL     1       8.090  -2.018   6.878  0.00  0.00    -0.012 C 
ATOM     35  C   UNL     1       6.657  -1.774   6.401  0.00  0.00    -0.031 C 
ATOM     36  H   UNL     1       6.611  -3.485   5.293  0.00  0.00    -0.082 HD
ENDBRANCH  28  35
ENDBRANCH  27  28
ENDBRANCH   1  27
TORSDOF 8
