REMARK  Name = CHEMBL1088240
REMARK  12 active torsions:
REMARK  status: ('A' for Active; 'I' for Inactive)
REMARK    1  A    between atoms: C_1  and  N_2
REMARK    2  A    between atoms: N_5  and  C_8
REMARK    3  A    between atoms: C_8  and  C_9
REMARK    4  A    between atoms: C_9  and  C_10
REMARK    5  A    between atoms: C_11  and  C_12
REMARK    6  A    between atoms: C_17  and  O_18
REMARK    7  A    between atoms: O_18  and  C_19
REMARK    8  A    between atoms: C_20  and  N_26
REMARK    9  A    between atoms: C_21  and  C_24
REMARK   10  A    between atoms: N_26  and  C_27
REMARK   11  A    between atoms: C_29  and  O_35
REMARK   12  A    between atoms: O_35  and  C_36
REMARK                            x       y       z     vdW  Elec       q    Type
REMARK                         _______ _______ _______ _____ _____    ______ ____
ROOT
ATOM      1  C   UNL     1       0.283 -10.937  -1.362  0.00  0.00    +0.018 A 
ATOM      2  C   UNL     1      -0.570 -10.752  -0.286  0.00  0.00    +0.040 A 
ATOM      3  C   UNL     1      -0.215 -11.251   0.975  0.00  0.00    +0.074 A 
ATOM      4  C   UNL     1       1.015 -11.938   1.127  0.00  0.00    +0.026 A 
ATOM      5  C   UNL     1       1.863 -12.114   0.024  0.00  0.00    +0.058 A 
ATOM      6  C   UNL     1       1.501 -11.626  -1.199  0.00  0.00    +0.128 A 
ATOM      7  C   UNL     1       1.367 -12.439   2.402  0.00  0.00    +0.060 A 
ATOM      8  C   UNL     1       0.471 -12.226   3.460  0.00  0.00    +0.091 A 
ATOM      9  C   UNL     1      -0.727 -11.534   3.218  0.00  0.00    +0.132 A 
ATOM     10  N   UNL     1      -1.028 -11.081   2.028  0.00  0.00    -0.254 NA
ENDROOT
BRANCH   1  12
ATOM     11  C   UNL     1      -1.235  -9.762  -2.850  0.00  0.00    -0.028 C 
ATOM     12  C   UNL     1      -0.089 -10.412  -2.691  0.00  0.00    +0.007 C 
BRANCH  11  13
ATOM     13  C   UNL     1      -1.615  -9.227  -4.207  0.00  0.00    +0.008 C 
BRANCH  13  14
ATOM     14  C   UNL     1      -2.992  -9.766  -4.600  0.00  0.00    -0.075 C 
BRANCH  14  19
ATOM     15  C   UNL     1      -4.566  -9.132  -9.973  0.00  0.00    +0.104 C 
ATOM     16  N   UNL     1      -4.188  -9.602  -8.634  0.00  0.00    -0.309 NA
ATOM     17  C   UNL     1      -5.125  -9.105  -7.617  0.00  0.00    +0.065 C 
ATOM     18  C   UNL     1      -4.732  -9.664  -6.248  0.00  0.00    -0.063 C 
ATOM     19  N   UNL     1      -3.362  -9.244  -5.922  0.00  0.00    +0.382 N 
ATOM     20  C   UNL     1      -2.435  -9.769  -6.933  0.00  0.00    -0.063 C 
ATOM     21  C   UNL     1      -2.809  -9.211  -8.308  0.00  0.00    +0.065 C 
ATOM     22  H   UNL     1      -3.313  -8.237  -5.912  0.00  0.00    -0.082 HD
ENDBRANCH  14  19
ENDBRANCH  13  14
ENDBRANCH  11  13
ENDBRANCH   1  12
BRANCH   6  23
ATOM     23  O   UNL     1       2.323 -11.804  -2.266  0.00  0.00    -0.495 OA
ATOM     24  C   UNL     1       3.543 -12.511  -2.034  0.00  0.00    +0.277 C 
ENDBRANCH   6  23
BRANCH   8  25
ATOM     25  C   UNL     1       0.774 -12.711   4.773  0.00  0.00    +0.103 C 
ATOM     26  N   UNL     1       1.014 -13.096   5.814  0.00  0.00    -0.191 NA
ENDBRANCH   8  25
BRANCH   7  27
ATOM     27  N   UNL     1       2.555 -13.115   2.599  0.00  0.00    -0.312 N 
ATOM     28  H   UNL     1       3.328 -12.646   2.949  0.00  0.00    +0.152 HD
BRANCH  27  29
ATOM     29  C   UNL     1       2.643 -14.477   2.294  0.00  0.00    +0.053 A 
ATOM     30  C   UNL     1       1.575 -15.123   1.684  0.00  0.00    +0.071 A 
ATOM     31  C   UNL     1       1.665 -16.472   1.383  0.00  0.00    +0.140 A 
ATOM     32  C   UNL     1       2.822 -17.176   1.691  0.00  0.00    +0.084 A 
ATOM     33  C   UNL     1       3.885 -16.532   2.299  0.00  0.00    +0.045 A 
ATOM     34  C   UNL     1       3.800 -15.184   2.595  0.00  0.00    +0.064 A 
ATOM     35 CL   UNL     1       5.138 -14.377   3.351  0.00  0.00    -0.082 Cl
ATOM     36 CL   UNL     1       2.934 -18.867   1.315  0.00  0.00    -0.080 Cl
BRANCH  31  37
ATOM     37  O   UNL     1       0.622 -17.107   0.786  0.00  0.00    -0.494 OA
ATOM     38  C   UNL     1      -0.488 -16.299   0.389  0.00  0.00    +0.277 C 
ENDBRANCH  31  37
ENDBRANCH  27  29
ENDBRANCH   7  27
TORSDOF 9
