REMARK  Name = CHEMBL1171835
REMARK  9 active torsions:
REMARK  status: ('A' for Active; 'I' for Inactive)
REMARK    1  A    between atoms: C_1  and  C_2
REMARK    2  A    between atoms: C_5  and  C_19
REMARK    3  A    between atoms: C_7  and  C_8
REMARK    4  A    between atoms: C_9  and  C_10
REMARK    5  A    between atoms: N_21  and  C_22
REMARK    6  A    between atoms: C_25  and  C_32
REMARK    7  A    between atoms: C_26  and  C_28
REMARK    8  A    between atoms: C_32  and  N_33
REMARK    9  A    between atoms: N_36  and  C_39
REMARK                            x       y       z     vdW  Elec       q    Type
REMARK                         _______ _______ _______ _____ _____    ______ ____
ROOT
ATOM      1  C   UNL     1       0.368  -4.157  -0.484  0.00  0.00    +0.248 C 
ATOM      2  O   UNL     1       0.773  -4.691   0.530  0.00  0.00    -0.270 OA
ATOM      3  N   UNL     1      -0.024  -4.909  -1.532  0.00  0.00    -0.281 N 
ATOM      4  H   UNL     1      -0.411  -4.486  -2.314  0.00  0.00    +0.155 HD
ENDROOT
BRANCH   1   9
ATOM      5  C   UNL     1       0.113   1.592  -0.848  0.00  0.00    +0.045 C 
ATOM      6  C   UNL     1       0.181   0.090  -0.749  0.00  0.00    -0.035 A 
ATOM      7  C   UNL     1      -0.217  -0.690  -1.816  0.00  0.00    +0.005 A 
ATOM      8  C   UNL     1      -0.158  -2.067  -1.734  0.00  0.00    +0.013 A 
ATOM      9  C   UNL     1       0.307  -2.682  -0.569  0.00  0.00    +0.038 A 
ATOM     10  C   UNL     1       0.711  -1.904   0.513  0.00  0.00    +0.030 A 
ATOM     11  C   UNL     1       0.654  -0.511   0.422  0.00  0.00    +0.029 A 
BRANCH  11  12
ATOM     12  C   UNL     1       1.073   0.298   1.527  0.00  0.00    -0.059 C 
ATOM     13  C   UNL     1       1.416   0.961   2.432  0.00  0.00    -0.041 C 
BRANCH  13  14
ATOM     14  C   UNL     1       1.834   1.771   3.537  0.00  0.00    +0.118 A 
ATOM     15  C   UNL     1       1.825   3.151   3.602  0.00  0.00    +0.150 A 
ATOM     16  N   UNL     1       2.289   3.515   4.793  0.00  0.00    -0.218 NA
ATOM     17  C   UNL     1       2.599   2.436   5.504  0.00  0.00    +0.236 A 
ATOM     18  N   UNL     1       2.320   1.326   4.749  0.00  0.00    -0.277 N 
ATOM     19  C   UNL     1       2.543   0.080   5.253  0.00  0.00    +0.097 A 
ATOM     20  C   UNL     1       3.041  -0.044   6.510  0.00  0.00    +0.038 A 
ATOM     21  C   UNL     1       3.311   1.111   7.256  0.00  0.00    +0.116 A 
ATOM     22  N   UNL     1       3.094   2.300   6.742  0.00  0.00    -0.220 NA
ENDBRANCH  13  14
ENDBRANCH  11  12
ENDBRANCH   1   9
BRANCH   3  23
ATOM     23  C   UNL     1       0.128  -6.298  -1.490  0.00  0.00    +0.034 A 
ATOM     24  C   UNL     1      -0.043  -6.982  -0.293  0.00  0.00    +0.023 A 
ATOM     25  C   UNL     1       0.107  -8.354  -0.256  0.00  0.00    +0.007 A 
ATOM     26  C   UNL     1       0.428  -9.048  -1.408  0.00  0.00    -0.022 A 
ATOM     27  C   UNL     1       0.600  -8.371  -2.601  0.00  0.00    +0.061 A 
ATOM     28  C   UNL     1       0.445  -6.999  -2.647  0.00  0.00    +0.036 A 
BRANCH  27  29
ATOM     29  C   UNL     1       0.950  -9.131  -3.855  0.00  0.00    +0.418 C 
ATOM     30  F   UNL     1       1.022  -8.243  -4.933  0.00  0.00    -0.166 F 
ATOM     31  F   UNL     1       2.187  -9.762  -3.687  0.00  0.00    -0.166 F 
ATOM     32  F   UNL     1      -0.035 -10.092  -4.107  0.00  0.00    -0.166 F 
ENDBRANCH  27  29
BRANCH  26  33
ATOM     33  C   UNL     1       0.591 -10.545  -1.363  0.00  0.00    +0.120 C 
BRANCH  33  34
ATOM     34  N   UNL     1      -0.623 -11.186  -1.887  0.00  0.00    -0.302 NA
ATOM     35  C   UNL     1      -1.788 -10.873  -1.048  0.00  0.00    +0.066 C 
ATOM     36  C   UNL     1      -3.039 -11.508  -1.659  0.00  0.00    -0.064 C 
ATOM     37  N   UNL     1      -2.855 -12.962  -1.749  0.00  0.00    +0.379 N 
ATOM     38  C   UNL     1      -1.703 -13.261  -2.610  0.00  0.00    -0.064 C 
ATOM     39  C   UNL     1      -0.441 -12.640  -2.006  0.00  0.00    +0.066 C 
ATOM     40  C   UNL     1      -4.063 -13.574  -2.319  0.00  0.00    -0.096 C 
ATOM     41  H   UNL     1      -2.692 -13.338  -0.827  0.00  0.00    -0.082 HD
ENDBRANCH  33  34
ENDBRANCH  26  33
ENDBRANCH   3  23
TORSDOF 7
