REMARK  Name = CHEMBL538337
REMARK  14 active torsions:
REMARK  status: ('A' for Active; 'I' for Inactive)
REMARK    1  A    between atoms: C_1  and  C_2
REMARK    2  A    between atoms: C_5  and  N_21
REMARK    3  A    between atoms: C_7  and  N_8
REMARK    4  A    between atoms: C_13  and  C_15
REMARK    5  A    between atoms: N_21  and  C_22
REMARK    6  A    between atoms: C_22  and  C_23
REMARK    7  A    between atoms: C_22  and  O_44
REMARK    8  A    between atoms: C_26  and  C_33
REMARK    9  A    between atoms: C_27  and  C_29
REMARK   10  A    between atoms: C_33  and  N_34
REMARK   11  A    between atoms: C_37  and  C_40
REMARK   12  A    between atoms: C_40  and  N_41
REMARK   13  A    between atoms: N_41  and  C_42
REMARK   14  A    between atoms: N_41  and  C_43
REMARK                            x       y       z     vdW  Elec       q    Type
REMARK                         _______ _______ _______ _____ _____    ______ ____
ROOT
ATOM      1  C   UNL     1       0.504  -4.786  -1.049  0.00  0.00    +0.232 C 
ENDROOT
BRANCH   1   2
ATOM      2  C   UNL     1       1.505  -5.841  -0.656  0.00  0.00    -0.001 A 
ATOM      3  C   UNL     1       1.368  -6.512   0.545  0.00  0.00    +0.008 A 
ATOM      4  C   UNL     1       2.286  -7.480   0.905  0.00  0.00    +0.003 A 
ATOM      5  C   UNL     1       3.342  -7.777   0.064  0.00  0.00    -0.052 A 
ATOM      6  C   UNL     1       3.480  -7.108  -1.137  0.00  0.00    +0.057 A 
ATOM      7  C   UNL     1       2.558  -6.142  -1.499  0.00  0.00    +0.020 A 
BRANCH   6   8
ATOM      8  C   UNL     1       4.631  -7.432  -2.053  0.00  0.00    +0.418 C 
ATOM      9  F   UNL     1       4.514  -6.686  -3.231  0.00  0.00    -0.166 F 
ATOM     10  F   UNL     1       5.836  -7.114  -1.418  0.00  0.00    -0.166 F 
ATOM     11  F   UNL     1       4.612  -8.796  -2.361  0.00  0.00    -0.166 F 
ENDBRANCH   6   8
BRANCH   5  12
ATOM     12  C   UNL     1       4.344  -8.832   0.458  0.00  0.00    -0.042 C 
BRANCH  12  13
ATOM     13  N   UNL     1       4.075  -9.275   1.832  0.00  0.00    +0.383 N 
ATOM     14  C   UNL     1       4.388  -8.190   2.798  0.00  0.00    -0.078 C 
ATOM     15  C   UNL     1       4.611  -8.917   4.141  0.00  0.00    -0.019 C 
ATOM     16  C   UNL     1       5.011 -10.357   3.756  0.00  0.00    -0.046 C 
ATOM     17  C   UNL     1       4.995 -10.378   2.212  0.00  0.00    -0.077 C 
ATOM     18  H   UNL     1       3.115  -9.568   1.927  0.00  0.00    -0.081 HD
BRANCH  16  19
ATOM     19  C   UNL     1       6.412 -10.678   4.280  0.00  0.00    -0.078 C 
BRANCH  19  20
ATOM     20  N   UNL     1       6.392 -10.702   5.748  0.00  0.00    +0.376 N 
ATOM     21  C   UNL     1       5.543 -11.809   6.208  0.00  0.00    -0.097 C 
ATOM     22  C   UNL     1       7.759 -10.891   6.253  0.00  0.00    -0.097 C 
ATOM     23  H   UNL     1       6.024  -9.829   6.094  0.00  0.00    -0.083 HD
ENDBRANCH  19  20
ENDBRANCH  16  19
ENDBRANCH  12  13
ENDBRANCH   5  12
ENDBRANCH   1   2
BRANCH   1  24
ATOM     24  N   UNL     1      -0.028  -4.145   0.156  0.00  0.00    -0.316 N 
ATOM     25  H   UNL     1      -0.160  -4.665   0.964  0.00  0.00    +0.149 HD
BRANCH  24  30
ATOM     26  C   UNL     1      -1.313   1.383   0.082  0.00  0.00    +0.045 C 
ATOM     27  C   UNL     1      -0.972  -0.085   0.103  0.00  0.00    -0.029 A 
ATOM     28  C   UNL     1      -0.470  -0.693  -1.031  0.00  0.00    +0.007 A 
ATOM     29  C   UNL     1      -0.156  -2.038  -1.016  0.00  0.00    +0.023 A 
ATOM     30  C   UNL     1      -0.345  -2.784   0.141  0.00  0.00    +0.031 A 
ATOM     31  C   UNL     1      -0.849  -2.176   1.282  0.00  0.00    +0.046 A 
ATOM     32  C   UNL     1      -1.158  -0.823   1.265  0.00  0.00    +0.038 A 
BRANCH  32  33
ATOM     33  N   UNL     1      -1.661  -0.206   2.414  0.00  0.00    -0.283 N 
ATOM     34  C   UNL     1      -2.432  -0.930   3.309  0.00  0.00    +0.220 A 
ATOM     35  N   UNL     1      -2.781  -2.171   3.003  0.00  0.00    -0.223 NA
ATOM     36  C   UNL     1      -3.517  -2.895   3.831  0.00  0.00    +0.116 A 
ATOM     37  C   UNL     1      -3.925  -2.343   5.033  0.00  0.00    +0.048 A 
ATOM     38  C   UNL     1      -3.541  -1.033   5.328  0.00  0.00    +0.079 A 
ATOM     39  N   UNL     1      -2.796  -0.366   4.450  0.00  0.00    -0.214 NA
ATOM     40  H   UNL     1      -1.469   0.730   2.585  0.00  0.00    +0.155 HD
BRANCH  38  41
ATOM     41  C   UNL     1      -3.953  -0.397   6.603  0.00  0.00    +0.037 A 
ATOM     42  C   UNL     1      -4.726  -1.093   7.536  0.00  0.00    +0.124 A 
ATOM     43  N   UNL     1      -5.071  -0.488   8.660  0.00  0.00    -0.243 NA
ATOM     44  C   UNL     1      -4.696   0.752   8.905  0.00  0.00    +0.221 A 
ATOM     45  N   UNL     1      -3.967   1.444   8.052  0.00  0.00    -0.243 NA
ATOM     46  C   UNL     1      -3.574   0.914   6.907  0.00  0.00    +0.124 A 
ENDBRANCH  38  41
ENDBRANCH  32  33
ENDBRANCH  24  30
ENDBRANCH   1  24
BRANCH   1  47
ATOM     47  O   UNL     1      -0.566  -5.392  -1.778  0.00  0.00    -0.370 OA
ATOM     48  H   UNL     1      -1.045  -6.069  -1.282  0.00  0.00    +0.212 HD
ENDBRANCH   1  47
TORSDOF 11
