REMARK  Name = CHEMBL55592
REMARK  4 active torsions:
REMARK  status: ('A' for Active; 'I' for Inactive)
REMARK    1  A    between atoms: C_3  and  N_16
REMARK    2  A    between atoms: C_5  and  N_7
REMARK    3  A    between atoms: C_8  and  C_10
REMARK    4  A    between atoms: C_21  and  C_23
REMARK                            x       y       z     vdW  Elec       q    Type
REMARK                         _______ _______ _______ _____ _____    ______ ____
ROOT
ATOM      1  C   UNL     1       0.021   1.755  -0.769  0.00  0.00    +0.004 A 
ATOM      2  C   UNL     1       1.203   2.450  -0.594  0.00  0.00    +0.023 A 
ATOM      3  C   UNL     1       2.366   1.771  -0.252  0.00  0.00    +0.035 A 
ATOM      4  C   UNL     1       2.340   0.393  -0.087  0.00  0.00    +0.046 A 
ATOM      5  C   UNL     1       1.152  -0.302  -0.263  0.00  0.00    +0.035 A 
ATOM      6  C   UNL     1      -0.008   0.384  -0.605  0.00  0.00    +0.023 A 
ENDROOT
BRANCH   3   7
ATOM      7  N   UNL     1       3.561   2.475  -0.076  0.00  0.00    -0.284 N 
ATOM      8  C   UNL     1       3.538   3.758   0.446  0.00  0.00    +0.220 A 
ATOM      9  N   UNL     1       2.391   4.258   0.882  0.00  0.00    -0.223 NA
ATOM     10  C   UNL     1       2.328   5.479   1.387  0.00  0.00    +0.116 A 
ATOM     11  C   UNL     1       3.481   6.242   1.458  0.00  0.00    +0.048 A 
ATOM     12  C   UNL     1       4.675   5.689   0.991  0.00  0.00    +0.077 A 
ATOM     13  N   UNL     1       4.665   4.451   0.500  0.00  0.00    -0.214 NA
ATOM     14  H   UNL     1       4.406   2.064  -0.319  0.00  0.00    +0.155 HD
BRANCH  12  15
ATOM     15  C   UNL     1       5.937   6.466   1.045  0.00  0.00    +0.019 A 
ATOM     16  C   UNL     1       7.110   5.957   0.479  0.00  0.00    +0.013 A 
ATOM     17  C   UNL     1       8.261   6.722   0.556  0.00  0.00    +0.020 A 
ATOM     18  C   UNL     1       8.215   7.953   1.185  0.00  0.00    +0.111 A 
ATOM     19  N   UNL     1       7.094   8.406   1.710  0.00  0.00    -0.263 NA
ATOM     20  C   UNL     1       5.972   7.718   1.657  0.00  0.00    +0.120 A 
ENDBRANCH  12  15
ENDBRANCH   3   7
BRANCH   5  21
ATOM     21  N   UNL     1       1.122  -1.690  -0.098  0.00  0.00    -0.281 N 
ATOM     22  C   UNL     1       1.929  -2.278   0.807  0.00  0.00    +0.248 C 
ATOM     23  O   UNL     1       2.614  -1.597   1.544  0.00  0.00    -0.270 OA
ATOM     24  H   UNL     1       0.520  -2.229  -0.635  0.00  0.00    +0.155 HD
BRANCH  22  25
ATOM     25  C   UNL     1       1.980  -3.756   0.903  0.00  0.00    +0.040 A 
ATOM     26  C   UNL     1       1.204  -4.558   0.061  0.00  0.00    +0.033 A 
ATOM     27  C   UNL     1       1.282  -5.932   0.186  0.00  0.00    +0.111 A 
ATOM     28  N   UNL     1       2.074  -6.486   1.082  0.00  0.00    -0.263 NA
ATOM     29  C   UNL     1       2.822  -5.766   1.895  0.00  0.00    +0.111 A 
ATOM     30  C   UNL     1       2.810  -4.386   1.835  0.00  0.00    +0.033 A 
ENDBRANCH  22  25
ENDBRANCH   5  21
TORSDOF 4
