REMARK  Name = CHEMBL1171836
REMARK  9 active torsions:
REMARK  status: ('A' for Active; 'I' for Inactive)
REMARK    1  A    between atoms: C_1  and  C_2
REMARK    2  A    between atoms: C_5  and  C_19
REMARK    3  A    between atoms: C_7  and  C_8
REMARK    4  A    between atoms: C_9  and  C_10
REMARK    5  A    between atoms: N_21  and  C_22
REMARK    6  A    between atoms: C_25  and  C_32
REMARK    7  A    between atoms: C_26  and  C_28
REMARK    8  A    between atoms: C_32  and  N_33
REMARK    9  A    between atoms: N_36  and  C_39
REMARK                            x       y       z     vdW  Elec       q    Type
REMARK                         _______ _______ _______ _____ _____    ______ ____
ROOT
ATOM      1  C   UNL     1       0.023  -4.285  -0.029  0.00  0.00    +0.248 C 
ATOM      2  O   UNL     1       0.615  -4.862   0.862  0.00  0.00    -0.270 OA
ATOM      3  N   UNL     1      -0.493  -4.984  -1.059  0.00  0.00    -0.281 N 
ATOM      4  H   UNL     1      -1.031  -4.535  -1.730  0.00  0.00    +0.155 HD
ENDROOT
BRANCH   1   9
ATOM      5  C   UNL     1      -0.599   1.446   0.121  0.00  0.00    +0.045 C 
ATOM      6  C   UNL     1      -0.435  -0.052   0.086  0.00  0.00    -0.035 A 
ATOM      7  C   UNL     1      -0.959  -0.777  -0.965  0.00  0.00    +0.005 A 
ATOM      8  C   UNL     1      -0.812  -2.150  -1.006  0.00  0.00    +0.013 A 
ATOM      9  C   UNL     1      -0.132  -2.815   0.018  0.00  0.00    +0.038 A 
ATOM     10  C   UNL     1       0.400  -2.091   1.082  0.00  0.00    +0.030 A 
ATOM     11  C   UNL     1       0.254  -0.703   1.115  0.00  0.00    +0.029 A 
BRANCH  11  12
ATOM     12  C   UNL     1       0.802   0.051   2.202  0.00  0.00    -0.059 C 
ATOM     13  C   UNL     1       1.252   0.669   3.092  0.00  0.00    -0.041 C 
BRANCH  13  14
ATOM     14  C   UNL     1       1.801   1.424   4.179  0.00  0.00    +0.117 A 
ATOM     15  C   UNL     1       1.728   2.796   4.356  0.00  0.00    +0.148 A 
ATOM     16  N   UNL     1       2.357   3.103   5.483  0.00  0.00    -0.233 NA
ATOM     17  C   UNL     1       2.833   2.000   6.044  0.00  0.00    +0.157 A 
ATOM     18  N   UNL     1       2.496   0.929   5.253  0.00  0.00    -0.290 N 
ATOM     19  C   UNL     1       2.877  -0.327   5.632  0.00  0.00    +0.113 A 
ATOM     20  C   UNL     1       3.574  -0.499   6.776  0.00  0.00    +0.129 A 
ATOM     21  N   UNL     1       3.901   0.539   7.549  0.00  0.00    -0.258 NA
ATOM     22  C   UNL     1       3.564   1.765   7.224  0.00  0.00    +0.157 A 
ENDBRANCH  13  14
ENDBRANCH  11  12
ENDBRANCH   1   9
BRANCH   3  23
ATOM     23  C   UNL     1      -0.253  -6.358  -1.161  0.00  0.00    +0.034 A 
ATOM     24  C   UNL     1      -0.178  -7.139  -0.015  0.00  0.00    +0.023 A 
ATOM     25  C   UNL     1       0.059  -8.495  -0.119  0.00  0.00    +0.004 A 
ATOM     26  C   UNL     1       0.223  -9.076  -1.363  0.00  0.00    -0.052 A 
ATOM     27  C   UNL     1       0.150  -8.302  -2.506  0.00  0.00    +0.058 A 
ATOM     28  C   UNL     1      -0.094  -6.946  -2.409  0.00  0.00    +0.036 A 
BRANCH  27  29
ATOM     29  C   UNL     1       0.330  -8.939  -3.860  0.00  0.00    +0.418 C 
ATOM     30  F   UNL     1       0.095  -7.988  -4.858  0.00  0.00    -0.166 F 
ATOM     31  F   UNL     1       1.637  -9.425  -3.977  0.00  0.00    -0.166 F 
ATOM     32  F   UNL     1      -0.575  -9.997  -4.001  0.00  0.00    -0.166 F 
ENDBRANCH  27  29
BRANCH  26  33
ATOM     33  C   UNL     1       0.482 -10.557  -1.473  0.00  0.00    -0.042 C 
BRANCH  33  34
ATOM     34  N   UNL     1       1.037 -11.052  -0.206  0.00  0.00    +0.384 N 
ATOM     35  C   UNL     1       2.369 -10.470   0.005  0.00  0.00    -0.063 C 
ATOM     36  C   UNL     1       2.940 -10.971   1.334  0.00  0.00    +0.065 C 
ATOM     37  N   UNL     1       3.026 -12.438   1.305  0.00  0.00    -0.309 NA
ATOM     38  C   UNL     1       1.703 -13.034   1.069  0.00  0.00    +0.065 C 
ATOM     39  C   UNL     1       1.143 -12.516  -0.258  0.00  0.00    -0.063 C 
ATOM     40  C   UNL     1       3.623 -12.955   2.543  0.00  0.00    +0.104 C 
ATOM     41  H   UNL     1       0.430 -10.786   0.554  0.00  0.00    -0.081 HD
ENDBRANCH  33  34
ENDBRANCH  26  33
ENDBRANCH   3  23
TORSDOF 7
