REMARK  Name = CHEMBL1171038
REMARK  9 active torsions:
REMARK  status: ('A' for Active; 'I' for Inactive)
REMARK    1  A    between atoms: C_1  and  C_2
REMARK    2  A    between atoms: C_5  and  C_19
REMARK    3  A    between atoms: C_7  and  C_8
REMARK    4  A    between atoms: C_9  and  C_10
REMARK    5  A    between atoms: N_21  and  C_22
REMARK    6  A    between atoms: C_24  and  C_39
REMARK    7  A    between atoms: C_26  and  N_28
REMARK    8  A    between atoms: C_30  and  C_33
REMARK    9  A    between atoms: C_33  and  N_34
REMARK                            x       y       z     vdW  Elec       q    Type
REMARK                         _______ _______ _______ _____ _____    ______ ____
ROOT
ATOM      1  C   UNL     1      -0.538  -4.238  -2.212  0.00  0.00    +0.248 C 
ATOM      2  O   UNL     1      -1.069  -4.839  -3.125  0.00  0.00    -0.270 OA
ATOM      3  N   UNL     1       0.061  -4.920  -1.215  0.00  0.00    -0.281 N 
ATOM      4  H   UNL     1       0.542  -4.441  -0.521  0.00  0.00    +0.155 HD
ENDROOT
BRANCH   1   9
ATOM      5  C   UNL     1      -0.564   1.527  -2.111  0.00  0.00    +0.045 C 
ATOM      6  C   UNL     1      -0.560   0.020  -2.141  0.00  0.00    -0.035 A 
ATOM      7  C   UNL     1       0.051  -0.687  -1.125  0.00  0.00    +0.005 A 
ATOM      8  C   UNL     1       0.059  -2.068  -1.144  0.00  0.00    +0.013 A 
ATOM      9  C   UNL     1      -0.550  -2.760  -2.194  0.00  0.00    +0.038 A 
ATOM     10  C   UNL     1      -1.169  -2.055  -3.223  0.00  0.00    +0.030 A 
ATOM     11  C   UNL     1      -1.179  -0.659  -3.196  0.00  0.00    +0.029 A 
BRANCH  11  12
ATOM     12  C   UNL     1      -1.818   0.075  -4.246  0.00  0.00    -0.059 C 
ATOM     13  C   UNL     1      -2.341   0.677  -5.108  0.00  0.00    -0.041 C 
BRANCH  13  14
ATOM     14  C   UNL     1      -2.979   1.412  -6.158  0.00  0.00    +0.117 A 
ATOM     15  C   UNL     1      -3.062   2.787  -6.274  0.00  0.00    +0.148 A 
ATOM     16  N   UNL     1      -3.732   3.071  -7.385  0.00  0.00    -0.235 NA
ATOM     17  C   UNL     1      -4.088   1.945  -7.994  0.00  0.00    +0.138 A 
ATOM     18  N   UNL     1      -3.627   0.886  -7.257  0.00  0.00    -0.293 N 
ATOM     19  C   UNL     1      -3.853  -0.395  -7.667  0.00  0.00    +0.094 A 
ATOM     20  C   UNL     1      -4.531  -0.642  -8.809  0.00  0.00    +0.018 A 
ATOM     21  C   UNL     1      -5.012   0.421  -9.588  0.00  0.00    +0.005 A 
ATOM     22  C   UNL     1      -4.801   1.704  -9.184  0.00  0.00    +0.047 A 
ENDBRANCH  13  14
ENDBRANCH  11  12
ENDBRANCH   1   9
BRANCH   3  23
ATOM     23  C   UNL     1      -0.011  -6.316  -1.180  0.00  0.00    +0.036 A 
ATOM     24  C   UNL     1      -0.098  -6.978   0.038  0.00  0.00    +0.035 A 
ATOM     25  C   UNL     1      -0.169  -8.357   0.073  0.00  0.00    +0.059 A 
ATOM     26  C   UNL     1      -0.155  -9.082  -1.103  0.00  0.00    +0.038 A 
ATOM     27  C   UNL     1      -0.068  -8.426  -2.324  0.00  0.00    +0.050 A 
ATOM     28  C   UNL     1      -0.002  -7.041  -2.363  0.00  0.00    +0.049 A 
BRANCH  27  29
ATOM     29  N   UNL     1      -0.053  -9.163  -3.517  0.00  0.00    -0.306 N 
ATOM     30  C   UNL     1       0.034  -8.656  -4.788  0.00  0.00    +0.114 A 
ATOM     31  C   UNL     1       0.016  -9.707  -5.629  0.00  0.00    +0.043 A 
ATOM     32  N   UNL     1      -0.079 -10.827  -4.899  0.00  0.00    -0.242 NA
ATOM     33  C   UNL     1      -0.115 -10.515  -3.632  0.00  0.00    +0.204 A 
BRANCH  31  34
ATOM     34  C   UNL     1       0.089  -9.636  -7.133  0.00  0.00    -0.021 C 
BRANCH  34  35
ATOM     35  N   UNL     1       1.483  -9.807  -7.564  0.00  0.00    +0.383 N 
ATOM     36  C   UNL     1       1.933 -11.197  -7.298  0.00  0.00    -0.078 C 
ATOM     37  C   UNL     1       3.125 -11.376  -8.272  0.00  0.00    -0.020 C 
ATOM     38  C   UNL     1       2.662 -10.606  -9.530  0.00  0.00    -0.020 C 
ATOM     39  C   UNL     1       1.591  -9.621  -9.027  0.00  0.00    -0.078 C 
ATOM     40  H   UNL     1       2.079  -9.150  -7.085  0.00  0.00    -0.081 HD
ENDBRANCH  34  35
ENDBRANCH  31  34
ENDBRANCH  27  29
BRANCH  25  41
ATOM     41  C   UNL     1      -0.262  -9.072   1.396  0.00  0.00    +0.418 C 
ATOM     42  F   UNL     1      -0.259  -8.134   2.434  0.00  0.00    -0.166 F 
ATOM     43  F   UNL     1      -1.446  -9.815   1.442  0.00  0.00    -0.166 F 
ATOM     44  F   UNL     1       0.833  -9.930   1.540  0.00  0.00    -0.166 F 
ENDBRANCH  25  41
ENDBRANCH   3  23
TORSDOF 8
