REMARK  Name = CHEMBL1171281
REMARK  9 active torsions:
REMARK  status: ('A' for Active; 'I' for Inactive)
REMARK    1  A    between atoms: C_1  and  C_2
REMARK    2  A    between atoms: C_5  and  N_19
REMARK    3  A    between atoms: C_7  and  C_8
REMARK    4  A    between atoms: C_9  and  C_10
REMARK    5  A    between atoms: C_20  and  C_22
REMARK    6  A    between atoms: C_25  and  C_32
REMARK    7  A    between atoms: C_26  and  C_28
REMARK    8  A    between atoms: C_32  and  N_33
REMARK    9  A    between atoms: N_36  and  C_39
REMARK                            x       y       z     vdW  Elec       q    Type
REMARK                         _______ _______ _______ _____ _____    ______ ____
ROOT
ATOM      1  N   UNL     1      -0.557  -4.185   0.187  0.00  0.00    -0.281 N 
ATOM      2  C   UNL     1      -0.592  -4.818  -1.003  0.00  0.00    +0.248 C 
ATOM      3  O   UNL     1      -0.661  -4.175  -2.032  0.00  0.00    -0.270 OA
ATOM      4  H   UNL     1      -0.426  -4.693   1.003  0.00  0.00    +0.155 HD
ENDROOT
BRANCH   1   9
ATOM      5  C   UNL     1      -1.198   1.456   0.454  0.00  0.00    +0.045 C 
ATOM      6  C   UNL     1      -1.027  -0.039   0.380  0.00  0.00    -0.035 A 
ATOM      7  C   UNL     1      -1.541  -0.843   1.376  0.00  0.00    +0.006 A 
ATOM      8  C   UNL     1      -1.386  -2.215   1.313  0.00  0.00    +0.023 A 
ATOM      9  C   UNL     1      -0.711  -2.796   0.244  0.00  0.00    +0.035 A 
ATOM     10  C   UNL     1      -0.190  -2.000  -0.762  0.00  0.00    +0.040 A 
ATOM     11  C   UNL     1      -0.351  -0.613  -0.703  0.00  0.00    +0.030 A 
BRANCH  11  12
ATOM     12  C   UNL     1       0.178   0.218  -1.742  0.00  0.00    -0.059 C 
ATOM     13  C   UNL     1       0.613   0.899  -2.594  0.00  0.00    -0.041 C 
BRANCH  13  14
ATOM     14  C   UNL     1       1.143   1.730  -3.633  0.00  0.00    +0.117 A 
ATOM     15  C   UNL     1       1.073   3.109  -3.705  0.00  0.00    +0.148 A 
ATOM     16  N   UNL     1       1.682   3.498  -4.819  0.00  0.00    -0.235 NA
ATOM     17  C   UNL     1       2.143   2.436  -5.472  0.00  0.00    +0.138 A 
ATOM     18  N   UNL     1       1.828   1.312  -4.755  0.00  0.00    -0.293 N 
ATOM     19  C   UNL     1       2.193   0.078  -5.203  0.00  0.00    +0.094 A 
ATOM     20  C   UNL     1       2.875  -0.059  -6.361  0.00  0.00    +0.018 A 
ATOM     21  C   UNL     1       3.217   1.073  -7.118  0.00  0.00    +0.005 A 
ATOM     22  C   UNL     1       2.850   2.310  -6.683  0.00  0.00    +0.047 A 
ENDBRANCH  13  14
ENDBRANCH  11  12
ENDBRANCH   1   9
BRANCH   2  23
ATOM     23  C   UNL     1      -0.547  -6.295  -1.056  0.00  0.00    +0.038 A 
ATOM     24  C   UNL     1      -0.474  -7.037   0.125  0.00  0.00    +0.013 A 
ATOM     25  C   UNL     1      -0.433  -8.414   0.068  0.00  0.00    +0.003 A 
ATOM     26  C   UNL     1      -0.463  -9.061  -1.155  0.00  0.00    -0.052 A 
ATOM     27  C   UNL     1      -0.536  -8.332  -2.329  0.00  0.00    +0.057 A 
ATOM     28  C   UNL     1      -0.583  -6.953  -2.286  0.00  0.00    +0.025 A 
BRANCH  27  29
ATOM     29  C   UNL     1      -0.568  -9.044  -3.656  0.00  0.00    +0.418 C 
ATOM     30  F   UNL     1      -0.762  -8.112  -4.681  0.00  0.00    -0.166 F 
ATOM     31  F   UNL     1       0.646  -9.711  -3.857  0.00  0.00    -0.166 F 
ATOM     32  F   UNL     1      -1.616  -9.971  -3.663  0.00  0.00    -0.166 F 
ENDBRANCH  27  29
BRANCH  26  33
ATOM     33  C   UNL     1      -0.417 -10.566  -1.209  0.00  0.00    -0.042 C 
BRANCH  33  34
ATOM     34  N   UNL     1       0.181 -11.083   0.029  0.00  0.00    +0.384 N 
ATOM     35  C   UNL     1       1.593 -10.683   0.094  0.00  0.00    -0.063 C 
ATOM     36  C   UNL     1       2.211 -11.205   1.393  0.00  0.00    +0.065 C 
ATOM     37  N   UNL     1       2.096 -12.669   1.434  0.00  0.00    -0.309 NA
ATOM     38  C   UNL     1       0.689 -13.085   1.344  0.00  0.00    +0.065 C 
ATOM     39  C   UNL     1       0.084 -12.548   0.046  0.00  0.00    -0.063 C 
ATOM     40  C   UNL     1       2.730 -13.214   2.642  0.00  0.00    +0.104 C 
ATOM     41  H   UNL     1      -0.312 -10.704   0.824  0.00  0.00    -0.081 HD
ENDBRANCH  33  34
ENDBRANCH  26  33
ENDBRANCH   2  23
TORSDOF 7
