REMARK  Name = CHEMBL1169875
REMARK  7 active torsions:
REMARK  status: ('A' for Active; 'I' for Inactive)
REMARK    1  A    between atoms: C_1  and  C_2
REMARK    2  A    between atoms: C_5  and  C_23
REMARK    3  A    between atoms: C_7  and  C_8
REMARK    4  A    between atoms: C_9  and  N_10
REMARK    5  A    between atoms: C_18  and  N_19
REMARK    6  A    between atoms: N_19  and  C_20
REMARK    7  A    between atoms: C_28  and  C_32
REMARK                            x       y       z     vdW  Elec       q    Type
REMARK                         _______ _______ _______ _____ _____    ______ ____
ROOT
ATOM      1  C   UNL     1      -0.009   1.503   0.010  0.00  0.00    +0.045 C 
ATOM      2  C   UNL     1       0.009  -0.004   0.002  0.00  0.00    -0.035 A 
ATOM      3  C   UNL     1       0.012  -0.686  -1.199  0.00  0.00    +0.005 A 
ATOM      4  C   UNL     1       0.028  -2.067  -1.216  0.00  0.00    +0.013 A 
ATOM      5  C   UNL     1       0.043  -2.783  -0.016  0.00  0.00    +0.038 A 
ATOM      6  C   UNL     1       0.042  -2.101   1.199  0.00  0.00    +0.030 A 
ATOM      7  C   UNL     1       0.029  -0.707   1.209  0.00  0.00    +0.030 A 
ENDROOT
BRANCH   5   8
ATOM      8  C   UNL     1       0.061  -4.261  -0.036  0.00  0.00    +0.249 C 
ATOM      9  O   UNL     1       0.074  -4.883   1.008  0.00  0.00    -0.270 OA
ATOM     10  N   UNL     1       0.062  -4.919  -1.213  0.00  0.00    -0.266 N 
ATOM     11  C   UNL     1       0.186  -6.306  -1.235  0.00  0.00    +0.126 A 
ATOM     12  C   UNL     1       0.293  -6.970  -2.452  0.00  0.00    +0.056 A 
ATOM     13  C   UNL     1       0.415  -8.348  -2.460  0.00  0.00    +0.059 A 
ATOM     14  C   UNL     1       0.426  -9.018  -1.244  0.00  0.00    +0.032 A 
ATOM     15  C   UNL     1       0.315  -8.296  -0.072  0.00  0.00    +0.113 A 
ATOM     16  N   UNL     1       0.206  -6.981  -0.096  0.00  0.00    -0.240 NA
ATOM     17  H   UNL     1      -0.023  -4.426  -2.044  0.00  0.00    +0.157 HD
BRANCH  13  18
ATOM     18  C   UNL     1       0.532  -9.104  -3.758  0.00  0.00    +0.418 C 
ATOM     19  F   UNL     1       1.882  -9.222  -4.108  0.00  0.00    -0.166 F 
ATOM     20  F   UNL     1      -0.023 -10.379  -3.607  0.00  0.00    -0.166 F 
ATOM     21  F   UNL     1      -0.152  -8.413  -4.764  0.00  0.00    -0.166 F 
ENDBRANCH  13  18
ENDBRANCH   5   8
BRANCH   7  22
ATOM     22  C   UNL     1       0.033   0.002   2.453  0.00  0.00    -0.043 C 
ATOM     23  C   UNL     1       0.036   0.583   3.473  0.00  0.00    +0.026 C 
BRANCH  23  24
ATOM     24  N   UNL     1       0.039   1.254   4.650  0.00  0.00    -0.240 N 
ATOM     25  C   UNL     1       0.018   2.611   4.808  0.00  0.00    +0.215 A 
ATOM     26  N   UNL     1       0.029   2.910   6.074  0.00  0.00    -0.230 NA
ATOM     27  C   UNL     1       0.057   1.772   6.809  0.00  0.00    +0.148 A 
ATOM     28  C   UNL     1       0.058   0.695   5.906  0.00  0.00    +0.177 A 
ATOM     29  N   UNL     1       0.078  -0.545   6.380  0.00  0.00    -0.215 NA
ATOM     30  C   UNL     1       0.094  -0.768   7.678  0.00  0.00    +0.225 A 
ATOM     31  N   UNL     1       0.090   0.211   8.564  0.00  0.00    -0.219 NA
ATOM     32  C   UNL     1       0.079   1.484   8.184  0.00  0.00    +0.150 A 
BRANCH  32  33
ATOM     33  N   UNL     1       0.073   2.503   9.121  0.00  0.00    -0.324 N 
ATOM     34  H   UNL     1       0.054   3.429   8.831  0.00  0.00    +0.148 HD
BRANCH  33  35
ATOM     35  C   UNL     1       0.096   2.184  10.550  0.00  0.00    +0.072 C 
ATOM     36  C   UNL     1      -0.842   2.973  11.466  0.00  0.00    +0.024 C 
ATOM     37  C   UNL     1       0.664   3.240  11.501  0.00  0.00    +0.024 C 
ENDBRANCH  33  35
ENDBRANCH  32  33
ENDBRANCH  23  24
ENDBRANCH   7  22
TORSDOF 6
