REMARK  Name = CHEMBL556874
REMARK  7 active torsions:
REMARK  status: ('A' for Active; 'I' for Inactive)
REMARK    1  A    between atoms: C_1  and  C_2
REMARK    2  A    between atoms: C_5  and  C_23
REMARK    3  A    between atoms: C_7  and  C_8
REMARK    4  A    between atoms: C_9  and  N_10
REMARK    5  A    between atoms: C_18  and  N_19
REMARK    6  A    between atoms: N_19  and  C_20
REMARK    7  A    between atoms: C_28  and  C_32
REMARK                            x       y       z     vdW  Elec       q    Type
REMARK                         _______ _______ _______ _____ _____    ______ ____
ROOT
ATOM      1  C   UNL     1      -0.009   1.503   0.010  0.00  0.00    +0.044 C 
ATOM      2  C   UNL     1       0.009  -0.004   0.002  0.00  0.00    -0.043 A 
ATOM      3  C   UNL     1       0.012  -0.686  -1.199  0.00  0.00    +0.004 A 
ATOM      4  C   UNL     1       0.029  -2.067  -1.216  0.00  0.00    +0.013 A 
ATOM      5  C   UNL     1       0.044  -2.783  -0.016  0.00  0.00    +0.038 A 
ATOM      6  C   UNL     1       0.042  -2.101   1.199  0.00  0.00    +0.021 A 
ATOM      7  C   UNL     1       0.029  -0.707   1.209  0.00  0.00    -0.020 A 
ENDROOT
BRANCH   5   8
ATOM      8  C   UNL     1       0.062  -4.261  -0.036  0.00  0.00    +0.249 C 
ATOM      9  O   UNL     1       0.075  -4.883   1.008  0.00  0.00    -0.270 OA
ATOM     10  N   UNL     1       0.064  -4.919  -1.213  0.00  0.00    -0.266 N 
ATOM     11  C   UNL     1       0.188  -6.306  -1.235  0.00  0.00    +0.126 A 
ATOM     12  C   UNL     1       0.295  -6.970  -2.452  0.00  0.00    +0.056 A 
ATOM     13  C   UNL     1       0.417  -8.348  -2.460  0.00  0.00    +0.059 A 
ATOM     14  C   UNL     1       0.428  -9.018  -1.244  0.00  0.00    +0.032 A 
ATOM     15  C   UNL     1       0.318  -8.296  -0.072  0.00  0.00    +0.113 A 
ATOM     16  N   UNL     1       0.207  -6.981  -0.096  0.00  0.00    -0.240 NA
ATOM     17  H   UNL     1      -0.021  -4.426  -2.044  0.00  0.00    +0.157 HD
BRANCH  13  18
ATOM     18  C   UNL     1       0.536  -9.104  -3.758  0.00  0.00    +0.418 C 
ATOM     19  F   UNL     1       1.885  -9.221  -4.108  0.00  0.00    -0.166 F 
ATOM     20  F   UNL     1      -0.020 -10.379  -3.607  0.00  0.00    -0.166 F 
ATOM     21  F   UNL     1      -0.148  -8.413  -4.764  0.00  0.00    -0.166 F 
ENDBRANCH  13  18
ENDBRANCH   5   8
BRANCH   7  22
ATOM     22  C   UNL     1       0.033   0.024   2.491  0.00  0.00    +0.026 C 
ATOM     23  C   UNL     1       0.052  -0.650   3.643  0.00  0.00    +0.095 C 
BRANCH  23  24
ATOM     24  N   UNL     1       0.056   0.038   4.851  0.00  0.00    -0.290 N 
ATOM     25  C   UNL     1       0.035   1.395   5.009  0.00  0.00    +0.206 A 
ATOM     26  N   UNL     1       0.045   1.695   6.276  0.00  0.00    -0.230 NA
ATOM     27  C   UNL     1       0.074   0.556   7.010  0.00  0.00    +0.148 A 
ATOM     28  C   UNL     1       0.075  -0.520   6.107  0.00  0.00    +0.169 A 
ATOM     29  N   UNL     1       0.095  -1.761   6.582  0.00  0.00    -0.216 NA
ATOM     30  C   UNL     1       0.111  -1.983   7.879  0.00  0.00    +0.225 A 
ATOM     31  N   UNL     1       0.107  -1.005   8.766  0.00  0.00    -0.219 NA
ATOM     32  C   UNL     1       0.096   0.269   8.385  0.00  0.00    +0.150 A 
BRANCH  32  33
ATOM     33  N   UNL     1       0.090   1.287   9.322  0.00  0.00    -0.324 N 
ATOM     34  H   UNL     1       0.071   2.213   9.032  0.00  0.00    +0.148 HD
BRANCH  33  35
ATOM     35  C   UNL     1       0.113   0.968  10.752  0.00  0.00    +0.072 C 
ATOM     36  C   UNL     1      -0.825   1.757  11.667  0.00  0.00    +0.024 C 
ATOM     37  C   UNL     1       0.681   2.024  11.702  0.00  0.00    +0.024 C 
ENDBRANCH  33  35
ENDBRANCH  32  33
ENDBRANCH  23  24
ENDBRANCH   7  22
TORSDOF 6
