REMARK  Name = CHEMBL210827
REMARK  8 active torsions:
REMARK  status: ('A' for Active; 'I' for Inactive)
REMARK    1  A    between atoms: C_1  and  O_2
REMARK    2  A    between atoms: O_2  and  C_3
REMARK    3  A    between atoms: C_8  and  O_9
REMARK    4  A    between atoms: O_9  and  C_10
REMARK    5  A    between atoms: C_10  and  C_11
REMARK    6  A    between atoms: C_17  and  C_21
REMARK    7  A    between atoms: C_26  and  N_30
REMARK    8  A    between atoms: C_33  and  N_36
REMARK                            x       y       z     vdW  Elec       q    Type
REMARK                         _______ _______ _______ _____ _____    ______ ____
ROOT
ATOM      1  C   UNL     1       2.859  -3.539  -4.947  0.00  0.00    +0.160 A 
ATOM      2  N   UNL     1       2.504  -4.657  -4.361  0.00  0.00    -0.226 NA
ATOM      3  C   UNL     1       2.927  -5.713  -5.099  0.00  0.00    +0.090 A 
ATOM      4  C   UNL     1       2.821  -7.098  -4.938  0.00  0.00    +0.032 A 
ATOM      5  C   UNL     1       3.360  -7.937  -5.871  0.00  0.00    +0.025 A 
ATOM      6  C   UNL     1       4.019  -7.425  -6.988  0.00  0.00    +0.032 A 
ATOM      7  C   UNL     1       4.136  -6.056  -7.165  0.00  0.00    +0.051 A 
ATOM      8  C   UNL     1       3.592  -5.194  -6.224  0.00  0.00    +0.068 A 
ATOM      9  N   UNL     1       3.530  -3.818  -6.109  0.00  0.00    -0.337 N 
ATOM     10  H   UNL     1       3.896  -3.171  -6.733  0.00  0.00    +0.167 HD
ENDROOT
BRANCH   1  17
ATOM     11  C   UNL     1       0.619  -0.608  -1.049  0.00  0.00    +0.164 A 
ATOM     12  C   UNL     1       1.197   0.162  -2.037  0.00  0.00    +0.077 A 
ATOM     13  C   UNL     1       1.821  -0.453  -3.120  0.00  0.00    +0.070 A 
ATOM     14  C   UNL     1       1.856  -1.857  -3.197  0.00  0.00    +0.034 A 
ATOM     15  C   UNL     1       1.266  -2.626  -2.191  0.00  0.00    +0.061 A 
ATOM     16  C   UNL     1       0.658  -2.003  -1.122  0.00  0.00    +0.163 A 
ATOM     17  C   UNL     1       2.572  -2.184  -4.437  0.00  0.00    +0.135 A 
ATOM     18  N   UNL     1       2.911  -1.051  -5.008  0.00  0.00    -0.170 NA
ATOM     19  N   UNL     1       2.469   0.025  -4.232  0.00  0.00    -0.276 N 
ATOM     20  H   UNL     1       2.599   0.962  -4.446  0.00  0.00    +0.189 HD
BRANCH  11  22
ATOM     21  C   UNL     1       0.005   1.425   0.023  0.00  0.00    +0.277 C 
ATOM     22  O   UNL     1       0.011  -0.004   0.008  0.00  0.00    -0.491 OA
ENDBRANCH  11  22
BRANCH  16  23
ATOM     23  O   UNL     1       0.089  -2.749  -0.138  0.00  0.00    -0.484 OA
BRANCH  23  24
ATOM     24  C   UNL     1       0.164  -4.170  -0.274  0.00  0.00    +0.264 C 
BRANCH  24  25
ATOM     25  C   UNL     1      -0.515  -4.824   0.901  0.00  0.00    -0.010 A 
ATOM     26  C   UNL     1       0.210  -5.122   2.040  0.00  0.00    +0.007 A 
ATOM     27  C   UNL     1      -0.413  -5.723   3.118  0.00  0.00    +0.000 A 
ATOM     28  C   UNL     1      -1.761  -6.025   3.057  0.00  0.00    +0.000 A 
ATOM     29  C   UNL     1      -2.485  -5.727   1.919  0.00  0.00    +0.000 A 
ATOM     30  C   UNL     1      -1.863  -5.122   0.842  0.00  0.00    +0.007 A 
ENDBRANCH  24  25
ENDBRANCH  23  24
ENDBRANCH  16  23
ENDBRANCH   1  17
BRANCH   6  31
ATOM     31  N   UNL     1       4.566  -8.298  -7.933  0.00  0.00    -0.330 N 
ATOM     32  C   UNL     1       5.158  -7.782  -9.175  0.00  0.00    +0.103 C 
ATOM     33  C   UNL     1       6.581  -8.332  -9.309  0.00  0.00    +0.004 C 
ATOM     34  C   UNL     1       6.543  -9.860  -9.219  0.00  0.00    -0.066 C 
ATOM     35  C   UNL     1       5.991 -10.278  -7.855  0.00  0.00    +0.004 C 
ATOM     36  C   UNL     1       4.566  -9.749  -7.701  0.00  0.00    +0.103 C 
BRANCH  34  37
ATOM     37  N   UNL     1       7.902 -10.393  -9.381  0.00  0.00    +0.382 N 
ATOM     38  C   UNL     1       8.434  -9.985 -10.687  0.00  0.00    -0.078 C 
ATOM     39  C   UNL     1       9.879 -10.470 -10.827  0.00  0.00    -0.019 C 
ATOM     40  C   UNL     1       9.913 -11.996 -10.715  0.00  0.00    -0.004 C 
ATOM     41  C   UNL     1       9.288 -12.414  -9.381  0.00  0.00    -0.019 C 
ATOM     42  C   UNL     1       7.865 -11.858  -9.294  0.00  0.00    -0.078 C 
ATOM     43  H   UNL     1       8.495 -10.029  -8.650  0.00  0.00    -0.081 HD
ENDBRANCH  34  37
ENDBRANCH   6  31
TORSDOF 7
