REMARK  Name = CHEMBL121190
REMARK  2 active torsions:
REMARK  status: ('A' for Active; 'I' for Inactive)
REMARK    1  A    between atoms: C_3  and  N_8
REMARK    2  A    between atoms: N_8  and  C_9
REMARK                            x       y       z     vdW  Elec       q    Type
REMARK                         _______ _______ _______ _____ _____    ______ ____
ROOT
ATOM      1  C   UNL     1       4.788   1.452   0.068  0.00  0.00    +0.131 A 
ATOM      2  C   UNL     1       6.046   2.031   0.175  0.00  0.00    +0.100 A 
ATOM      3  C   UNL     1       6.553   3.347   0.229  0.00  0.00    +0.132 A 
ATOM      4  N   UNL     1       7.866   3.509   0.336  0.00  0.00    -0.220 NA
ATOM      5  C   UNL     1       8.701   2.483   0.393  0.00  0.00    +0.225 A 
ATOM      6  N   UNL     1       8.320   1.231   0.349  0.00  0.00    -0.214 NA
ATOM      7  C   UNL     1       7.012   0.921   0.241  0.00  0.00    +0.188 A 
ATOM      8  N   UNL     1       6.316  -0.192   0.174  0.00  0.00    -0.152 NA
ATOM      9  N   UNL     1       4.955   0.117   0.073  0.00  0.00    -0.261 N 
ATOM     10  N   UNL     1       5.708   4.434   0.172  0.00  0.00    -0.342 N 
ATOM     11  H   UNL     1       4.751   4.301   0.094  0.00  0.00    +0.144 HD
ATOM     12  H   UNL     1       6.071   5.333   0.211  0.00  0.00    +0.144 HD
ATOM     13  H   UNL     1       4.239  -0.534   0.014  0.00  0.00    +0.190 HD
ENDROOT
BRANCH   1  14
ATOM     14  N   UNL     1       3.582   2.124  -0.021  0.00  0.00    -0.299 N 
ATOM     15  H   UNL     1       3.571   3.090  -0.105  0.00  0.00    +0.154 HD
BRANCH  14  18
ATOM     16  C   UNL     1       1.079  -0.431   0.824  0.00  0.00    +0.003 A 
ATOM     17  C   UNL     1       2.268   0.271   0.795  0.00  0.00    +0.023 A 
ATOM     18  C   UNL     1       2.381   1.411   0.010  0.00  0.00    +0.034 A 
ATOM     19  C   UNL     1       1.296   1.842  -0.744  0.00  0.00    +0.043 A 
ATOM     20  C   UNL     1       0.109   1.135  -0.710  0.00  0.00    +0.043 A 
ATOM     21  C   UNL     1       0.001  -0.001   0.074  0.00  0.00    +0.020 A 
ATOM     22 CL   UNL     1      -1.247   1.672  -1.651  0.00  0.00    -0.083 Cl
ENDBRANCH  14  18
ENDBRANCH   1  14
TORSDOF 2
