REMARK  Name = CHEMBL1171086
REMARK  9 active torsions:
REMARK  status: ('A' for Active; 'I' for Inactive)
REMARK    1  A    between atoms: C_1  and  C_2
REMARK    2  A    between atoms: C_5  and  C_19
REMARK    3  A    between atoms: C_7  and  C_8
REMARK    4  A    between atoms: C_9  and  C_10
REMARK    5  A    between atoms: N_21  and  C_22
REMARK    6  A    between atoms: C_25  and  C_32
REMARK    7  A    between atoms: C_26  and  C_28
REMARK    8  A    between atoms: C_32  and  N_33
REMARK    9  A    between atoms: N_36  and  C_39
REMARK                            x       y       z     vdW  Elec       q    Type
REMARK                         _______ _______ _______ _____ _____    ______ ____
ROOT
ATOM      1  C   UNL     1       0.368  -4.157  -0.484  0.00  0.00    +0.248 C 
ATOM      2  O   UNL     1       0.772  -4.691   0.530  0.00  0.00    -0.270 OA
ATOM      3  N   UNL     1      -0.024  -4.909  -1.532  0.00  0.00    -0.281 N 
ATOM      4  H   UNL     1      -0.411  -4.486  -2.314  0.00  0.00    +0.155 HD
ENDROOT
BRANCH   1   9
ATOM      5  C   UNL     1       0.113   1.592  -0.849  0.00  0.00    +0.045 C 
ATOM      6  C   UNL     1       0.181   0.090  -0.749  0.00  0.00    -0.035 A 
ATOM      7  C   UNL     1      -0.217  -0.689  -1.816  0.00  0.00    +0.005 A 
ATOM      8  C   UNL     1      -0.158  -2.067  -1.734  0.00  0.00    +0.013 A 
ATOM      9  C   UNL     1       0.306  -2.682  -0.569  0.00  0.00    +0.038 A 
ATOM     10  C   UNL     1       0.711  -1.904   0.513  0.00  0.00    +0.030 A 
ATOM     11  C   UNL     1       0.654  -0.511   0.422  0.00  0.00    +0.029 A 
BRANCH  11  12
ATOM     12  C   UNL     1       1.073   0.298   1.526  0.00  0.00    -0.059 C 
ATOM     13  C   UNL     1       1.417   0.961   2.432  0.00  0.00    -0.041 C 
BRANCH  13  14
ATOM     14  C   UNL     1       1.837   1.771   3.536  0.00  0.00    +0.117 A 
ATOM     15  C   UNL     1       1.828   3.152   3.599  0.00  0.00    +0.148 A 
ATOM     16  N   UNL     1       2.292   3.516   4.789  0.00  0.00    -0.235 NA
ATOM     17  C   UNL     1       2.601   2.437   5.500  0.00  0.00    +0.138 A 
ATOM     18  N   UNL     1       2.322   1.325   4.748  0.00  0.00    -0.293 N 
ATOM     19  C   UNL     1       2.543   0.077   5.248  0.00  0.00    +0.094 A 
ATOM     20  C   UNL     1       3.037  -0.087   6.495  0.00  0.00    +0.018 A 
ATOM     21  C   UNL     1       3.329   1.031   7.291  0.00  0.00    +0.005 A 
ATOM     22  C   UNL     1       3.121   2.283   6.799  0.00  0.00    +0.047 A 
ENDBRANCH  13  14
ENDBRANCH  11  12
ENDBRANCH   1   9
BRANCH   3  23
ATOM     23  C   UNL     1       0.128  -6.298  -1.490  0.00  0.00    +0.034 A 
ATOM     24  C   UNL     1      -0.044  -6.982  -0.293  0.00  0.00    +0.023 A 
ATOM     25  C   UNL     1       0.106  -8.354  -0.256  0.00  0.00    +0.007 A 
ATOM     26  C   UNL     1       0.427  -9.048  -1.408  0.00  0.00    -0.022 A 
ATOM     27  C   UNL     1       0.599  -8.371  -2.601  0.00  0.00    +0.061 A 
ATOM     28  C   UNL     1       0.444  -6.999  -2.647  0.00  0.00    +0.036 A 
BRANCH  27  29
ATOM     29  C   UNL     1       0.949  -9.131  -3.855  0.00  0.00    +0.418 C 
ATOM     30  F   UNL     1       1.022  -8.243  -4.934  0.00  0.00    -0.166 F 
ATOM     31  F   UNL     1       2.186  -9.762  -3.687  0.00  0.00    -0.166 F 
ATOM     32  F   UNL     1      -0.035 -10.092  -4.107  0.00  0.00    -0.166 F 
ENDBRANCH  27  29
BRANCH  26  33
ATOM     33  C   UNL     1       0.591 -10.545  -1.364  0.00  0.00    +0.120 C 
BRANCH  33  34
ATOM     34  N   UNL     1      -0.623 -11.186  -1.887  0.00  0.00    -0.302 NA
ATOM     35  C   UNL     1      -1.788 -10.873  -1.048  0.00  0.00    +0.066 C 
ATOM     36  C   UNL     1      -3.039 -11.508  -1.659  0.00  0.00    -0.064 C 
ATOM     37  N   UNL     1      -2.856 -12.962  -1.749  0.00  0.00    +0.379 N 
ATOM     38  C   UNL     1      -1.704 -13.261  -2.610  0.00  0.00    -0.064 C 
ATOM     39  C   UNL     1      -0.442 -12.640  -2.007  0.00  0.00    +0.066 C 
ATOM     40  C   UNL     1      -4.064 -13.574  -2.319  0.00  0.00    -0.096 C 
ATOM     41  H   UNL     1      -2.692 -13.338  -0.827  0.00  0.00    -0.082 HD
ENDBRANCH  33  34
ENDBRANCH  26  33
ENDBRANCH   3  23
TORSDOF 7
