REMARK  Name = CHEMBL248391
REMARK  11 active torsions:
REMARK  status: ('A' for Active; 'I' for Inactive)
REMARK    1  A    between atoms: C_1  and  O_2
REMARK    2  A    between atoms: O_2  and  C_3
REMARK    3  A    between atoms: C_8  and  O_9
REMARK    4  A    between atoms: O_9  and  C_10
REMARK    5  A    between atoms: C_10  and  C_11
REMARK    6  A    between atoms: C_11  and  C_12
REMARK    7  A    between atoms: C_12  and  C_13
REMARK    8  A    between atoms: C_21  and  C_35
REMARK    9  A    between atoms: C_22  and  N_23
REMARK   10  A    between atoms: N_23  and  C_24
REMARK   11  A    between atoms: C_27  and  C_29
REMARK                            x       y       z     vdW  Elec       q    Type
REMARK                         _______ _______ _______ _____ _____    ______ ____
ROOT
ATOM      1  C   UNL     1       1.683  -0.758   0.739  0.00  0.00    +0.162 A 
ATOM      2  C   UNL     1       1.912   0.038   1.823  0.00  0.00    +0.061 A 
ATOM      3  C   UNL     1       2.083  -0.540   3.090  0.00  0.00    +0.026 A 
ATOM      4  C   UNL     1       2.019  -1.947   3.239  0.00  0.00    +0.076 A 
ATOM      5  C   UNL     1       1.783  -2.744   2.108  0.00  0.00    +0.077 A 
ATOM      6  C   UNL     1       1.612  -2.151   0.878  0.00  0.00    +0.164 A 
ATOM      7  N   UNL     1       2.181  -2.506   4.447  0.00  0.00    -0.253 NA
ATOM      8  C   UNL     1       2.402  -1.789   5.519  0.00  0.00    +0.132 A 
ATOM      9  C   UNL     1       2.481  -0.388   5.464  0.00  0.00    +0.091 A 
ATOM     10  C   UNL     1       2.321   0.261   4.231  0.00  0.00    +0.056 A 
ENDROOT
BRANCH   1  12
ATOM     11  C   UNL     1       1.600   1.230  -0.564  0.00  0.00    +0.277 C 
ATOM     12  O   UNL     1       1.517  -0.194  -0.488  0.00  0.00    -0.491 OA
ENDBRANCH   1  12
BRANCH  10  13
ATOM     13  N   UNL     1       2.393   1.635   4.134  0.00  0.00    -0.339 N 
ATOM     14  H   UNL     1       1.912   2.098   3.430  0.00  0.00    +0.146 HD
BRANCH  13  15
ATOM     15  C   UNL     1       3.195   2.396   5.095  0.00  0.00    +0.078 C 
ATOM     16  C   UNL     1       2.496   3.513   5.872  0.00  0.00    +0.032 C 
ATOM     17  C   UNL     1       3.493   3.860   4.764  0.00  0.00    +0.041 C 
BRANCH  17  18
ATOM     18  C   UNL     1       4.833   4.409   5.181  0.00  0.00    -0.042 A 
ATOM     19  C   UNL     1       5.194   4.411   6.516  0.00  0.00    +0.004 A 
ATOM     20  C   UNL     1       6.423   4.915   6.898  0.00  0.00    +0.000 A 
ATOM     21  C   UNL     1       7.292   5.416   5.947  0.00  0.00    +0.000 A 
ATOM     22  C   UNL     1       6.931   5.413   4.612  0.00  0.00    +0.000 A 
ATOM     23  C   UNL     1       5.704   4.905   4.229  0.00  0.00    +0.004 A 
ENDBRANCH  17  18
ENDBRANCH  13  15
ENDBRANCH  10  13
BRANCH   9  24
ATOM     24  C   UNL     1       2.724   0.370   6.655  0.00  0.00    +0.103 C 
ATOM     25  N   UNL     1       2.916   0.971   7.599  0.00  0.00    -0.191 NA
ENDBRANCH   9  24
BRANCH   6  26
ATOM     26  O   UNL     1       1.378  -2.925  -0.214  0.00  0.00    -0.488 OA
BRANCH  26  27
ATOM     27  C   UNL     1       1.317  -4.337  -0.007  0.00  0.00    +0.229 C 
BRANCH  27  28
ATOM     28  C   UNL     1       1.047  -5.037  -1.341  0.00  0.00    +0.046 C 
BRANCH  28  29
ATOM     29  C   UNL     1       0.982  -6.549  -1.120  0.00  0.00    +0.040 C 
BRANCH  29  30
ATOM     30  C   UNL     1       0.717  -7.238  -2.434  0.00  0.00    -0.029 A 
ATOM     31  C   UNL     1      -0.584  -7.474  -2.852  0.00  0.00    +0.006 A 
ATOM     32  C   UNL     1      -0.781  -8.111  -4.068  0.00  0.00    +0.020 A 
ATOM     33  C   UNL     1       0.319  -8.487  -4.817  0.00  0.00    +0.111 A 
ATOM     34  N   UNL     1       1.542  -8.246  -4.387  0.00  0.00    -0.263 NA
ATOM     35  C   UNL     1       1.766  -7.637  -3.239  0.00  0.00    +0.114 A 
ENDBRANCH  29  30
ENDBRANCH  28  29
ENDBRANCH  27  28
ENDBRANCH  26  27
ENDBRANCH   6  26
TORSDOF 10
