REMARK  Name = CHEMBL1171473
REMARK  11 active torsions:
REMARK  status: ('A' for Active; 'I' for Inactive)
REMARK    1  A    between atoms: C_1  and  C_2
REMARK    2  A    between atoms: C_5  and  C_19
REMARK    3  A    between atoms: C_7  and  C_8
REMARK    4  A    between atoms: C_9  and  C_10
REMARK    5  A    between atoms: N_21  and  C_22
REMARK    6  A    between atoms: C_25  and  C_32
REMARK    7  A    between atoms: C_26  and  C_28
REMARK    8  A    between atoms: C_32  and  N_33
REMARK    9  A    between atoms: C_36  and  N_39
REMARK   10  A    between atoms: N_39  and  C_40
REMARK   11  A    between atoms: N_39  and  C_41
REMARK                            x       y       z     vdW  Elec       q    Type
REMARK                         _______ _______ _______ _____ _____    ______ ____
ROOT
ATOM      1  C   UNL     1       0.374  -4.165  -0.446  0.00  0.00    +0.248 C 
ATOM      2  O   UNL     1       0.785  -4.705   0.563  0.00  0.00    -0.270 OA
ATOM      3  N   UNL     1      -0.024  -4.913  -1.494  0.00  0.00    -0.281 N 
ATOM      4  H   UNL     1      -0.416  -4.486  -2.273  0.00  0.00    +0.155 HD
ENDROOT
BRANCH   1   9
ATOM      5  C   UNL     1       0.115   1.585  -0.780  0.00  0.00    +0.045 C 
ATOM      6  C   UNL     1       0.184   0.083  -0.689  0.00  0.00    -0.035 A 
ATOM      7  C   UNL     1      -0.221  -0.692  -1.757  0.00  0.00    +0.005 A 
ATOM      8  C   UNL     1      -0.161  -2.070  -1.682  0.00  0.00    +0.013 A 
ATOM      9  C   UNL     1       0.311  -2.690  -0.523  0.00  0.00    +0.038 A 
ATOM     10  C   UNL     1       0.722  -1.917   0.560  0.00  0.00    +0.030 A 
ATOM     11  C   UNL     1       0.664  -0.525   0.476  0.00  0.00    +0.029 A 
BRANCH  11  12
ATOM     12  C   UNL     1       1.091   0.280   1.582  0.00  0.00    -0.059 C 
ATOM     13  C   UNL     1       1.440   0.939   2.489  0.00  0.00    -0.041 C 
BRANCH  13  14
ATOM     14  C   UNL     1       1.866   1.743   3.594  0.00  0.00    +0.117 A 
ATOM     15  C   UNL     1       1.858   3.124   3.664  0.00  0.00    +0.148 A 
ATOM     16  N   UNL     1       2.329   3.482   4.853  0.00  0.00    -0.235 NA
ATOM     17  C   UNL     1       2.642   2.399   5.556  0.00  0.00    +0.138 A 
ATOM     18  N   UNL     1       2.360   1.292   4.801  0.00  0.00    -0.293 N 
ATOM     19  C   UNL     1       2.584   0.041   5.294  0.00  0.00    +0.094 A 
ATOM     20  C   UNL     1       3.086  -0.129   6.536  0.00  0.00    +0.018 A 
ATOM     21  C   UNL     1       3.383   0.985   7.337  0.00  0.00    +0.005 A 
ATOM     22  C   UNL     1       3.171   2.240   6.851  0.00  0.00    +0.047 A 
ENDBRANCH  13  14
ENDBRANCH  11  12
ENDBRANCH   1   9
BRANCH   3  23
ATOM     23  C   UNL     1       0.127  -6.302  -1.461  0.00  0.00    +0.034 A 
ATOM     24  C   UNL     1      -0.037  -6.992  -0.266  0.00  0.00    +0.023 A 
ATOM     25  C   UNL     1       0.114  -8.364  -0.236  0.00  0.00    +0.007 A 
ATOM     26  C   UNL     1       0.428  -9.052  -1.394  0.00  0.00    -0.022 A 
ATOM     27  C   UNL     1       0.592  -8.369  -2.584  0.00  0.00    +0.061 A 
ATOM     28  C   UNL     1       0.437  -6.997  -2.623  0.00  0.00    +0.036 A 
BRANCH  27  29
ATOM     29  C   UNL     1       0.935  -9.123  -3.843  0.00  0.00    +0.418 C 
ATOM     30  F   UNL     1       1.001  -8.230  -4.918  0.00  0.00    -0.166 F 
ATOM     31  F   UNL     1       2.173  -9.756  -3.686  0.00  0.00    -0.166 F 
ATOM     32  F   UNL     1      -0.051 -10.083  -4.095  0.00  0.00    -0.166 F 
ENDBRANCH  27  29
BRANCH  26  33
ATOM     33  C   UNL     1       0.591 -10.550  -1.357  0.00  0.00    +0.120 C 
BRANCH  33  34
ATOM     34  N   UNL     1      -0.627 -11.188  -1.874  0.00  0.00    -0.300 NA
ATOM     35  C   UNL     1      -1.780 -10.924  -0.988  0.00  0.00    +0.083 C 
ATOM     36  C   UNL     1      -2.647 -12.205  -1.075  0.00  0.00    +0.001 C 
ATOM     37  C   UNL     1      -1.563 -13.312  -1.156  0.00  0.00    -0.054 C 
ATOM     38  C   UNL     1      -0.449 -12.647  -1.992  0.00  0.00    +0.069 C 
BRANCH  37  39
ATOM     39  N   UNL     1      -2.088 -14.503  -1.838  0.00  0.00    +0.379 N 
ATOM     40  C   UNL     1      -1.031 -15.519  -1.931  0.00  0.00    -0.096 C 
ATOM     41  C   UNL     1      -3.221 -15.044  -1.075  0.00  0.00    -0.096 C 
ATOM     42  H   UNL     1      -2.395 -14.252  -2.765  0.00  0.00    -0.082 HD
ENDBRANCH  37  39
ENDBRANCH  33  34
ENDBRANCH  26  33
ENDBRANCH   3  23
TORSDOF 8
