REMARK  Name = CHEMBL1172720
REMARK  6 active torsions:
REMARK  status: ('A' for Active; 'I' for Inactive)
REMARK    1  A    between atoms: C_1  and  C_2
REMARK    2  A    between atoms: C_5  and  C_19
REMARK    3  A    between atoms: C_7  and  C_8
REMARK    4  A    between atoms: C_9  and  C_10
REMARK    5  A    between atoms: N_21  and  C_22
REMARK    6  A    between atoms: C_26  and  C_28
REMARK                            x       y       z     vdW  Elec       q    Type
REMARK                         _______ _______ _______ _____ _____    ______ ____
ROOT
ATOM      1  C   UNL     1      -0.048   1.502   0.010  0.00  0.00    +0.045 C 
ATOM      2  C   UNL     1      -0.020  -0.004   0.002  0.00  0.00    -0.035 A 
ATOM      3  C   UNL     1      -0.018  -0.687  -1.198  0.00  0.00    +0.005 A 
ATOM      4  C   UNL     1       0.009  -2.067  -1.215  0.00  0.00    +0.013 A 
ATOM      5  C   UNL     1       0.034  -2.785  -0.016  0.00  0.00    +0.038 A 
ATOM      6  C   UNL     1       0.032  -2.104   1.199  0.00  0.00    +0.030 A 
ATOM      7  C   UNL     1       0.011  -0.709   1.210  0.00  0.00    +0.029 A 
ENDROOT
BRANCH   5   8
ATOM      8  C   UNL     1       0.062  -4.263  -0.038  0.00  0.00    +0.248 C 
ATOM      9  O   UNL     1       0.083  -4.885   1.006  0.00  0.00    -0.270 OA
ATOM     10  N   UNL     1       0.063  -4.919  -1.215  0.00  0.00    -0.281 N 
ATOM     11  H   UNL     1      -0.022  -4.426  -2.046  0.00  0.00    +0.155 HD
BRANCH  10  12
ATOM     12  C   UNL     1       0.187  -6.312  -1.238  0.00  0.00    +0.034 A 
ATOM     13  C   UNL     1       0.891  -6.931  -2.263  0.00  0.00    +0.023 A 
ATOM     14  C   UNL     1       1.012  -8.307  -2.283  0.00  0.00    +0.002 A 
ATOM     15  C   UNL     1       0.431  -9.068  -1.284  0.00  0.00    +0.012 A 
ATOM     16  C   UNL     1      -0.271  -8.455  -0.263  0.00  0.00    +0.057 A 
ATOM     17  C   UNL     1      -0.390  -7.079  -0.234  0.00  0.00    +0.035 A 
BRANCH  16  18
ATOM     18  C   UNL     1      -0.902  -9.288   0.822  0.00  0.00    +0.417 C 
ATOM     19  F   UNL     1      -0.642 -10.642   0.581  0.00  0.00    -0.166 F 
ATOM     20  F   UNL     1      -0.365  -8.924   2.061  0.00  0.00    -0.166 F 
ATOM     21  F   UNL     1      -2.284  -9.073   0.831  0.00  0.00    -0.166 F 
ENDBRANCH  16  18
ENDBRANCH  10  12
ENDBRANCH   5   8
BRANCH   7  22
ATOM     22  C   UNL     1       0.015   0.000   2.454  0.00  0.00    -0.059 C 
ATOM     23  C   UNL     1       0.018   0.581   3.474  0.00  0.00    -0.040 C 
BRANCH  23  24
ATOM     24  C   UNL     1       0.021   1.290   4.719  0.00  0.00    +0.136 A 
ATOM     25  C   UNL     1      -0.009   2.664   4.889  0.00  0.00    +0.150 A 
ATOM     26  N   UNL     1       0.006   2.921   6.191  0.00  0.00    -0.233 NA
ATOM     27  C   UNL     1       0.045   1.780   6.871  0.00  0.00    +0.155 A 
ATOM     28  N   UNL     1       0.050   0.739   5.978  0.00  0.00    -0.205 N 
ATOM     29  N   UNL     1       0.083  -0.580   6.439  0.00  0.00    -0.172 NA
ATOM     30  C   UNL     1       0.106  -0.838   7.720  0.00  0.00    +0.133 A 
ATOM     31  C   UNL     1       0.099   0.199   8.661  0.00  0.00    +0.025 A 
ATOM     32  C   UNL     1       0.074   1.498   8.249  0.00  0.00    +0.050 A 
ENDBRANCH  23  24
ENDBRANCH   7  22
TORSDOF 5
