REMARK  Name = CHEMBL376945
REMARK  6 active torsions:
REMARK  status: ('A' for Active; 'I' for Inactive)
REMARK    1  A    between atoms: C_6  and  N_7
REMARK    2  A    between atoms: N_7  and  C_8
REMARK    3  A    between atoms: C_8  and  C_9
REMARK    4  A    between atoms: C_14  and  C_18
REMARK    5  A    between atoms: C_23  and  N_27
REMARK    6  A    between atoms: C_30  and  N_33
REMARK                            x       y       z     vdW  Elec       q    Type
REMARK                         _______ _______ _______ _____ _____    ______ ____
ROOT
ATOM      1  C   UNL     1       4.327  -1.683  -0.025  0.00  0.00    +0.158 A 
ATOM      2  N   UNL     1       3.636  -2.802  -0.048  0.00  0.00    -0.226 NA
ATOM      3  C   UNL     1       4.483  -3.860  -0.064  0.00  0.00    +0.090 A 
ATOM      4  C   UNL     1       4.284  -5.245  -0.089  0.00  0.00    +0.032 A 
ATOM      5  C   UNL     1       5.357  -6.088  -0.100  0.00  0.00    +0.025 A 
ATOM      6  C   UNL     1       6.657  -5.583  -0.085  0.00  0.00    +0.032 A 
ATOM      7  C   UNL     1       6.875  -4.215  -0.060  0.00  0.00    +0.051 A 
ATOM      8  C   UNL     1       5.793  -3.348  -0.050  0.00  0.00    +0.068 A 
ATOM      9  N   UNL     1       5.670  -1.971  -0.031  0.00  0.00    -0.337 N 
ATOM     10  H   UNL     1       6.397  -1.328  -0.021  0.00  0.00    +0.167 HD
ENDROOT
BRANCH   1  17
ATOM     11  C   UNL     1      -0.017   1.397   0.027  0.00  0.00    +0.025 A 
ATOM     12  C   UNL     1       1.126   2.127   0.039  0.00  0.00    +0.032 A 
ATOM     13  C   UNL     1       2.374   1.469   0.027  0.00  0.00    +0.093 A 
ATOM     14  C   UNL     1       2.391  -0.002   0.003  0.00  0.00    +0.032 A 
ATOM     15  C   UNL     1       1.178  -0.701  -0.008  0.00  0.00    +0.035 A 
ATOM     16  C   UNL     1       0.002  -0.004   0.004  0.00  0.00    +0.028 A 
ATOM     17  C   UNL     1       3.751  -0.335  -0.003  0.00  0.00    +0.109 A 
ATOM     18  N   UNL     1       4.433   0.843   0.015  0.00  0.00    -0.273 N 
ATOM     19  N   UNL     1       3.638   1.852   0.033  0.00  0.00    -0.173 NA
ATOM     20  H   UNL     1       5.400   0.913   0.016  0.00  0.00    +0.189 HD
BRANCH  16  21
ATOM     21  N   UNL     1      -1.207  -0.704  -0.006  0.00  0.00    -0.338 N 
ATOM     22  H   UNL     1      -1.206  -1.674  -0.022  0.00  0.00    +0.146 HD
BRANCH  21  23
ATOM     23  C   UNL     1      -2.477   0.027   0.006  0.00  0.00    +0.164 C 
BRANCH  23  24
ATOM     24  C   UNL     1      -3.621  -0.954  -0.009  0.00  0.00    +0.095 A 
ATOM     25  N   UNL     1      -4.242  -1.496   1.009  0.00  0.00    -0.251 NA
ATOM     26  C   UNL     1      -5.235  -2.345   0.834  0.00  0.00    +0.119 A 
ATOM     27  C   UNL     1      -5.582  -2.630  -0.448  0.00  0.00    +0.066 A 
ATOM     28  S   UNL     1      -4.416  -1.612  -1.339  0.00  0.00    -0.079 S 
ENDBRANCH  23  24
ENDBRANCH  21  23
ENDBRANCH  16  21
ENDBRANCH   1  17
BRANCH   6  29
ATOM     29  N   UNL     1       7.744  -6.461  -0.096  0.00  0.00    -0.330 N 
ATOM     30  C   UNL     1       9.118  -5.950  -0.203  0.00  0.00    +0.103 C 
ATOM     31  C   UNL     1       9.946  -6.517   0.955  0.00  0.00    +0.004 C 
ATOM     32  C   UNL     1       9.842  -8.043   0.952  0.00  0.00    -0.066 C 
ATOM     33  C   UNL     1       8.382  -8.457   1.155  0.00  0.00    +0.004 C 
ATOM     34  C   UNL     1       7.537  -7.912   0.006  0.00  0.00    +0.103 C 
BRANCH  32  35
ATOM     35  N   UNL     1      10.662  -8.592   2.041  0.00  0.00    +0.382 N 
ATOM     36  C   UNL     1      12.060  -8.188   1.849  0.00  0.00    -0.078 C 
ATOM     37  C   UNL     1      12.905  -8.689   3.023  0.00  0.00    -0.019 C 
ATOM     38  C   UNL     1      12.817 -10.216   3.094  0.00  0.00    -0.004 C 
ATOM     39  C   UNL     1      11.348 -10.628   3.219  0.00  0.00    -0.019 C 
ATOM     40  C   UNL     1      10.561 -10.056   2.038  0.00  0.00    -0.078 C 
ATOM     41  H   UNL     1      10.329  -8.235   2.924  0.00  0.00    -0.081 HD
ENDBRANCH  32  35
ENDBRANCH   6  29
TORSDOF 6
