REMARK  Name = CHEMBL365277
REMARK  9 active torsions:
REMARK  status: ('A' for Active; 'I' for Inactive)
REMARK    1  A    between atoms: C_1  and  C_2
REMARK    2  A    between atoms: C_5  and  N_21
REMARK    3  A    between atoms: C_7  and  N_8
REMARK    4  A    between atoms: C_13  and  C_15
REMARK    5  A    between atoms: N_24  and  C_25
REMARK    6  A    between atoms: C_30  and  C_31
REMARK    7  A    between atoms: C_31  and  N_32
REMARK    8  A    between atoms: N_32  and  C_33
REMARK    9  A    between atoms: N_32  and  C_34
REMARK                            x       y       z     vdW  Elec       q    Type
REMARK                         _______ _______ _______ _____ _____    ______ ____
ROOT
ATOM      1  N   UNL     1       0.181  -0.007  -3.324  0.00  0.00    -0.269 N 
ATOM      2  C   UNL     1       0.106   0.589  -4.530  0.00  0.00    +0.308 C 
ATOM      3  O   UNL     1      -0.099   1.785  -4.606  0.00  0.00    -0.252 OA
ATOM      4  N   UNL     1       0.257  -0.142  -5.653  0.00  0.00    -0.269 N 
ATOM      5  H   UNL     1       0.267  -0.971  -3.263  0.00  0.00    +0.156 HD
ATOM      6  H   UNL     1       0.342  -1.106  -5.596  0.00  0.00    +0.156 HD
ENDROOT
BRANCH   1  11
ATOM      7  C   UNL     1      -0.021   3.137   1.400  0.00  0.00    +0.045 C 
ATOM      8  C   UNL     1       0.034   2.302   0.147  0.00  0.00    -0.029 A 
ATOM      9  C   UNL     1      -0.750   2.637  -0.941  0.00  0.00    +0.007 A 
ATOM     10  C   UNL     1      -0.702   1.874  -2.091  0.00  0.00    +0.024 A 
ATOM     11  C   UNL     1       0.134   0.766  -2.158  0.00  0.00    +0.037 A 
ATOM     12  C   UNL     1       0.922   0.427  -1.068  0.00  0.00    +0.047 A 
ATOM     13  C   UNL     1       0.876   1.199   0.085  0.00  0.00    +0.038 A 
BRANCH  13  14
ATOM     14  N   UNL     1       1.673   0.864   1.183  0.00  0.00    -0.283 N 
ATOM     15  C   UNL     1       1.995  -0.461   1.427  0.00  0.00    +0.220 A 
ATOM     16  N   UNL     1       1.449  -1.407   0.676  0.00  0.00    -0.223 NA
ATOM     17  C   UNL     1       1.731  -2.684   0.878  0.00  0.00    +0.116 A 
ATOM     18  C   UNL     1       2.610  -3.032   1.888  0.00  0.00    +0.048 A 
ATOM     19  C   UNL     1       3.170  -2.013   2.663  0.00  0.00    +0.077 A 
ATOM     20  N   UNL     1       2.845  -0.750   2.400  0.00  0.00    -0.214 NA
ATOM     21  H   UNL     1       2.001   1.560   1.775  0.00  0.00    +0.155 HD
BRANCH  19  22
ATOM     22  C   UNL     1       4.118  -2.334   3.758  0.00  0.00    +0.019 A 
ATOM     23  C   UNL     1       4.593  -1.328   4.604  0.00  0.00    +0.013 A 
ATOM     24  C   UNL     1       5.476  -1.679   5.611  0.00  0.00    +0.020 A 
ATOM     25  C   UNL     1       5.855  -3.003   5.747  0.00  0.00    +0.111 A 
ATOM     26  N   UNL     1       5.389  -3.931   4.934  0.00  0.00    -0.263 NA
ATOM     27  C   UNL     1       4.543  -3.645   3.965  0.00  0.00    +0.120 A 
ENDBRANCH  19  22
ENDBRANCH  13  14
ENDBRANCH   1  11
BRANCH   4  28
ATOM     28  C   UNL     1       0.293   0.491  -6.900  0.00  0.00    +0.036 A 
ATOM     29  C   UNL     1       0.740   1.803  -7.003  0.00  0.00    +0.023 A 
ATOM     30  C   UNL     1       0.773   2.424  -8.235  0.00  0.00    +0.002 A 
ATOM     31  C   UNL     1       0.363   1.743  -9.367  0.00  0.00    +0.000 A 
ATOM     32  C   UNL     1      -0.083   0.438  -9.268  0.00  0.00    +0.003 A 
ATOM     33  C   UNL     1      -0.114  -0.191  -8.039  0.00  0.00    -0.043 A 
BRANCH  33  34
ATOM     34  C   UNL     1      -0.594  -1.616  -7.933  0.00  0.00    -0.041 C 
BRANCH  34  35
ATOM     35  N   UNL     1      -2.019  -1.628  -7.579  0.00  0.00    +0.382 N 
ATOM     36  C   UNL     1      -2.193  -1.075  -6.229  0.00  0.00    -0.095 C 
ATOM     37  H   UNL     1      -2.535  -1.067  -8.241  0.00  0.00    -0.081 HD
BRANCH  35  38
ATOM     38  C   UNL     1      -2.520  -3.008  -7.611  0.00  0.00    -0.069 C 
ATOM     39  C   UNL     1      -2.339  -3.584  -9.017  0.00  0.00    -0.015 C 
ATOM     40  C   UNL     1      -2.861  -5.022  -9.050  0.00  0.00    -0.002 C 
ATOM     41  C   UNL     1      -4.346  -5.034  -8.681  0.00  0.00    -0.000 C 
ATOM     42  C   UNL     1      -4.527  -4.458  -7.276  0.00  0.00    -0.002 C 
ATOM     43  C   UNL     1      -4.005  -3.020  -7.242  0.00  0.00    -0.015 C 
ENDBRANCH  35  38
ENDBRANCH  34  35
ENDBRANCH  33  34
ENDBRANCH   4  28
TORSDOF 7
