REMARK  Name = CHEMBL1171247
REMARK  9 active torsions:
REMARK  status: ('A' for Active; 'I' for Inactive)
REMARK    1  A    between atoms: C_1  and  C_2
REMARK    2  A    between atoms: C_5  and  C_21
REMARK    3  A    between atoms: C_7  and  C_8
REMARK    4  A    between atoms: C_9  and  C_10
REMARK    5  A    between atoms: N_23  and  C_24
REMARK    6  A    between atoms: C_27  and  C_34
REMARK    7  A    between atoms: C_28  and  C_30
REMARK    8  A    between atoms: C_34  and  N_35
REMARK    9  A    between atoms: N_38  and  C_41
REMARK                            x       y       z     vdW  Elec       q    Type
REMARK                         _______ _______ _______ _____ _____    ______ ____
ROOT
ATOM      1  C   UNL     1       0.019  -4.284  -0.029  0.00  0.00    +0.248 C 
ATOM      2  O   UNL     1       0.611  -4.861   0.863  0.00  0.00    -0.270 OA
ATOM      3  N   UNL     1      -0.497  -4.983  -1.058  0.00  0.00    -0.281 N 
ATOM      4  H   UNL     1      -1.034  -4.534  -1.729  0.00  0.00    +0.155 HD
ENDROOT
BRANCH   1   9
ATOM      5  C   UNL     1      -0.597   1.447   0.121  0.00  0.00    +0.045 C 
ATOM      6  C   UNL     1      -0.433  -0.051   0.085  0.00  0.00    -0.035 A 
ATOM      7  C   UNL     1      -0.958  -0.776  -0.966  0.00  0.00    +0.005 A 
ATOM      8  C   UNL     1      -0.813  -2.149  -1.006  0.00  0.00    +0.013 A 
ATOM      9  C   UNL     1      -0.134  -2.814   0.017  0.00  0.00    +0.038 A 
ATOM     10  C   UNL     1       0.399  -2.090   1.081  0.00  0.00    +0.030 A 
ATOM     11  C   UNL     1       0.254  -0.702   1.113  0.00  0.00    +0.029 A 
BRANCH  11  12
ATOM     12  C   UNL     1       0.803   0.052   2.200  0.00  0.00    -0.061 C 
ATOM     13  C   UNL     1       1.254   0.670   3.091  0.00  0.00    -0.059 C 
BRANCH  13  14
ATOM     14  C   UNL     1       1.803   1.424   4.177  0.00  0.00    +0.047 A 
ATOM     15  C   UNL     1       1.652   2.819   4.225  0.00  0.00    +0.067 A 
ATOM     16  C   UNL     1       2.201   3.498   5.295  0.00  0.00    +0.162 A 
ATOM     17  C   UNL     1       2.882   2.785   6.287  0.00  0.00    +0.167 A 
ATOM     18  N   UNL     1       3.004   1.470   6.209  0.00  0.00    -0.235 NA
ATOM     19  C   UNL     1       2.491   0.782   5.209  0.00  0.00    +0.130 A 
ATOM     20  N   UNL     1       3.435   3.483   7.363  0.00  0.00    -0.265 N 
ATOM     21  C   UNL     1       3.043   4.754   7.594  0.00  0.00    +0.256 C 
ATOM     22  O   UNL     1       3.534   5.385   8.506  0.00  0.00    -0.272 OA
ATOM     23  C   UNL     1       1.994   5.388   6.716  0.00  0.00    +0.325 C 
ATOM     24  O   UNL     1       2.085   4.848   5.395  0.00  0.00    -0.479 OA
ATOM     25  H   UNL     1       4.093   3.060   7.937  0.00  0.00    +0.156 HD
ENDBRANCH  13  14
ENDBRANCH  11  12
ENDBRANCH   1   9
BRANCH   3  26
ATOM     26  C   UNL     1      -0.258  -6.357  -1.160  0.00  0.00    +0.034 A 
ATOM     27  C   UNL     1      -0.185  -7.138  -0.013  0.00  0.00    +0.023 A 
ATOM     28  C   UNL     1       0.051  -8.494  -0.116  0.00  0.00    +0.004 A 
ATOM     29  C   UNL     1       0.215  -9.076  -1.360  0.00  0.00    -0.052 A 
ATOM     30  C   UNL     1       0.142  -8.303  -2.504  0.00  0.00    +0.058 A 
ATOM     31  C   UNL     1      -0.099  -6.946  -2.407  0.00  0.00    +0.036 A 
BRANCH  30  32
ATOM     32  C   UNL     1       0.321  -8.941  -3.857  0.00  0.00    +0.418 C 
ATOM     33  F   UNL     1       0.086  -7.990  -4.856  0.00  0.00    -0.166 F 
ATOM     34  F   UNL     1       1.627  -9.429  -3.974  0.00  0.00    -0.166 F 
ATOM     35  F   UNL     1      -0.586  -9.998  -3.997  0.00  0.00    -0.166 F 
ENDBRANCH  30  32
BRANCH  29  36
ATOM     36  C   UNL     1       0.472 -10.557  -1.469  0.00  0.00    -0.042 C 
BRANCH  36  37
ATOM     37  N   UNL     1       1.027 -11.052  -0.202  0.00  0.00    +0.384 N 
ATOM     38  C   UNL     1       2.360 -10.472   0.009  0.00  0.00    -0.063 C 
ATOM     39  C   UNL     1       2.930 -10.973   1.338  0.00  0.00    +0.065 C 
ATOM     40  N   UNL     1       3.014 -12.440   1.310  0.00  0.00    -0.309 NA
ATOM     41  C   UNL     1       1.691 -13.034   1.074  0.00  0.00    +0.065 C 
ATOM     42  C   UNL     1       1.131 -12.517  -0.253  0.00  0.00    -0.063 C 
ATOM     43  C   UNL     1       3.611 -12.956   2.548  0.00  0.00    +0.104 C 
ATOM     44  H   UNL     1       0.420 -10.785   0.558  0.00  0.00    -0.081 HD
ENDBRANCH  36  37
ENDBRANCH  29  36
ENDBRANCH   3  26
TORSDOF 7
