REMARK  Name = CHEMBL169467
REMARK  10 active torsions:
REMARK  status: ('A' for Active; 'I' for Inactive)
REMARK    1  A    between atoms: C_1  and  O_2
REMARK    2  A    between atoms: O_2  and  C_3
REMARK    3  A    between atoms: C_6  and  C_9
REMARK    4  A    between atoms: C_9  and  C_10
REMARK    5  A    between atoms: C_10  and  C_11
REMARK    6  A    between atoms: C_10  and  N_13
REMARK    7  A    between atoms: C_11  and  O_12
REMARK    8  A    between atoms: C_15  and  C_23
REMARK    9  A    between atoms: C_21  and  N_22
REMARK   10  A    between atoms: C_27  and  O_29
REMARK                            x       y       z     vdW  Elec       q    Type
REMARK                         _______ _______ _______ _____ _____    ______ ____
ROOT
ATOM      1  N   UNL     1       4.610  -3.478  -5.155  0.00  0.00    -0.326 N 
ATOM      2  C   UNL     1       4.676  -3.064  -6.457  0.00  0.00    +0.097 A 
ATOM      3  C   UNL     1       5.318  -3.998  -7.201  0.00  0.00    +0.012 A 
ATOM      4  C   UNL     1       5.681  -5.085  -6.283  0.00  0.00    +0.066 A 
ATOM      5  C   UNL     1       5.216  -4.698  -5.014  0.00  0.00    +0.147 A 
ATOM      6  N   UNL     1       5.424  -5.516  -3.983  0.00  0.00    -0.218 NA
ATOM      7  C   UNL     1       6.055  -6.658  -4.149  0.00  0.00    +0.225 A 
ATOM      8  N   UNL     1       6.511  -7.058  -5.322  0.00  0.00    -0.220 NA
ATOM      9  C   UNL     1       6.343  -6.313  -6.412  0.00  0.00    +0.129 A 
ENDROOT
BRANCH   3  10
ATOM     10  C   UNL     1       5.598  -3.935  -8.655  0.00  0.00    -0.012 A 
ATOM     11  C   UNL     1       6.884  -4.186  -9.132  0.00  0.00    +0.009 A 
ATOM     12  C   UNL     1       7.141  -4.127 -10.486  0.00  0.00    +0.004 A 
ATOM     13  C   UNL     1       6.127  -3.819 -11.374  0.00  0.00    +0.045 A 
ATOM     14  C   UNL     1       4.844  -3.567 -10.908  0.00  0.00    +0.117 A 
ATOM     15  C   UNL     1       4.575  -3.630  -9.551  0.00  0.00    +0.054 A 
BRANCH  14  16
ATOM     16  O   UNL     1       3.850  -3.264 -11.784  0.00  0.00    -0.507 OA
ATOM     17  H   UNL     1       3.367  -4.035 -12.113  0.00  0.00    +0.292 HD
ENDBRANCH  14  16
ENDBRANCH   3  10
BRANCH   9  18
ATOM     18  N   UNL     1       6.824  -6.734  -7.639  0.00  0.00    -0.343 N 
ATOM     19  H   UNL     1       6.704  -6.176  -8.424  0.00  0.00    +0.144 HD
ATOM     20  H   UNL     1       7.280  -7.587  -7.715  0.00  0.00    +0.144 HD
ENDBRANCH   9  18
BRANCH   1  21
ATOM     21  C   UNL     1       3.986  -2.723  -4.066  0.00  0.00    +0.118 C 
BRANCH  21  22
ATOM     22  C   UNL     1       2.505  -2.503  -4.381  0.00  0.00    +0.062 C 
BRANCH  22  26
ATOM     23  C   UNL     1       0.606  -0.607  -1.056  0.00  0.00    +0.120 A 
ATOM     24  C   UNL     1       1.173   0.161  -2.062  0.00  0.00    +0.046 A 
ATOM     25  C   UNL     1       1.786  -0.455  -3.136  0.00  0.00    +0.007 A 
ATOM     26  C   UNL     1       1.835  -1.835  -3.209  0.00  0.00    -0.045 A 
ATOM     27  C   UNL     1       1.270  -2.602  -2.207  0.00  0.00    +0.007 A 
ATOM     28  C   UNL     1       0.661  -1.992  -1.128  0.00  0.00    +0.046 A 
BRANCH  23  30
ATOM     29  C   UNL     1      -0.017   1.425   0.010  0.00  0.00    +0.277 C 
ATOM     30  O   UNL     1       0.002  -0.004   0.002  0.00  0.00    -0.495 OA
ENDBRANCH  23  30
ENDBRANCH  22  26
ENDBRANCH  21  22
BRANCH  21  31
ATOM     31  C   UNL     1       4.682  -1.368  -3.921  0.00  0.00    +0.181 C 
BRANCH  31  32
ATOM     32  O   UNL     1       4.152  -0.679  -2.787  0.00  0.00    -0.393 OA
ATOM     33  H   UNL     1       4.549   0.189  -2.633  0.00  0.00    +0.209 HD
ENDBRANCH  31  32
ENDBRANCH  21  31
ENDBRANCH   1  21
TORSDOF 9
