REMARK  Name = CHEMBL536983
REMARK  13 active torsions:
REMARK  status: ('A' for Active; 'I' for Inactive)
REMARK    1  A    between atoms: C_1  and  C_2
REMARK    2  A    between atoms: C_5  and  N_21
REMARK    3  A    between atoms: C_7  and  N_8
REMARK    4  A    between atoms: C_13  and  C_15
REMARK    5  A    between atoms: N_21  and  C_22
REMARK    6  A    between atoms: C_22  and  C_23
REMARK    7  A    between atoms: C_22  and  O_41
REMARK    8  A    between atoms: C_26  and  C_33
REMARK    9  A    between atoms: C_27  and  C_29
REMARK   10  A    between atoms: C_33  and  N_34
REMARK   11  A    between atoms: C_36  and  N_38
REMARK   12  A    between atoms: N_38  and  C_39
REMARK   13  A    between atoms: N_38  and  C_40
REMARK                            x       y       z     vdW  Elec       q    Type
REMARK                         _______ _______ _______ _____ _____    ______ ____
ROOT
ATOM      1  N   UNL     1       0.861  -4.347   0.454  0.00  0.00    -0.316 N 
ATOM      2  H   UNL     1       1.022  -4.705   1.340  0.00  0.00    +0.149 HD
ENDROOT
BRANCH   1   7
ATOM      3  C   UNL     1      -0.761   1.054  -0.187  0.00  0.00    +0.045 C 
ATOM      4  C   UNL     1      -0.331  -0.380  -0.015  0.00  0.00    -0.029 A 
ATOM      5  C   UNL     1      -0.023  -1.146  -1.124  0.00  0.00    +0.007 A 
ATOM      6  C   UNL     1       0.372  -2.460  -0.971  0.00  0.00    +0.023 A 
ATOM      7  C   UNL     1       0.462  -3.017   0.300  0.00  0.00    +0.031 A 
ATOM      8  C   UNL     1       0.153  -2.251   1.415  0.00  0.00    +0.046 A 
ATOM      9  C   UNL     1      -0.238  -0.929   1.258  0.00  0.00    +0.038 A 
BRANCH   9  10
ATOM     10  N   UNL     1      -0.543  -0.151   2.379  0.00  0.00    -0.283 N 
ATOM     11  C   UNL     1      -1.064  -0.749   3.515  0.00  0.00    +0.220 A 
ATOM     12  N   UNL     1      -1.373  -2.038   3.483  0.00  0.00    -0.223 NA
ATOM     13  C   UNL     1      -1.873  -2.645   4.547  0.00  0.00    +0.116 A 
ATOM     14  C   UNL     1      -2.075  -1.919   5.708  0.00  0.00    +0.048 A 
ATOM     15  C   UNL     1      -1.740  -0.563   5.712  0.00  0.00    +0.079 A 
ATOM     16  N   UNL     1      -1.236  -0.020   4.606  0.00  0.00    -0.214 NA
ATOM     17  H   UNL     1      -0.390   0.806   2.361  0.00  0.00    +0.155 HD
BRANCH  15  18
ATOM     18  C   UNL     1      -1.937   0.258   6.931  0.00  0.00    +0.037 A 
ATOM     19  C   UNL     1      -2.455  -0.306   8.101  0.00  0.00    +0.124 A 
ATOM     20  N   UNL     1      -2.614   0.462   9.165  0.00  0.00    -0.243 NA
ATOM     21  C   UNL     1      -2.293   1.740   9.133  0.00  0.00    +0.221 A 
ATOM     22  N   UNL     1      -1.802   2.311   8.051  0.00  0.00    -0.243 NA
ATOM     23  C   UNL     1      -1.606   1.615   6.944  0.00  0.00    +0.124 A 
ENDBRANCH  15  18
ENDBRANCH   9  10
ENDBRANCH   1   7
BRANCH   1  24
ATOM     24  C   UNL     1       1.035  -5.200  -0.724  0.00  0.00    +0.232 C 
BRANCH  24  25
ATOM     25  C   UNL     1       0.641  -6.614  -0.383  0.00  0.00    -0.001 A 
ATOM     26  C   UNL     1       0.790  -7.081   0.910  0.00  0.00    +0.008 A 
ATOM     27  C   UNL     1       0.428  -8.377   1.223  0.00  0.00    +0.003 A 
ATOM     28  C   UNL     1      -0.084  -9.208   0.243  0.00  0.00    -0.052 A 
ATOM     29  C   UNL     1      -0.234  -8.741  -1.049  0.00  0.00    +0.057 A 
ATOM     30  C   UNL     1       0.124  -7.443  -1.361  0.00  0.00    +0.020 A 
BRANCH  29  31
ATOM     31  C   UNL     1      -0.792  -9.646  -2.117  0.00  0.00    +0.418 C 
ATOM     32  F   UNL     1      -0.760  -8.987  -3.350  0.00  0.00    -0.166 F 
ATOM     33  F   UNL     1      -0.020 -10.811  -2.191  0.00  0.00    -0.166 F 
ATOM     34  F   UNL     1      -2.113  -9.982  -1.801  0.00  0.00    -0.166 F 
ENDBRANCH  29  31
BRANCH  28  35
ATOM     35  C   UNL     1      -0.478 -10.622   0.584  0.00  0.00    -0.043 C 
BRANCH  35  36
ATOM     36  N   UNL     1      -0.341 -10.833   2.032  0.00  0.00    +0.380 N 
ATOM     37  C   UNL     1       1.016 -11.240   2.440  0.00  0.00    -0.096 C 
ATOM     38  C   UNL     1       0.366 -12.183   3.462  0.00  0.00    -0.104 C 
ATOM     39  C   UNL     1      -0.813 -12.157   2.478  0.00  0.00    -0.096 C 
ATOM     40  H   UNL     1      -0.713 -10.069   2.577  0.00  0.00    -0.082 HD
BRANCH  38  41
ATOM     41  N   UNL     1       0.080 -11.557   4.760  0.00  0.00    +0.375 N 
ATOM     42  C   UNL     1      -0.538 -12.545   5.655  0.00  0.00    -0.096 C 
ATOM     43  C   UNL     1       1.331 -11.071   5.356  0.00  0.00    -0.096 C 
ATOM     44  H   UNL     1      -0.553 -10.781   4.628  0.00  0.00    -0.082 HD
ENDBRANCH  38  41
ENDBRANCH  35  36
ENDBRANCH  28  35
ENDBRANCH  24  25
BRANCH  24  45
ATOM     45  O   UNL     1       2.404  -5.174  -1.133  0.00  0.00    -0.370 OA
ATOM     46  H   UNL     1       3.022  -5.488  -0.459  0.00  0.00    +0.212 HD
ENDBRANCH  24  45
ENDBRANCH   1  24
TORSDOF 10
