REMARK  Name = CHEMBL538337
REMARK  14 active torsions:
REMARK  status: ('A' for Active; 'I' for Inactive)
REMARK    1  A    between atoms: C_1  and  C_2
REMARK    2  A    between atoms: C_5  and  N_21
REMARK    3  A    between atoms: C_7  and  N_8
REMARK    4  A    between atoms: C_13  and  C_15
REMARK    5  A    between atoms: N_21  and  C_22
REMARK    6  A    between atoms: C_22  and  C_23
REMARK    7  A    between atoms: C_22  and  O_44
REMARK    8  A    between atoms: C_26  and  C_33
REMARK    9  A    between atoms: C_27  and  C_29
REMARK   10  A    between atoms: C_33  and  N_34
REMARK   11  A    between atoms: C_37  and  C_40
REMARK   12  A    between atoms: C_40  and  N_41
REMARK   13  A    between atoms: N_41  and  C_42
REMARK   14  A    between atoms: N_41  and  C_43
REMARK                            x       y       z     vdW  Elec       q    Type
REMARK                         _______ _______ _______ _____ _____    ______ ____
ROOT
ATOM      1  C   UNL     1       1.686  -5.172   0.146  0.00  0.00    +0.232 C 
ENDROOT
BRANCH   1   2
ATOM      2  C   UNL     1       1.135  -6.569   0.011  0.00  0.00    -0.001 A 
ATOM      3  C   UNL     1       0.907  -7.333   1.141  0.00  0.00    +0.008 A 
ATOM      4  C   UNL     1       0.402  -8.614   1.018  0.00  0.00    +0.003 A 
ATOM      5  C   UNL     1       0.125  -9.130  -0.235  0.00  0.00    -0.052 A 
ATOM      6  C   UNL     1       0.352  -8.366  -1.363  0.00  0.00    +0.057 A 
ATOM      7  C   UNL     1       0.853  -7.083  -1.240  0.00  0.00    +0.020 A 
BRANCH   6   8
ATOM      8  C   UNL     1       0.050  -8.929  -2.728  0.00  0.00    +0.418 C 
ATOM      9  F   UNL     1       0.408  -7.996  -3.707  0.00  0.00    -0.166 F 
ATOM     10  F   UNL     1       0.781 -10.107  -2.918  0.00  0.00    -0.166 F 
ATOM     11  F   UNL     1      -1.317  -9.207  -2.826  0.00  0.00    -0.166 F 
ENDBRANCH   6   8
BRANCH   5  12
ATOM     12  C   UNL     1      -0.425 -10.527  -0.369  0.00  0.00    -0.042 C 
BRANCH  12  13
ATOM     13  N   UNL     1      -0.418 -11.184   0.945  0.00  0.00    +0.383 N 
ATOM     14  C   UNL     1       0.976 -11.448   1.387  0.00  0.00    -0.078 C 
ATOM     15  C   UNL     1       0.847 -12.584   2.424  0.00  0.00    -0.019 C 
ATOM     16  C   UNL     1      -0.475 -13.299   2.073  0.00  0.00    -0.046 C 
ATOM     17  C   UNL     1      -1.034 -12.533   0.854  0.00  0.00    -0.077 C 
ATOM     18  H   UNL     1      -0.905 -10.619   1.625  0.00  0.00    -0.081 HD
BRANCH  16  19
ATOM     19  C   UNL     1      -0.209 -14.761   1.710  0.00  0.00    -0.078 C 
BRANCH  19  20
ATOM     20  N   UNL     1       0.273 -15.480   2.896  0.00  0.00    +0.376 N 
ATOM     21  C   UNL     1      -0.790 -15.520   3.910  0.00  0.00    -0.097 C 
ATOM     22  C   UNL     1       0.642 -16.852   2.520  0.00  0.00    -0.097 C 
ATOM     23  H   UNL     1       1.080 -15.006   3.273  0.00  0.00    -0.083 HD
ENDBRANCH  19  20
ENDBRANCH  16  19
ENDBRANCH  12  13
ENDBRANCH   5  12
ENDBRANCH   1   2
BRANCH   1  24
ATOM     24  N   UNL     1       1.251  -4.596   1.421  0.00  0.00    -0.316 N 
ATOM     25  H   UNL     1       1.148  -5.165   2.200  0.00  0.00    +0.149 HD
BRANCH  24  30
ATOM     26  C   UNL     1       0.173   0.964   1.786  0.00  0.00    +0.045 C 
ATOM     27  C   UNL     1       0.459  -0.513   1.691  0.00  0.00    -0.029 A 
ATOM     28  C   UNL     1       1.010  -1.036   0.537  0.00  0.00    +0.007 A 
ATOM     29  C   UNL     1       1.274  -2.389   0.445  0.00  0.00    +0.023 A 
ATOM     30  C   UNL     1       0.985  -3.228   1.514  0.00  0.00    +0.031 A 
ATOM     31  C   UNL     1       0.431  -2.707   2.674  0.00  0.00    +0.046 A 
ATOM     32  C   UNL     1       0.173  -1.346   2.765  0.00  0.00    +0.038 A 
BRANCH  32  33
ATOM     33  N   UNL     1      -0.380  -0.815   3.935  0.00  0.00    -0.283 N 
ATOM     34  C   UNL     1      -1.216  -1.591   4.720  0.00  0.00    +0.220 A 
ATOM     35  N   UNL     1      -1.575  -2.793   4.290  0.00  0.00    -0.223 NA
ATOM     36  C   UNL     1      -2.372  -3.564   5.011  0.00  0.00    +0.116 A 
ATOM     37  C   UNL     1      -2.836  -3.106   6.231  0.00  0.00    +0.048 A 
ATOM     38  C   UNL     1      -2.441  -1.835   6.659  0.00  0.00    +0.079 A 
ATOM     39  N   UNL     1      -1.632  -1.116   5.883  0.00  0.00    -0.214 NA
ATOM     40  H   UNL     1      -0.177   0.097   4.196  0.00  0.00    +0.155 HD
BRANCH  38  41
ATOM     41  C   UNL     1      -2.911  -1.298   7.959  0.00  0.00    +0.037 A 
ATOM     42  C   UNL     1      -3.751  -2.050   8.785  0.00  0.00    +0.124 A 
ATOM     43  N   UNL     1      -4.146  -1.534   9.936  0.00  0.00    -0.243 NA
ATOM     44  C   UNL     1      -3.759  -0.330  10.307  0.00  0.00    +0.221 A 
ATOM     45  N   UNL     1      -2.967   0.413   9.558  0.00  0.00    -0.243 NA
ATOM     46  C   UNL     1      -2.522  -0.029   8.395  0.00  0.00    +0.124 A 
ENDBRANCH  38  41
ENDBRANCH  32  33
ENDBRANCH  24  30
ENDBRANCH   1  24
BRANCH   1  47
ATOM     47  O   UNL     1       3.114  -5.217   0.105  0.00  0.00    -0.370 OA
ATOM     48  H   UNL     1       3.510  -5.749   0.809  0.00  0.00    +0.212 HD
ENDBRANCH   1  47
TORSDOF 11
