REMARK  Name = CHEMBL1077317
REMARK  10 active torsions:
REMARK  status: ('A' for Active; 'I' for Inactive)
REMARK    1  A    between atoms: C_1  and  C_2
REMARK    2  A    between atoms: C_5  and  C_23
REMARK    3  A    between atoms: C_7  and  C_8
REMARK    4  A    between atoms: C_9  and  N_10
REMARK    5  A    between atoms: C_18  and  N_19
REMARK    6  A    between atoms: N_19  and  C_20
REMARK    7  A    between atoms: N_25  and  C_26
REMARK    8  A    between atoms: C_28  and  C_38
REMARK    9  A    between atoms: C_30  and  N_32
REMARK   10  A    between atoms: C_34  and  C_37
REMARK                            x       y       z     vdW  Elec       q    Type
REMARK                         _______ _______ _______ _____ _____    ______ ____
ROOT
ATOM      1  C   UNL     1       0.568   0.583   0.866  0.00  0.00    +0.044 C 
ATOM      2  C   UNL     1      -0.221  -0.699   0.930  0.00  0.00    -0.043 A 
ATOM      3  C   UNL     1      -1.286  -0.896   0.074  0.00  0.00    +0.004 A 
ATOM      4  C   UNL     1      -2.014  -2.068   0.126  0.00  0.00    +0.013 A 
ATOM      5  C   UNL     1      -1.677  -3.064   1.046  0.00  0.00    +0.038 A 
ATOM      6  C   UNL     1      -0.604  -2.873   1.912  0.00  0.00    +0.021 A 
ATOM      7  C   UNL     1       0.131  -1.689   1.851  0.00  0.00    -0.020 A 
ENDROOT
BRANCH   5   8
ATOM      8  C   UNL     1      -2.459  -4.318   1.100  0.00  0.00    +0.248 C 
ATOM      9  O   UNL     1      -2.103  -5.225   1.827  0.00  0.00    -0.270 OA
ATOM     10  N   UNL     1      -3.565  -4.455   0.343  0.00  0.00    -0.281 N 
ATOM     11  H   UNL     1      -3.792  -3.777  -0.313  0.00  0.00    +0.155 HD
BRANCH  10  12
ATOM     12  C   UNL     1      -4.387  -5.575   0.502  0.00  0.00    +0.036 A 
ATOM     13  C   UNL     1      -4.544  -6.149   1.758  0.00  0.00    +0.035 A 
ATOM     14  C   UNL     1      -5.355  -7.256   1.916  0.00  0.00    +0.059 A 
ATOM     15  C   UNL     1      -6.014  -7.795   0.827  0.00  0.00    +0.038 A 
ATOM     16  C   UNL     1      -5.861  -7.226  -0.430  0.00  0.00    +0.050 A 
ATOM     17  C   UNL     1      -5.052  -6.111  -0.592  0.00  0.00    +0.049 A 
BRANCH  16  18
ATOM     18  N   UNL     1      -6.529  -7.774  -1.534  0.00  0.00    -0.306 N 
ATOM     19  C   UNL     1      -6.470  -7.324  -2.828  0.00  0.00    +0.115 A 
ATOM     20  C   UNL     1      -7.258  -8.136  -3.559  0.00  0.00    +0.056 A 
ATOM     21  N   UNL     1      -7.785  -9.057  -2.740  0.00  0.00    -0.241 NA
ATOM     22  C   UNL     1      -7.353  -8.854  -1.525  0.00  0.00    +0.204 A 
ATOM     23  C   UNL     1      -7.503  -8.027  -5.042  0.00  0.00    +0.067 C 
ENDBRANCH  16  18
BRANCH  14  24
ATOM     24  C   UNL     1      -5.523  -7.877   3.279  0.00  0.00    +0.418 C 
ATOM     25  F   UNL     1      -4.859  -7.097   4.232  0.00  0.00    -0.166 F 
ATOM     26  F   UNL     1      -6.883  -7.945   3.597  0.00  0.00    -0.166 F 
ATOM     27  F   UNL     1      -4.980  -9.167   3.273  0.00  0.00    -0.166 F 
ENDBRANCH  14  24
ENDBRANCH  10  12
ENDBRANCH   5   8
BRANCH   7  28
ATOM     28  C   UNL     1       1.274  -1.481   2.760  0.00  0.00    +0.023 C 
ATOM     29  C   UNL     1       1.858  -2.528   3.352  0.00  0.00    +0.079 C 
BRANCH  29  30
ATOM     30  N   UNL     1       1.940  -3.740   2.688  0.00  0.00    -0.274 N 
ATOM     31  C   UNL     1       2.380  -5.017   3.265  0.00  0.00    +0.216 C 
ATOM     32  N   UNL     1       2.291  -5.997   2.175  0.00  0.00    -0.323 N 
ATOM     33  C   UNL     1       1.827  -5.311   1.043  0.00  0.00    +0.109 A 
ATOM     34  C   UNL     1       1.614  -3.972   1.357  0.00  0.00    +0.153 A 
ATOM     35  N   UNL     1       1.163  -3.152   0.407  0.00  0.00    -0.218 NA
ATOM     36  C   UNL     1       0.918  -3.596  -0.809  0.00  0.00    +0.225 A 
ATOM     37  N   UNL     1       1.103  -4.857  -1.145  0.00  0.00    -0.219 NA
ATOM     38  C   UNL     1       1.560  -5.739  -0.259  0.00  0.00    +0.145 A 
ATOM     39  H   UNL     1       2.513  -6.940   2.227  0.00  0.00    +0.148 HD
BRANCH  38  40
ATOM     40  N   UNL     1       1.751  -7.068  -0.619  0.00  0.00    -0.325 N 
ATOM     41  H   UNL     1       2.001  -7.721   0.053  0.00  0.00    +0.148 HD
BRANCH  40  42
ATOM     42  C   UNL     1       1.576  -7.482  -2.013  0.00  0.00    +0.072 C 
ATOM     43  C   UNL     1       2.586  -8.477  -2.587  0.00  0.00    +0.024 C 
ATOM     44  C   UNL     1       1.159  -8.931  -2.273  0.00  0.00    +0.024 C 
ENDBRANCH  40  42
ENDBRANCH  38  40
ENDBRANCH  29  30
ENDBRANCH   7  28
TORSDOF 8
