REMARK  Name = CHEMBL256101
REMARK  7 active torsions:
REMARK  status: ('A' for Active; 'I' for Inactive)
REMARK    1  A    between atoms: C_1  and  C_2
REMARK    2  A    between atoms: C_4  and  C_28
REMARK    3  A    between atoms: N_12  and  C_13
REMARK    4  A    between atoms: C_16  and  O_19
REMARK    5  A    between atoms: O_19  and  C_20
REMARK    6  A    between atoms: C_20  and  C_21
REMARK    7  A    between atoms: C_21  and  N_22
REMARK                            x       y       z     vdW  Elec       q    Type
REMARK                         _______ _______ _______ _____ _____    ______ ____
ROOT
ATOM      1  C   UNL     1      -0.079   1.315  -0.051  0.00  0.00    +0.046 C 
ATOM      2  C   UNL     1      -0.973   0.113   0.119  0.00  0.00    -0.022 A 
ATOM      3  C   UNL     1      -1.645  -0.391  -0.950  0.00  0.00    +0.014 A 
ATOM      4  C   UNL     1      -2.482  -1.510  -0.812  0.00  0.00    -0.013 A 
ATOM      5  C   UNL     1      -2.641  -2.124   0.417  0.00  0.00    +0.040 A 
ATOM      6  C   UNL     1      -1.956  -1.620   1.532  0.00  0.00    +0.112 A 
ATOM      7  C   UNL     1      -1.107  -0.491   1.379  0.00  0.00    +0.097 A 
ATOM      8  N   UNL     1      -0.458  -0.027   2.453  0.00  0.00    -0.211 NA
ATOM      9  C   UNL     1      -0.622  -0.634   3.615  0.00  0.00    +0.240 A 
ATOM     10  N   UNL     1      -1.419  -1.698   3.740  0.00  0.00    -0.112 NA
ATOM     11  N   UNL     1      -2.078  -2.179   2.742  0.00  0.00    -0.144 NA
ATOM     12  N   UNL     1       0.048  -0.157   4.728  0.00  0.00    -0.282 N 
ATOM     13  H   UNL     1       0.566   0.661   4.669  0.00  0.00    +0.155 HD
ENDROOT
BRANCH   4  14
ATOM     14  C   UNL     1      -3.204  -2.038  -1.995  0.00  0.00    +0.019 A 
ATOM     15  C   UNL     1      -4.176  -1.262  -2.627  0.00  0.00    +0.050 A 
ATOM     16  C   UNL     1      -4.844  -1.760  -3.728  0.00  0.00    +0.021 A 
ATOM     17  C   UNL     1      -4.551  -3.025  -4.205  0.00  0.00    +0.003 A 
ATOM     18  C   UNL     1      -3.588  -3.799  -3.584  0.00  0.00    +0.021 A 
ATOM     19  C   UNL     1      -2.909  -3.310  -2.485  0.00  0.00    +0.050 A 
ATOM     20 CL   UNL     1      -1.695  -4.281  -1.711  0.00  0.00    -0.083 Cl
ATOM     21 CL   UNL     1      -4.545   0.325  -2.029  0.00  0.00    -0.083 Cl
ENDBRANCH   4  14
BRANCH  12  22
ATOM     22  C   UNL     1      -0.022  -0.855   5.940  0.00  0.00    +0.034 A 
ATOM     23  C   UNL     1       0.008  -2.243   5.944  0.00  0.00    +0.027 A 
ATOM     24  C   UNL     1      -0.061  -2.931   7.140  0.00  0.00    +0.047 A 
ATOM     25  C   UNL     1      -0.161  -2.235   8.336  0.00  0.00    +0.121 A 
ATOM     26  C   UNL     1      -0.192  -0.848   8.332  0.00  0.00    +0.047 A 
ATOM     27  C   UNL     1      -0.116  -0.159   7.138  0.00  0.00    +0.027 A 
BRANCH  25  28
ATOM     28  O   UNL     1      -0.230  -2.913   9.513  0.00  0.00    -0.494 OA
BRANCH  28  29
ATOM     29  C   UNL     1      -0.332  -2.133  10.706  0.00  0.00    +0.216 C 
BRANCH  29  30
ATOM     30  C   UNL     1      -0.398  -3.063  11.919  0.00  0.00    +0.013 C 
BRANCH  30  31
ATOM     31  N   UNL     1       0.869  -3.798  12.042  0.00  0.00    +0.424 N 
ATOM     32  O   UNL     1       1.957  -2.861  12.321  0.00  0.00    -0.292 OA
ATOM     33  C   UNL     1       1.149  -4.521  10.783  0.00  0.00    -0.028 C 
ATOM     34  C   UNL     1       1.812  -5.848  11.229  0.00  0.00    -0.015 C 
ATOM     35  C   UNL     1       1.021  -6.175  12.523  0.00  0.00    -0.015 C 
ATOM     36  C   UNL     1       0.767  -4.781  13.136  0.00  0.00    -0.028 C 
ENDBRANCH  30  31
ENDBRANCH  29  30
ENDBRANCH  28  29
ENDBRANCH  25  28
ENDBRANCH  12  22
TORSDOF 6
