REMARK  Name = CHEMBL1077317
REMARK  10 active torsions:
REMARK  status: ('A' for Active; 'I' for Inactive)
REMARK    1  A    between atoms: C_1  and  C_2
REMARK    2  A    between atoms: C_5  and  C_23
REMARK    3  A    between atoms: C_7  and  C_8
REMARK    4  A    between atoms: C_9  and  N_10
REMARK    5  A    between atoms: C_18  and  N_19
REMARK    6  A    between atoms: N_19  and  C_20
REMARK    7  A    between atoms: N_25  and  C_26
REMARK    8  A    between atoms: C_28  and  C_38
REMARK    9  A    between atoms: C_30  and  N_32
REMARK   10  A    between atoms: C_34  and  C_37
REMARK                            x       y       z     vdW  Elec       q    Type
REMARK                         _______ _______ _______ _____ _____    ______ ____
ROOT
ATOM      1  C   UNL     1      -0.049   1.502   0.010  0.00  0.00    +0.044 C 
ATOM      2  C   UNL     1      -0.020  -0.004   0.002  0.00  0.00    -0.043 A 
ATOM      3  C   UNL     1      -0.018  -0.687  -1.199  0.00  0.00    +0.004 A 
ATOM      4  C   UNL     1       0.008  -2.067  -1.216  0.00  0.00    +0.013 A 
ATOM      5  C   UNL     1       0.034  -2.783  -0.016  0.00  0.00    +0.038 A 
ATOM      6  C   UNL     1       0.032  -2.102   1.199  0.00  0.00    +0.021 A 
ATOM      7  C   UNL     1       0.011  -0.708   1.209  0.00  0.00    -0.020 A 
ENDROOT
BRANCH   5   8
ATOM      8  C   UNL     1       0.061  -4.261  -0.037  0.00  0.00    +0.248 C 
ATOM      9  O   UNL     1       0.083  -4.883   1.008  0.00  0.00    -0.270 OA
ATOM     10  N   UNL     1       0.062  -4.919  -1.213  0.00  0.00    -0.281 N 
ATOM     11  H   UNL     1      -0.023  -4.426  -2.044  0.00  0.00    +0.155 HD
BRANCH  10  12
ATOM     12  C   UNL     1       0.186  -6.312  -1.235  0.00  0.00    +0.036 A 
ATOM     13  C   UNL     1       0.891  -6.931  -2.260  0.00  0.00    +0.035 A 
ATOM     14  C   UNL     1       1.013  -8.307  -2.283  0.00  0.00    +0.059 A 
ATOM     15  C   UNL     1       0.436  -9.071  -1.287  0.00  0.00    +0.038 A 
ATOM     16  C   UNL     1      -0.270  -8.458  -0.260  0.00  0.00    +0.050 A 
ATOM     17  C   UNL     1      -0.390  -7.077  -0.231  0.00  0.00    +0.049 A 
BRANCH  16  18
ATOM     18  N   UNL     1      -0.856  -9.235   0.750  0.00  0.00    -0.307 N 
ATOM     19  C   UNL     1      -1.581  -8.772   1.817  0.00  0.00    +0.113 A 
ATOM     20  C   UNL     1      -1.954  -9.850   2.533  0.00  0.00    +0.031 A 
ATOM     21  N   UNL     1      -1.472 -10.943   1.925  0.00  0.00    -0.350 N 
ATOM     22  C   UNL     1      -0.817 -10.589   0.853  0.00  0.00    +0.178 A 
ATOM     23  C   UNL     1      -2.771  -9.830   3.799  0.00  0.00    +0.065 C 
ATOM     24  H   UNL     1      -1.594 -11.855   2.231  0.00  0.00    +0.166 HD
ENDBRANCH  16  18
BRANCH  14  25
ATOM     25  C   UNL     1       1.778  -8.976  -3.396  0.00  0.00    +0.418 C 
ATOM     26  F   UNL     1       2.265  -8.004  -4.277  0.00  0.00    -0.166 F 
ATOM     27  F   UNL     1       2.849  -9.697  -2.858  0.00  0.00    -0.166 F 
ATOM     28  F   UNL     1       0.929  -9.847  -4.087  0.00  0.00    -0.166 F 
ENDBRANCH  14  25
ENDBRANCH  10  12
ENDBRANCH   5   8
BRANCH   7  29
ATOM     29  C   UNL     1       0.016   0.023   2.490  0.00  0.00    +0.023 C 
ATOM     30  C   UNL     1       0.046  -0.651   3.644  0.00  0.00    +0.079 C 
BRANCH  30  31
ATOM     31  N   UNL     1       0.050   0.034   4.847  0.00  0.00    -0.274 N 
ATOM     32  C   UNL     1       0.087  -0.565   6.187  0.00  0.00    +0.216 C 
ATOM     33  N   UNL     1       0.077   0.564   7.127  0.00  0.00    -0.323 N 
ATOM     34  C   UNL     1       0.037   1.736   6.359  0.00  0.00    +0.109 A 
ATOM     35  C   UNL     1       0.027   1.415   5.005  0.00  0.00    +0.153 A 
ATOM     36  N   UNL     1      -0.004   2.402   4.110  0.00  0.00    -0.218 NA
ATOM     37  C   UNL     1      -0.022   3.662   4.493  0.00  0.00    +0.225 A 
ATOM     38  N   UNL     1      -0.010   4.008   5.764  0.00  0.00    -0.219 NA
ATOM     39  C   UNL     1       0.011   3.084   6.723  0.00  0.00    +0.145 A 
ATOM     40  H   UNL     1       0.095   0.508   8.095  0.00  0.00    +0.148 HD
BRANCH  39  41
ATOM     41  N   UNL     1       0.025   3.456   8.062  0.00  0.00    -0.325 N 
ATOM     42  H   UNL     1       0.053   2.776   8.753  0.00  0.00    +0.148 HD
BRANCH  41  43
ATOM     43  C   UNL     1      -0.003   4.874   8.429  0.00  0.00    +0.072 C 
ATOM     44  C   UNL     1      -0.929   5.289   9.573  0.00  0.00    +0.024 C 
ATOM     45  C   UNL     1       0.585   5.263   9.787  0.00  0.00    +0.024 C 
ENDBRANCH  41  43
ENDBRANCH  39  41
ENDBRANCH  30  31
ENDBRANCH   7  29
TORSDOF 8
