REMARK  Name = CHEMBL230178
REMARK  10 active torsions:
REMARK  status: ('A' for Active; 'I' for Inactive)
REMARK    1  A    between atoms: C_1  and  C_2
REMARK    2  A    between atoms: C_5  and  N_21
REMARK    3  A    between atoms: C_7  and  N_8
REMARK    4  A    between atoms: C_13  and  C_15
REMARK    5  A    between atoms: C_22  and  C_24
REMARK    6  A    between atoms: C_27  and  N_34
REMARK    7  A    between atoms: C_28  and  C_30
REMARK    8  A    between atoms: N_35  and  N_36
REMARK    9  A    between atoms: N_36  and  C_37
REMARK   10  A    between atoms: N_36  and  C_38
REMARK                            x       y       z     vdW  Elec       q    Type
REMARK                         _______ _______ _______ _____ _____    ______ ____
ROOT
ATOM      1  C   UNL     1      -6.799  -3.129   4.061  0.00  0.00    +0.045 C 
ATOM      2  C   UNL     1      -6.011  -4.383   3.784  0.00  0.00    -0.029 A 
ATOM      3  C   UNL     1      -4.764  -4.298   3.193  0.00  0.00    +0.007 A 
ATOM      4  C   UNL     1      -4.039  -5.445   2.936  0.00  0.00    +0.024 A 
ATOM      5  C   UNL     1      -4.561  -6.689   3.272  0.00  0.00    +0.035 A 
ATOM      6  C   UNL     1      -5.811  -6.778   3.865  0.00  0.00    +0.047 A 
ATOM      7  C   UNL     1      -6.535  -5.623   4.127  0.00  0.00    +0.038 A 
ENDROOT
BRANCH   7   8
ATOM      8  N   UNL     1      -7.794  -5.708   4.730  0.00  0.00    -0.283 N 
ATOM      9  C   UNL     1      -8.611  -6.798   4.478  0.00  0.00    +0.220 A 
ATOM     10  N   UNL     1      -8.233  -7.693   3.577  0.00  0.00    -0.223 NA
ATOM     11  C   UNL     1      -8.985  -8.749   3.308  0.00  0.00    +0.116 A 
ATOM     12  C   UNL     1     -10.183  -8.915   3.981  0.00  0.00    +0.048 A 
ATOM     13  C   UNL     1     -10.555  -7.955   4.925  0.00  0.00    +0.077 A 
ATOM     14  N   UNL     1      -9.745  -6.922   5.148  0.00  0.00    -0.214 NA
ATOM     15  H   UNL     1      -8.095  -5.003   5.324  0.00  0.00    +0.155 HD
BRANCH  13  16
ATOM     16  C   UNL     1     -11.829  -8.088   5.673  0.00  0.00    +0.019 A 
ATOM     17  C   UNL     1     -12.255  -7.075   6.537  0.00  0.00    +0.013 A 
ATOM     18  C   UNL     1     -13.451  -7.247   7.211  0.00  0.00    +0.020 A 
ATOM     19  C   UNL     1     -14.180  -8.406   7.010  0.00  0.00    +0.111 A 
ATOM     20  N   UNL     1     -13.752  -9.345   6.188  0.00  0.00    -0.263 NA
ATOM     21  C   UNL     1     -12.623  -9.223   5.521  0.00  0.00    +0.120 A 
ENDBRANCH  13  16
ENDBRANCH   7   8
BRANCH   5  22
ATOM     22  N   UNL     1      -3.826  -7.850   3.010  0.00  0.00    -0.281 N 
ATOM     23  C   UNL     1      -3.020  -7.909   1.932  0.00  0.00    +0.248 C 
ATOM     24  O   UNL     1      -3.013  -6.997   1.127  0.00  0.00    -0.270 OA
ATOM     25  H   UNL     1      -3.896  -8.613   3.606  0.00  0.00    +0.155 HD
BRANCH  23  26
ATOM     26  C   UNL     1      -2.146  -9.080   1.727  0.00  0.00    +0.038 A 
ATOM     27  C   UNL     1      -2.158 -10.131   2.649  0.00  0.00    +0.015 A 
ATOM     28  C   UNL     1      -1.349 -11.216   2.459  0.00  0.00    +0.031 A 
ATOM     29  C   UNL     1      -0.509 -11.274   1.343  0.00  0.00    +0.099 A 
ATOM     30  C   UNL     1      -0.497 -10.223   0.422  0.00  0.00    +0.083 A 
ATOM     31  C   UNL     1      -1.310  -9.142   0.608  0.00  0.00    +0.027 A 
BRANCH  30  32
ATOM     32  C   UNL     1       0.409 -10.287  -0.781  0.00  0.00    +0.419 C 
ATOM     33  F   UNL     1       0.245  -9.129  -1.550  0.00  0.00    -0.166 F 
ATOM     34  F   UNL     1       1.739 -10.381  -0.358  0.00  0.00    -0.166 F 
ATOM     35  F   UNL     1       0.084 -11.408  -1.552  0.00  0.00    -0.166 F 
ENDBRANCH  30  32
BRANCH  29  36
ATOM     36  N   UNL     1       0.302 -12.361   1.153  0.00  0.00    -0.133 NA
ATOM     37  N   UNL     1       0.966 -12.851   2.144  0.00  0.00    -0.079 NA
BRANCH  37  38
ATOM     38  N   UNL     1       1.402 -12.012   3.178  0.00  0.00    -0.243 N 
ATOM     39  C   UNL     1       1.267 -10.559   3.049  0.00  0.00    +0.153 C 
ATOM     40  C   UNL     1       1.994 -12.588   4.388  0.00  0.00    +0.153 C 
ENDBRANCH  37  38
ENDBRANCH  29  36
ENDBRANCH  23  26
ENDBRANCH   5  22
TORSDOF 7
