REMARK  Name = CHEMBL518031
REMARK  5 active torsions:
REMARK  status: ('A' for Active; 'I' for Inactive)
REMARK    1  A    between atoms: C_11  and  C_12
REMARK    2  A    between atoms: C_15  and  C_17
REMARK    3  A    between atoms: C_18  and  C_19
REMARK    4  A    between atoms: N_21  and  C_22
REMARK    5  A    between atoms: C_25  and  N_28
REMARK                            x       y       z     vdW  Elec       q    Type
REMARK                         _______ _______ _______ _____ _____    ______ ____
ROOT
ATOM      1  C   UNL     1       5.769  -1.516   1.442  0.00  0.00    +0.016 A 
ATOM      2  C   UNL     1       6.921  -1.788   2.179  0.00  0.00    +0.016 A 
ATOM      3  C   UNL     1       7.876  -0.822   2.279  0.00  0.00    +0.016 A 
ATOM      4  C   UNL     1       7.663   0.398   1.640  0.00  0.00    +0.013 A 
ATOM      5  S   UNL     1       6.068   0.151   0.878  0.00  0.00    -0.089 S 
ENDROOT
BRANCH   1  16
ATOM      6  C   UNL     1       0.003   1.339  -0.116  0.00  0.00    +0.002 A 
ATOM      7  C   UNL     1       1.185   2.057  -0.107  0.00  0.00    +0.004 A 
ATOM      8  C   UNL     1       2.400   1.397  -0.102  0.00  0.00    +0.048 A 
ATOM      9  C   UNL     1       2.433   0.012  -0.105  0.00  0.00    +0.150 A 
ATOM     10  C   UNL     1       1.242  -0.713  -0.113  0.00  0.00    +0.077 A 
ATOM     11  C   UNL     1       0.028  -0.042  -0.119  0.00  0.00    +0.027 A 
ATOM     12  N   UNL     1       1.271  -2.113  -0.113  0.00  0.00    -0.276 N 
ATOM     13  C   UNL     1       2.438  -2.742   0.166  0.00  0.00    +0.284 C 
ATOM     14  O   UNL     1       2.510  -3.957   0.188  0.00  0.00    -0.266 OA
ATOM     15  C   UNL     1       3.619  -1.899   0.440  0.00  0.00    +0.191 C 
ATOM     16  C   UNL     1       4.651  -2.351   1.198  0.00  0.00    +0.066 C 
ATOM     17  O   UNL     1       3.627  -0.644  -0.102  0.00  0.00    -0.449 OA
ATOM     18  H   UNL     1       0.469  -2.623  -0.309  0.00  0.00    +0.155 HD
ENDBRANCH   1  16
BRANCH   4  19
ATOM     19  C   UNL     1       8.499   1.538   1.601  0.00  0.00    +0.020 C 
ATOM     20  C   UNL     1       8.109   2.643   0.916  0.00  0.00    +0.068 C 
BRANCH  20  21
ATOM     21  C   UNL     1       8.945   3.784   0.877  0.00  0.00    +0.241 C 
ATOM     22  O   UNL     1      10.016   3.774   1.458  0.00  0.00    -0.270 OA
ATOM     23  N   UNL     1       8.558   4.881   0.197  0.00  0.00    -0.282 N 
ATOM     24  H   UNL     1       7.737   4.867  -0.319  0.00  0.00    +0.155 HD
BRANCH  23  25
ATOM     25  C   UNL     1       9.341   6.041   0.235  0.00  0.00    +0.034 A 
ATOM     26  C   UNL     1       8.733   7.290   0.225  0.00  0.00    +0.025 A 
ATOM     27  C   UNL     1       9.505   8.434   0.262  0.00  0.00    +0.025 A 
ATOM     28  C   UNL     1      10.889   8.336   0.309  0.00  0.00    +0.030 A 
ATOM     29  C   UNL     1      11.498   7.087   0.319  0.00  0.00    +0.025 A 
ATOM     30  C   UNL     1      10.725   5.943   0.288  0.00  0.00    +0.025 A 
BRANCH  28  31
ATOM     31  N   UNL     1      11.672   9.495   0.346  0.00  0.00    -0.326 N 
ATOM     32  C   UNL     1      11.051  10.825   0.462  0.00  0.00    +0.133 C 
ATOM     33  C   UNL     1      11.738  11.581   1.605  0.00  0.00    +0.178 C 
ATOM     34  O   UNL     1      13.153  11.557   1.402  0.00  0.00    -0.377 OA
ATOM     35  C   UNL     1      13.724  10.246   1.424  0.00  0.00    +0.178 C 
ATOM     36  C   UNL     1      13.140   9.421   0.277  0.00  0.00    +0.133 C 
ENDBRANCH  28  31
ENDBRANCH  23  25
ENDBRANCH  20  21
ENDBRANCH   4  19
TORSDOF 5
