REMARK  Name = CHEMBL418270
REMARK  4 active torsions:
REMARK  status: ('A' for Active; 'I' for Inactive)
REMARK    1  A    between atoms: C_3  and  N_16
REMARK    2  A    between atoms: C_5  and  N_7
REMARK    3  A    between atoms: C_8  and  C_10
REMARK    4  A    between atoms: C_21  and  C_23
REMARK                            x       y       z     vdW  Elec       q    Type
REMARK                         _______ _______ _______ _____ _____    ______ ____
ROOT
ATOM      1  C   UNL     1       0.020   1.753  -0.770  0.00  0.00    +0.004 A 
ATOM      2  C   UNL     1       1.202   2.448  -0.594  0.00  0.00    +0.023 A 
ATOM      3  C   UNL     1       2.364   1.769  -0.252  0.00  0.00    +0.035 A 
ATOM      4  C   UNL     1       2.338   0.391  -0.086  0.00  0.00    +0.046 A 
ATOM      5  C   UNL     1       1.150  -0.303  -0.263  0.00  0.00    +0.035 A 
ATOM      6  C   UNL     1      -0.009   0.382  -0.605  0.00  0.00    +0.023 A 
ENDROOT
BRANCH   3   7
ATOM      7  N   UNL     1       3.559   2.473  -0.075  0.00  0.00    -0.284 N 
ATOM      8  C   UNL     1       3.537   3.756   0.446  0.00  0.00    +0.220 A 
ATOM      9  N   UNL     1       2.389   4.256   0.881  0.00  0.00    -0.223 NA
ATOM     10  C   UNL     1       2.326   5.478   1.385  0.00  0.00    +0.116 A 
ATOM     11  C   UNL     1       3.479   6.241   1.458  0.00  0.00    +0.048 A 
ATOM     12  C   UNL     1       4.674   5.687   0.991  0.00  0.00    +0.077 A 
ATOM     13  N   UNL     1       4.663   4.449   0.501  0.00  0.00    -0.214 NA
ATOM     14  H   UNL     1       4.404   2.062  -0.317  0.00  0.00    +0.155 HD
BRANCH  12  15
ATOM     15  C   UNL     1       5.936   6.464   1.046  0.00  0.00    +0.019 A 
ATOM     16  C   UNL     1       7.109   5.955   0.481  0.00  0.00    +0.013 A 
ATOM     17  C   UNL     1       8.260   6.719   0.559  0.00  0.00    +0.020 A 
ATOM     18  C   UNL     1       8.214   7.950   1.188  0.00  0.00    +0.111 A 
ATOM     19  N   UNL     1       7.093   8.404   1.713  0.00  0.00    -0.263 NA
ATOM     20  C   UNL     1       5.971   7.716   1.658  0.00  0.00    +0.120 A 
ENDBRANCH  12  15
ENDBRANCH   3   7
BRANCH   5  21
ATOM     21  N   UNL     1       1.120  -1.692  -0.097  0.00  0.00    -0.281 N 
ATOM     22  C   UNL     1       1.926  -2.280   0.809  0.00  0.00    +0.250 C 
ATOM     23  O   UNL     1       2.611  -1.598   1.546  0.00  0.00    -0.270 OA
ATOM     24  H   UNL     1       0.518  -2.231  -0.634  0.00  0.00    +0.155 HD
BRANCH  22  25
ATOM     25  C   UNL     1       1.977  -3.754   0.906  0.00  0.00    +0.055 A 
ATOM     26  C   UNL     1       2.806  -4.377   1.847  0.00  0.00    +0.016 A 
ATOM     27  C   UNL     1       2.816  -5.760   1.898  0.00  0.00    +0.020 A 
ATOM     28  C   UNL     1       2.016  -6.475   1.025  0.00  0.00    +0.111 A 
ATOM     29  N   UNL     1       1.245  -5.861   0.149  0.00  0.00    -0.263 NA
ATOM     30  C   UNL     1       1.195  -4.548   0.066  0.00  0.00    +0.123 A 
ENDBRANCH  22  25
ENDBRANCH   5  21
TORSDOF 4
