REMARK  Name = CHEMBL122182
REMARK  4 active torsions:
REMARK  status: ('A' for Active; 'I' for Inactive)
REMARK    1  A    between atoms: C_3  and  N_8
REMARK    2  A    between atoms: C_11  and  N_19
REMARK    3  A    between atoms: N_19  and  C_20
REMARK    4  A    between atoms: C_23  and  O_26
REMARK                            x       y       z     vdW  Elec       q    Type
REMARK                         _______ _______ _______ _____ _____    ______ ____
ROOT
ATOM      1  N   UNL     1       3.017   2.948  -0.780  0.00  0.00    -0.299 N 
ATOM      2  C   UNL     1       4.005   2.227  -1.416  0.00  0.00    +0.139 A 
ATOM      3  C   UNL     1       5.363   2.592  -1.290  0.00  0.00    +0.100 A 
ATOM      4  C   UNL     1       6.071   3.589  -0.632  0.00  0.00    +0.131 A 
ATOM      5  N   UNL     1       7.375   3.407  -0.904  0.00  0.00    -0.261 N 
ATOM      6  H   UNL     1       8.096   3.963  -0.571  0.00  0.00    +0.190 HD
ATOM      7  N   UNL     1       7.537   2.296  -1.738  0.00  0.00    -0.152 NA
ATOM      8  C   UNL     1       6.361   1.771  -1.999  0.00  0.00    +0.188 A 
ATOM      9  N   UNL     1       5.915   0.724  -2.723  0.00  0.00    -0.214 NA
ATOM     10  C   UNL     1       4.634   0.459  -2.782  0.00  0.00    +0.225 A 
ATOM     11  N   UNL     1       3.706   1.167  -2.158  0.00  0.00    -0.220 NA
ATOM     12  H   UNL     1       3.239   3.770  -0.316  0.00  0.00    +0.154 HD
ENDROOT
BRANCH   1  15
ATOM     13  C   UNL     1      -0.659   2.948  -0.719  0.00  0.00    +0.003 A 
ATOM     14  C   UNL     1       0.646   3.399  -0.693  0.00  0.00    +0.023 A 
ATOM     15  C   UNL     1       1.694   2.494  -0.805  0.00  0.00    +0.034 A 
ATOM     16  C   UNL     1       1.427   1.138  -0.942  0.00  0.00    +0.043 A 
ATOM     17  C   UNL     1       0.118   0.693  -0.967  0.00  0.00    +0.043 A 
ATOM     18  C   UNL     1      -0.924   1.598  -0.856  0.00  0.00    +0.020 A 
ATOM     19 CL   UNL     1      -0.218  -1.001  -1.138  0.00  0.00    -0.083 Cl
ENDBRANCH   1  15
BRANCH   4  20
ATOM     20  N   UNL     1       5.532   4.587   0.159  0.00  0.00    -0.299 N 
ATOM     21  H   UNL     1       4.788   4.390   0.750  0.00  0.00    +0.154 HD
BRANCH  20  22
ATOM     22  C   UNL     1       6.061   5.882   0.109  0.00  0.00    +0.033 A 
ATOM     23  C   UNL     1       7.431   6.077   0.214  0.00  0.00    +0.027 A 
ATOM     24  C   UNL     1       7.952   7.356   0.164  0.00  0.00    +0.047 A 
ATOM     25  C   UNL     1       7.106   8.444   0.008  0.00  0.00    +0.117 A 
ATOM     26  C   UNL     1       5.737   8.250  -0.097  0.00  0.00    +0.047 A 
ATOM     27  C   UNL     1       5.215   6.972  -0.053  0.00  0.00    +0.027 A 
BRANCH  25  28
ATOM     28  O   UNL     1       7.620   9.702  -0.041  0.00  0.00    -0.507 OA
ATOM     29  H   UNL     1       7.846  10.000  -0.932  0.00  0.00    +0.292 HD
ENDBRANCH  25  28
ENDBRANCH  20  22
ENDBRANCH   4  20
TORSDOF 4
