REMARK  Name = CHEMBL1169705
REMARK  9 active torsions:
REMARK  status: ('A' for Active; 'I' for Inactive)
REMARK    1  A    between atoms: C_1  and  C_2
REMARK    2  A    between atoms: C_5  and  C_19
REMARK    3  A    between atoms: C_7  and  C_8
REMARK    4  A    between atoms: C_9  and  C_10
REMARK    5  A    between atoms: N_21  and  C_22
REMARK    6  A    between atoms: C_25  and  C_32
REMARK    7  A    between atoms: C_26  and  C_28
REMARK    8  A    between atoms: C_32  and  N_33
REMARK    9  A    between atoms: N_37  and  C_40
REMARK                            x       y       z     vdW  Elec       q    Type
REMARK                         _______ _______ _______ _____ _____    ______ ____
ROOT
ATOM      1  C   UNL     1       0.715  -4.483   0.481  0.00  0.00    +0.248 C 
ATOM      2  O   UNL     1       1.235  -5.233   1.284  0.00  0.00    -0.270 OA
ATOM      3  N   UNL     1       0.140  -4.980  -0.632  0.00  0.00    -0.281 N 
ATOM      4  H   UNL     1      -0.335  -4.389  -1.238  0.00  0.00    +0.155 HD
ENDROOT
BRANCH   1   9
ATOM      5  C   UNL     1       0.684   1.209   1.408  0.00  0.00    +0.045 C 
ATOM      6  C   UNL     1       0.694  -0.279   1.169  0.00  0.00    -0.035 A 
ATOM      7  C   UNL     1       0.109  -0.799   0.032  0.00  0.00    +0.005 A 
ATOM      8  C   UNL     1       0.114  -2.161  -0.195  0.00  0.00    +0.013 A 
ATOM      9  C   UNL     1       0.712  -3.025   0.727  0.00  0.00    +0.038 A 
ATOM     10  C   UNL     1       1.304  -2.510   1.877  0.00  0.00    +0.030 A 
ATOM     11  C   UNL     1       1.301  -1.131   2.098  0.00  0.00    +0.029 A 
BRANCH  11  12
ATOM     12  C   UNL     1       1.914  -0.591   3.275  0.00  0.00    -0.059 C 
ATOM     13  C   UNL     1       2.416  -0.149   4.239  0.00  0.00    -0.041 C 
BRANCH  13  14
ATOM     14  C   UNL     1       3.028   0.391   5.416  0.00  0.00    +0.117 A 
ATOM     15  C   UNL     1       3.095   1.725   5.776  0.00  0.00    +0.148 A 
ATOM     16  N   UNL     1       3.742   1.811   6.932  0.00  0.00    -0.235 NA
ATOM     17  C   UNL     1       4.098   0.597   7.338  0.00  0.00    +0.138 A 
ATOM     18  N   UNL     1       3.662  -0.317   6.416  0.00  0.00    -0.293 N 
ATOM     19  C   UNL     1       3.893  -1.648   6.596  0.00  0.00    +0.094 A 
ATOM     20  C   UNL     1       4.553  -2.090   7.688  0.00  0.00    +0.018 A 
ATOM     21  C   UNL     1       5.010  -1.180   8.654  0.00  0.00    +0.005 A 
ATOM     22  C   UNL     1       4.792   0.153   8.480  0.00  0.00    +0.047 A 
ENDBRANCH  13  14
ENDBRANCH  11  12
ENDBRANCH   1   9
BRANCH   3  23
ATOM     23  C   UNL     1       0.229  -6.347  -0.914  0.00  0.00    +0.034 A 
ATOM     24  C   UNL     1       0.201  -7.274   0.120  0.00  0.00    +0.023 A 
ATOM     25  C   UNL     1       0.289  -8.623  -0.162  0.00  0.00    +0.004 A 
ATOM     26  C   UNL     1       0.405  -9.051  -1.472  0.00  0.00    -0.052 A 
ATOM     27  C   UNL     1       0.433  -8.131  -2.503  0.00  0.00    +0.058 A 
ATOM     28  C   UNL     1       0.340  -6.780  -2.229  0.00  0.00    +0.036 A 
BRANCH  27  29
ATOM     29  C   UNL     1       0.560  -8.602  -3.929  0.00  0.00    +0.418 C 
ATOM     30  F   UNL     1       0.455  -7.506  -4.793  0.00  0.00    -0.166 F 
ATOM     31  F   UNL     1       1.803  -9.219  -4.108  0.00  0.00    -0.166 F 
ATOM     32  F   UNL     1      -0.460  -9.517  -4.210  0.00  0.00    -0.166 F 
ENDBRANCH  27  29
BRANCH  26  33
ATOM     33  C   UNL     1       0.501 -10.524  -1.776  0.00  0.00    -0.042 C 
BRANCH  33  34
ATOM     34  N   UNL     1       1.912 -10.901  -1.932  0.00  0.00    +0.383 N 
ATOM     35  C   UNL     1       1.982 -12.284  -2.451  0.00  0.00    -0.077 C 
ATOM     36  C   UNL     1       3.328 -12.491  -3.100  0.00  0.00    -0.003 C 
ATOM     37  C   UNL     1       4.352 -13.091  -2.122  0.00  0.00    +0.082 C 
ATOM     38  N   UNL     1       4.260 -12.487  -0.772  0.00  0.00    -0.307 NA
ATOM     39  C   UNL     1       4.066 -11.054  -0.791  0.00  0.00    +0.065 C 
ATOM     40  C   UNL     1       2.558 -10.754  -0.700  0.00  0.00    -0.063 C 
ATOM     41  C   UNL     1       5.424 -12.849   0.047  0.00  0.00    +0.104 C 
ATOM     42  H   UNL     1       2.342 -10.281  -2.602  0.00  0.00    -0.081 HD
ENDBRANCH  33  34
ENDBRANCH  26  33
ENDBRANCH   3  23
TORSDOF 7
