REMARK  Name = CHEMBL399438
REMARK  7 active torsions:
REMARK  status: ('A' for Active; 'I' for Inactive)
REMARK    1  A    between atoms: C_4  and  C_7
REMARK    2  A    between atoms: C_10  and  N_12
REMARK    3  A    between atoms: N_12  and  C_13
REMARK    4  A    between atoms: C_17  and  C_25
REMARK    5  A    between atoms: C_22  and  C_23
REMARK    6  A    between atoms: C_28  and  C_31
REMARK    7  A    between atoms: C_31  and  N_32
REMARK                            x       y       z     vdW  Elec       q    Type
REMARK                         _______ _______ _______ _____ _____    ______ ____
ROOT
ATOM      1  C   UNL     1       5.674  -2.036   2.902  0.00  0.00    +0.056 A 
ATOM      2  C   UNL     1       6.935  -1.731   3.467  0.00  0.00    +0.023 A 
ATOM      3  C   UNL     1       7.944  -1.129   2.699  0.00  0.00    +0.012 A 
ATOM      4  C   UNL     1       9.148  -0.845   3.263  0.00  0.00    +0.009 A 
ATOM      5  C   UNL     1       9.397  -1.147   4.610  0.00  0.00    -0.016 A 
ATOM      6  C   UNL     1       8.420  -1.740   5.390  0.00  0.00    +0.037 A 
ATOM      7  C   UNL     1       7.171  -2.041   4.828  0.00  0.00    +0.073 A 
ATOM      8  N   UNL     1       6.211  -2.615   5.567  0.00  0.00    -0.254 NA
ATOM      9  C   UNL     1       5.036  -2.908   5.071  0.00  0.00    +0.132 A 
ATOM     10  C   UNL     1       4.713  -2.631   3.732  0.00  0.00    +0.091 A 
ENDROOT
BRANCH   5  11
ATOM     11  C   UNL     1      10.719  -0.828   5.203  0.00  0.00    -0.018 A 
ATOM     12  C   UNL     1      10.977  -1.130   6.539  0.00  0.00    +0.009 A 
ATOM     13  C   UNL     1      12.208  -0.831   7.085  0.00  0.00    +0.005 A 
ATOM     14  C   UNL     1      13.185  -0.233   6.310  0.00  0.00    -0.033 A 
ATOM     15  C   UNL     1      12.934   0.069   4.983  0.00  0.00    +0.005 A 
ATOM     16  C   UNL     1      11.709  -0.231   4.425  0.00  0.00    +0.009 A 
BRANCH  14  17
ATOM     17  C   UNL     1      14.528   0.092   6.913  0.00  0.00    +0.119 C 
BRANCH  17  18
ATOM     18  N   UNL     1      15.433  -1.052   6.736  0.00  0.00    -0.294 NA
ATOM     19  C   UNL     1      14.977  -2.210   7.518  0.00  0.00    +0.113 C 
ATOM     20  C   UNL     1      15.913  -3.394   7.259  0.00  0.00    +0.175 C 
ATOM     21  O   UNL     1      17.253  -3.015   7.583  0.00  0.00    -0.377 OA
ATOM     22  C   UNL     1      17.730  -1.890   6.840  0.00  0.00    +0.175 C 
ATOM     23  C   UNL     1      16.813  -0.691   7.095  0.00  0.00    +0.113 C 
ENDBRANCH  17  18
ENDBRANCH  14  17
ENDBRANCH   5  11
BRANCH   1  24
ATOM     24  N   UNL     1       5.398  -1.752   1.581  0.00  0.00    -0.339 N 
ATOM     25  H   UNL     1       5.585  -2.411   0.894  0.00  0.00    +0.146 HD
BRANCH  24  28
ATOM     26  C   UNL     1       5.047   0.039  -0.215  0.00  0.00    +0.041 C 
ATOM     27  C   UNL     1       3.664  -0.454   0.214  0.00  0.00    +0.032 C 
ATOM     28  C   UNL     1       4.822  -0.456   1.215  0.00  0.00    +0.078 C 
BRANCH  26  32
ATOM     29  C   UNL     1       5.550   4.241  -0.793  0.00  0.00    +0.000 A 
ATOM     30  C   UNL     1       6.555   3.367  -1.164  0.00  0.00    +0.000 A 
ATOM     31  C   UNL     1       6.392   2.007  -0.977  0.00  0.00    +0.004 A 
ATOM     32  C   UNL     1       5.225   1.522  -0.418  0.00  0.00    -0.042 A 
ATOM     33  C   UNL     1       4.221   2.396  -0.046  0.00  0.00    +0.004 A 
ATOM     34  C   UNL     1       4.383   3.755  -0.235  0.00  0.00    +0.000 A 
ENDBRANCH  26  32
ENDBRANCH  24  28
ENDBRANCH   1  24
BRANCH  10  35
ATOM     35  C   UNL     1       3.416  -2.957   3.219  0.00  0.00    +0.103 C 
ATOM     36  N   UNL     1       2.388  -3.215   2.812  0.00  0.00    -0.191 NA
ENDBRANCH  10  35
TORSDOF 7
