REMARK  Name = CHEMBL55379
REMARK  5 active torsions:
REMARK  status: ('A' for Active; 'I' for Inactive)
REMARK    1  A    between atoms: C_7  and  C_11
REMARK    2  A    between atoms: N_17  and  C_18
REMARK    3  A    between atoms: C_22  and  O_24
REMARK    4  A    between atoms: O_24  and  C_25
REMARK    5  A    between atoms: C_25  and  C_26
REMARK                            x       y       z     vdW  Elec       q    Type
REMARK                         _______ _______ _______ _____ _____    ______ ____
ROOT
ATOM      1  C   UNL     1       0.686  -3.271   0.041  0.00  0.00    +0.078 A 
ATOM      2  C   UNL     1       1.186  -4.542  -0.266  0.00  0.00    +0.048 A 
ATOM      3  C   UNL     1       0.287  -5.569  -0.477  0.00  0.00    +0.116 A 
ATOM      4  N   UNL     1      -1.012  -5.324  -0.384  0.00  0.00    -0.223 NA
ATOM      5  C   UNL     1      -1.458  -4.111  -0.091  0.00  0.00    +0.220 A 
ATOM      6  N   UNL     1      -0.632  -3.099   0.124  0.00  0.00    -0.214 NA
ATOM      7  N   UNL     1      -2.824  -3.898  -0.004  0.00  0.00    -0.284 N 
ATOM      8  H   UNL     1      -3.168  -3.001   0.130  0.00  0.00    +0.155 HD
ENDROOT
BRANCH   1  15
ATOM      9  C   UNL     1       0.004   1.232   1.114  0.00  0.00    +0.001 A 
ATOM     10  C   UNL     1       1.193   1.936   1.240  0.00  0.00    +0.002 A 
ATOM     11  C   UNL     1       2.405   1.308   1.054  0.00  0.00    +0.026 A 
ATOM     12  C   UNL     1       2.440  -0.046   0.737  0.00  0.00    +0.047 A 
ATOM     13  C   UNL     1       1.232  -0.754   0.611  0.00  0.00    +0.009 A 
ATOM     14  C   UNL     1       0.017  -0.100   0.803  0.00  0.00    +0.010 A 
ATOM     15  C   UNL     1       1.607  -2.138   0.276  0.00  0.00    +0.026 A 
ATOM     16  C   UNL     1       2.964  -2.171   0.224  0.00  0.00    +0.093 A 
ATOM     17  N   UNL     1       3.466  -0.935   0.496  0.00  0.00    -0.360 N 
ATOM     18  H   UNL     1       4.409  -0.712   0.517  0.00  0.00    +0.165 HD
ENDBRANCH   1  15
BRANCH   7  19
ATOM     19  C   UNL     1      -3.708  -4.977  -0.106  0.00  0.00    +0.037 A 
ATOM     20  C   UNL     1      -3.392  -6.194   0.485  0.00  0.00    +0.023 A 
ATOM     21  C   UNL     1      -4.266  -7.259   0.384  0.00  0.00    +0.005 A 
ATOM     22  C   UNL     1      -5.455  -7.118  -0.307  0.00  0.00    +0.046 A 
ATOM     23  C   UNL     1      -5.775  -5.905  -0.901  0.00  0.00    +0.129 A 
ATOM     24  C   UNL     1      -4.904  -4.832  -0.795  0.00  0.00    +0.069 A 
BRANCH  23  25
ATOM     25  O   UNL     1      -6.944  -5.768  -1.579  0.00  0.00    -0.428 OA
BRANCH  25  26
ATOM     26  C   UNL     1      -7.796  -6.914  -1.642  0.00  0.00    +0.463 C 
ATOM     27  F   UNL     1      -7.118  -7.965  -2.269  0.00  0.00    -0.158 F 
ATOM     28  F   UNL     1      -8.156  -7.298  -0.346  0.00  0.00    -0.158 F 
BRANCH  26  29
ATOM     29  C   UNL     1      -9.055  -6.570  -2.441  0.00  0.00    +0.453 C 
ATOM     30  F   UNL     1      -9.889  -7.692  -2.502  0.00  0.00    -0.198 F 
ATOM     31  F   UNL     1      -9.732  -5.519  -1.814  0.00  0.00    -0.198 F 
ENDBRANCH  26  29
ENDBRANCH  25  26
ENDBRANCH  23  25
ENDBRANCH   7  19
TORSDOF 5
