REMARK  Name = CHEMBL485854
REMARK  9 active torsions:
REMARK  status: ('A' for Active; 'I' for Inactive)
REMARK    1  A    between atoms: C_1  and  C_2
REMARK    2  A    between atoms: C_5  and  N_22
REMARK    3  A    between atoms: C_7  and  N_8
REMARK    4  A    between atoms: N_16  and  C_19
REMARK    5  A    between atoms: N_20  and  C_21
REMARK    6  A    between atoms: C_23  and  C_25
REMARK    7  A    between atoms: C_27  and  C_37
REMARK    8  A    between atoms: C_29  and  N_31
REMARK    9  A    between atoms: C_33  and  C_36
REMARK                            x       y       z     vdW  Elec       q    Type
REMARK                         _______ _______ _______ _____ _____    ______ ____
ROOT
ATOM      1  C   UNL     1      -0.044   1.502   0.029  0.00  0.00    +0.045 C 
ATOM      2  C   UNL     1      -0.017  -0.004   0.015  0.00  0.00    -0.029 A 
ATOM      3  C   UNL     1      -0.004  -0.684  -1.188  0.00  0.00    +0.007 A 
ATOM      4  C   UNL     1       0.021  -2.065  -1.204  0.00  0.00    +0.024 A 
ATOM      5  C   UNL     1       0.034  -2.775  -0.010  0.00  0.00    +0.035 A 
ATOM      6  C   UNL     1       0.021  -2.096   1.200  0.00  0.00    +0.047 A 
ATOM      7  C   UNL     1       0.001  -0.709   1.213  0.00  0.00    +0.043 A 
ENDROOT
BRANCH   7   8
ATOM      8  N   UNL     1      -0.006  -0.019   2.430  0.00  0.00    -0.250 N 
ATOM      9  C   UNL     1      -1.280   0.320   3.090  0.00  0.00    +0.155 C 
ATOM     10  C   UNL     1      -1.187   1.063   4.399  0.00  0.00    +0.029 A 
ATOM     11  C   UNL     1      -2.302   1.436   5.111  0.00  0.00    +0.123 A 
ATOM     12  N   UNL     1      -2.136   2.088   6.256  0.00  0.00    -0.223 NA
ATOM     13  C   UNL     1      -0.923   2.374   6.706  0.00  0.00    +0.217 A 
ATOM     14  N   UNL     1       0.172   2.029   6.044  0.00  0.00    -0.199 NA
ATOM     15  C   UNL     1       0.081   1.375   4.892  0.00  0.00    +0.138 A 
ATOM     16  N   UNL     1       1.208   1.002   4.181  0.00  0.00    -0.242 N 
ATOM     17  C   UNL     1       1.150   0.338   3.019  0.00  0.00    +0.314 C 
ATOM     18  O   UNL     1       2.194   0.047   2.467  0.00  0.00    -0.252 OA
ATOM     19  C   UNL     1       2.524   1.344   4.726  0.00  0.00    +0.141 C 
ATOM     20  N   UNL     1      -0.796   3.055   7.904  0.00  0.00    -0.316 N 
ATOM     21  C   UNL     1      -1.991   3.448   8.654  0.00  0.00    +0.128 C 
ATOM     22  H   UNL     1       0.085   3.272   8.247  0.00  0.00    +0.149 HD
ENDBRANCH   7   8
BRANCH   5  23
ATOM     23  N   UNL     1       0.059  -4.173  -0.027  0.00  0.00    -0.281 N 
ATOM     24  C   UNL     1       0.742  -4.847   0.919  0.00  0.00    +0.248 C 
ATOM     25  O   UNL     1       1.266  -4.244   1.835  0.00  0.00    -0.270 OA
ATOM     26  H   UNL     1      -0.416  -4.659  -0.720  0.00  0.00    +0.155 HD
BRANCH  24  27
ATOM     27  C   UNL     1       0.854  -6.319   0.843  0.00  0.00    +0.040 A 
ATOM     28  C   UNL     1       0.258  -7.014  -0.211  0.00  0.00    +0.025 A 
ATOM     29  C   UNL     1       0.364  -8.387  -0.280  0.00  0.00    +0.057 A 
ATOM     30  C   UNL     1       1.060  -9.081   0.694  0.00  0.00    +0.038 A 
ATOM     31  C   UNL     1       1.657  -8.399   1.746  0.00  0.00    +0.049 A 
ATOM     32  C   UNL     1       1.561  -7.019   1.821  0.00  0.00    +0.039 A 
BRANCH  31  33
ATOM     33  N   UNL     1       2.361  -9.107   2.731  0.00  0.00    -0.306 N 
ATOM     34  C   UNL     1       2.994  -8.573   3.824  0.00  0.00    +0.115 A 
ATOM     35  C   UNL     1       3.539  -9.602   4.500  0.00  0.00    +0.056 A 
ATOM     36  N   UNL     1       3.251 -10.735   3.843  0.00  0.00    -0.241 NA
ATOM     37  C   UNL     1       2.542 -10.453   2.784  0.00  0.00    +0.204 A 
ATOM     38  C   UNL     1       4.335  -9.498   5.775  0.00  0.00    +0.067 C 
ENDBRANCH  31  33
BRANCH  29  39
ATOM     39  C   UNL     1      -0.281  -9.135  -1.418  0.00  0.00    +0.418 C 
ATOM     40  F   UNL     1      -0.922  -8.227  -2.268  0.00  0.00    -0.166 F 
ATOM     41  F   UNL     1       0.700  -9.831  -2.134  0.00  0.00    -0.166 F 
ATOM     42  F   UNL     1      -1.218 -10.040  -0.910  0.00  0.00    -0.166 F 
ENDBRANCH  29  39
ENDBRANCH  24  27
ENDBRANCH   5  23
TORSDOF 5
