REMARK  Name = CHEMBL209753
REMARK  7 active torsions:
REMARK  status: ('A' for Active; 'I' for Inactive)
REMARK    1  A    between atoms: C_4  and  C_7
REMARK    2  A    between atoms: C_7  and  N_8
REMARK    3  A    between atoms: C_11  and  N_14
REMARK    4  A    between atoms: N_14  and  C_15
REMARK    5  A    between atoms: C_21  and  C_25
REMARK    6  A    between atoms: C_31  and  N_35
REMARK    7  A    between atoms: C_38  and  N_41
REMARK                            x       y       z     vdW  Elec       q    Type
REMARK                         _______ _______ _______ _____ _____    ______ ____
ROOT
ATOM      1  C   UNL     1       7.688  -1.497   5.255  0.00  0.00    +0.028 A 
ATOM      2  C   UNL     1       8.686  -1.519   4.280  0.00  0.00    +0.025 A 
ATOM      3  C   UNL     1       9.978  -1.808   4.612  0.00  0.00    +0.029 A 
ATOM      4  C   UNL     1      10.314  -2.086   5.936  0.00  0.00    +0.067 A 
ATOM      5  C   UNL     1       9.315  -2.067   6.925  0.00  0.00    +0.032 A 
ATOM      6  C   UNL     1       7.997  -1.764   6.575  0.00  0.00    +0.035 A 
ATOM      7  C   UNL     1       9.981  -2.396   8.191  0.00  0.00    +0.135 A 
ATOM      8  N   UNL     1      11.254  -2.585   7.930  0.00  0.00    -0.170 NA
ATOM      9  N   UNL     1      11.493  -2.404   6.564  0.00  0.00    -0.276 N 
ATOM     10  H   UNL     1      12.356  -2.490   6.130  0.00  0.00    +0.189 HD
ENDROOT
BRANCH   7  11
ATOM     11  C   UNL     1       9.337  -2.495   9.515  0.00  0.00    +0.160 A 
ATOM     12  N   UNL     1       9.982  -2.799  10.684  0.00  0.00    -0.337 N 
ATOM     13  H   UNL     1      10.929  -2.984  10.788  0.00  0.00    +0.167 HD
ATOM     14  C   UNL     1       9.031  -2.792  11.690  0.00  0.00    +0.067 A 
ATOM     15  C   UNL     1       9.079  -3.023  13.057  0.00  0.00    +0.029 A 
ATOM     16  C   UNL     1       7.927  -2.940  13.809  0.00  0.00    +0.025 A 
ATOM     17  C   UNL     1       6.711  -2.627  13.205  0.00  0.00    +0.032 A 
ATOM     18  C   UNL     1       6.646  -2.395  11.844  0.00  0.00    +0.053 A 
ATOM     19  C   UNL     1       7.809  -2.475  11.071  0.00  0.00    +0.091 A 
ATOM     20  N   UNL     1       8.061  -2.301   9.751  0.00  0.00    -0.226 NA
BRANCH  17  21
ATOM     21  N   UNL     1       5.549  -2.547  13.980  0.00  0.00    -0.330 N 
ATOM     22  C   UNL     1       4.281  -2.100  13.385  0.00  0.00    +0.103 C 
ATOM     23  C   UNL     1       3.205  -3.152  13.671  0.00  0.00    +0.004 C 
ATOM     24  C   UNL     1       3.136  -3.410  15.178  0.00  0.00    -0.066 C 
ATOM     25  C   UNL     1       4.482  -3.950  15.667  0.00  0.00    +0.004 C 
ATOM     26  C   UNL     1       5.571  -2.913  15.403  0.00  0.00    +0.103 C 
BRANCH  24  27
ATOM     27  N   UNL     1       2.082  -4.394  15.458  0.00  0.00    +0.382 N 
ATOM     28  C   UNL     1       0.793  -3.878  14.982  0.00  0.00    -0.078 C 
ATOM     29  C   UNL     1      -0.294  -4.933  15.198  0.00  0.00    -0.019 C 
ATOM     30  C   UNL     1      -0.393  -5.257  16.692  0.00  0.00    -0.004 C 
ATOM     31  C   UNL     1       0.977  -5.724  17.194  0.00  0.00    -0.019 C 
ATOM     32  C   UNL     1       2.017  -4.640  16.904  0.00  0.00    -0.078 C 
ATOM     33  H   UNL     1       2.294  -5.257  14.980  0.00  0.00    -0.081 HD
ENDBRANCH  24  27
ENDBRANCH  17  21
ENDBRANCH   7  11
BRANCH   1  34
ATOM     34  N   UNL     1       6.370  -1.199   4.895  0.00  0.00    -0.341 N 
ATOM     35  H   UNL     1       5.675  -1.179   5.572  0.00  0.00    +0.146 HD
BRANCH  34  39
ATOM     36  N   UNL     1       4.131  -1.113   1.325  0.00  0.00    +0.382 N 
ATOM     37  C   UNL     1       4.393   0.179   1.971  0.00  0.00    -0.077 C 
ATOM     38  C   UNL     1       4.778  -0.047   3.434  0.00  0.00    +0.003 C 
ATOM     39  C   UNL     1       6.038  -0.915   3.496  0.00  0.00    +0.067 C 
ATOM     40  C   UNL     1       5.777  -2.230   2.755  0.00  0.00    +0.003 C 
ATOM     41  C   UNL     1       5.355  -1.923   1.317  0.00  0.00    -0.077 C 
ATOM     42  H   UNL     1       3.409  -1.601   1.834  0.00  0.00    -0.081 HD
BRANCH  36  43
ATOM     43  C   UNL     1       3.686  -0.886  -0.057  0.00  0.00    -0.043 C 
BRANCH  43  47
ATOM     44  C   UNL     1      -0.058   1.170  -0.031  0.00  0.00    +0.000 A 
ATOM     45  C   UNL     1       1.124   1.886  -0.048  0.00  0.00    +0.000 A 
ATOM     46  C   UNL     1       2.336   1.221  -0.056  0.00  0.00    +0.002 A 
ATOM     47  C   UNL     1       2.365  -0.161  -0.047  0.00  0.00    -0.064 A 
ATOM     48  C   UNL     1       1.183  -0.878  -0.029  0.00  0.00    +0.002 A 
ATOM     49  C   UNL     1      -0.028  -0.212  -0.022  0.00  0.00    +0.000 A 
ENDBRANCH  43  47
ENDBRANCH  36  43
ENDBRANCH  34  39
ENDBRANCH   1  34
TORSDOF 7
