REMARK  Name = CHEMBL56359
REMARK  4 active torsions:
REMARK  status: ('A' for Active; 'I' for Inactive)
REMARK    1  A    between atoms: C_3  and  N_15
REMARK    2  A    between atoms: C_5  and  N_7
REMARK    3  A    between atoms: C_8  and  C_10
REMARK    4  A    between atoms: C_20  and  C_22
REMARK                            x       y       z     vdW  Elec       q    Type
REMARK                         _______ _______ _______ _____ _____    ______ ____
ROOT
ATOM      1  C   UNL     1       0.026   1.765  -0.763  0.00  0.00    +0.004 A 
ATOM      2  C   UNL     1       1.207   2.461  -0.591  0.00  0.00    +0.023 A 
ATOM      3  C   UNL     1       2.372   1.783  -0.255  0.00  0.00    +0.035 A 
ATOM      4  C   UNL     1       2.349   0.405  -0.091  0.00  0.00    +0.046 A 
ATOM      5  C   UNL     1       1.161  -0.291  -0.264  0.00  0.00    +0.035 A 
ATOM      6  C   UNL     1      -0.001   0.394  -0.600  0.00  0.00    +0.023 A 
ENDROOT
BRANCH   3   7
ATOM      7  N   UNL     1       3.567   2.488  -0.083  0.00  0.00    -0.284 N 
ATOM      8  C   UNL     1       3.545   3.771   0.441  0.00  0.00    +0.220 A 
ATOM      9  N   UNL     1       2.399   4.269   0.882  0.00  0.00    -0.223 NA
ATOM     10  C   UNL     1       2.337   5.489   1.390  0.00  0.00    +0.116 A 
ATOM     11  C   UNL     1       3.489   6.253   1.458  0.00  0.00    +0.048 A 
ATOM     12  C   UNL     1       4.682   5.702   0.985  0.00  0.00    +0.077 A 
ATOM     13  N   UNL     1       4.671   4.465   0.492  0.00  0.00    -0.214 NA
ATOM     14  H   UNL     1       4.411   2.079  -0.330  0.00  0.00    +0.155 HD
BRANCH  12  15
ATOM     15  C   UNL     1       5.944   6.480   1.036  0.00  0.00    +0.019 A 
ATOM     16  C   UNL     1       7.115   5.974   0.464  0.00  0.00    +0.013 A 
ATOM     17  C   UNL     1       8.265   6.739   0.537  0.00  0.00    +0.020 A 
ATOM     18  C   UNL     1       8.221   7.969   1.169  0.00  0.00    +0.111 A 
ATOM     19  N   UNL     1       7.101   8.421   1.700  0.00  0.00    -0.263 NA
ATOM     20  C   UNL     1       5.980   7.731   1.649  0.00  0.00    +0.120 A 
ENDBRANCH  12  15
ENDBRANCH   3   7
BRANCH   5  21
ATOM     21  N   UNL     1       1.133  -1.679  -0.100  0.00  0.00    -0.281 N 
ATOM     22  C   UNL     1       1.944  -2.268   0.801  0.00  0.00    +0.255 C 
ATOM     23  O   UNL     1       2.632  -1.586   1.537  0.00  0.00    -0.269 OA
ATOM     24  H   UNL     1       0.530  -2.219  -0.635  0.00  0.00    +0.155 HD
BRANCH  22  25
ATOM     25  C   UNL     1       1.997  -3.729   0.895  0.00  0.00    +0.074 A 
ATOM     26  C   UNL     1       2.749  -4.524   1.746  0.00  0.00    +0.021 A 
ATOM     27  C   UNL     1       2.585  -5.880   1.598  0.00  0.00    +0.008 A 
ATOM     28  C   UNL     1       1.723  -6.341   0.657  0.00  0.00    +0.046 A 
ATOM     29  S   UNL     1       1.104  -4.949  -0.051  0.00  0.00    -0.092 S 
ENDBRANCH  22  25
ENDBRANCH   5  21
TORSDOF 4
