REMARK  Name = CHEMBL536983
REMARK  13 active torsions:
REMARK  status: ('A' for Active; 'I' for Inactive)
REMARK    1  A    between atoms: C_1  and  C_2
REMARK    2  A    between atoms: C_5  and  N_21
REMARK    3  A    between atoms: C_7  and  N_8
REMARK    4  A    between atoms: C_13  and  C_15
REMARK    5  A    between atoms: N_21  and  C_22
REMARK    6  A    between atoms: C_22  and  C_23
REMARK    7  A    between atoms: C_22  and  O_41
REMARK    8  A    between atoms: C_26  and  C_33
REMARK    9  A    between atoms: C_27  and  C_29
REMARK   10  A    between atoms: C_33  and  N_34
REMARK   11  A    between atoms: C_36  and  N_38
REMARK   12  A    between atoms: N_38  and  C_39
REMARK   13  A    between atoms: N_38  and  C_40
REMARK                            x       y       z     vdW  Elec       q    Type
REMARK                         _______ _______ _______ _____ _____    ______ ____
ROOT
ATOM      1  N   UNL     1       1.913  -4.612   0.479  0.00  0.00    -0.316 N 
ATOM      2  H   UNL     1       1.828  -5.044   1.343  0.00  0.00    +0.149 HD
ENDROOT
BRANCH   1   7
ATOM      3  C   UNL     1       1.508   1.034   0.062  0.00  0.00    +0.045 C 
ATOM      4  C   UNL     1       1.615  -0.465   0.174  0.00  0.00    -0.029 A 
ATOM      5  C   UNL     1       1.983  -1.215  -0.927  0.00  0.00    +0.007 A 
ATOM      6  C   UNL     1       2.082  -2.589  -0.828  0.00  0.00    +0.023 A 
ATOM      7  C   UNL     1       1.812  -3.222   0.380  0.00  0.00    +0.031 A 
ATOM      8  C   UNL     1       1.443  -2.472   1.487  0.00  0.00    +0.046 A 
ATOM      9  C   UNL     1       1.350  -1.091   1.386  0.00  0.00    +0.038 A 
BRANCH   9  10
ATOM     10  N   UNL     1       0.984  -0.331   2.501  0.00  0.00    -0.283 N 
ATOM     11  C   UNL     1       0.168  -0.880   3.476  0.00  0.00    +0.220 A 
ATOM     12  N   UNL     1      -0.348  -2.086   3.283  0.00  0.00    -0.223 NA
ATOM     13  C   UNL     1      -1.132  -2.645   4.191  0.00  0.00    +0.116 A 
ATOM     14  C   UNL     1      -1.414  -1.956   5.357  0.00  0.00    +0.048 A 
ATOM     15  C   UNL     1      -0.857  -0.687   5.533  0.00  0.00    +0.079 A 
ATOM     16  N   UNL     1      -0.073  -0.189   4.579  0.00  0.00    -0.214 NA
ATOM     17  H   UNL     1       1.301   0.582   2.591  0.00  0.00    +0.155 HD
BRANCH  15  18
ATOM     18  C   UNL     1      -1.129   0.091   6.766  0.00  0.00    +0.037 A 
ATOM     19  C   UNL     1      -1.942  -0.428   7.777  0.00  0.00    +0.124 A 
ATOM     20  N   UNL     1      -2.159   0.299   8.860  0.00  0.00    -0.243 NA
ATOM     21  C   UNL     1      -1.621   1.496   8.992  0.00  0.00    +0.221 A 
ATOM     22  N   UNL     1      -0.849   2.022   8.062  0.00  0.00    -0.243 NA
ATOM     23  C   UNL     1      -0.576   1.361   6.950  0.00  0.00    +0.124 A 
ENDBRANCH  15  18
ENDBRANCH   9  10
ENDBRANCH   1   7
BRANCH   1  24
ATOM     24  C   UNL     1       2.145  -5.417  -0.723  0.00  0.00    +0.232 C 
BRANCH  24  25
ATOM     25  C   UNL     1       1.431  -6.737  -0.589  0.00  0.00    -0.001 A 
ATOM     26  C   UNL     1       1.238  -7.295   0.661  0.00  0.00    +0.008 A 
ATOM     27  C   UNL     1       0.583  -8.506   0.784  0.00  0.00    +0.006 A 
ATOM     28  C   UNL     1       0.121  -9.159  -0.343  0.00  0.00    -0.022 A 
ATOM     29  C   UNL     1       0.313  -8.601  -1.593  0.00  0.00    +0.060 A 
ATOM     30  C   UNL     1       0.964  -7.388  -1.716  0.00  0.00    +0.020 A 
BRANCH  29  31
ATOM     31  C   UNL     1      -0.190  -9.314  -2.822  0.00  0.00    +0.418 C 
ATOM     32  F   UNL     1       0.154  -8.579  -3.961  0.00  0.00    -0.166 F 
ATOM     33  F   UNL     1       0.390 -10.585  -2.894  0.00  0.00    -0.166 F 
ATOM     34  F   UNL     1      -1.582  -9.440  -2.751  0.00  0.00    -0.166 F 
ENDBRANCH  29  31
BRANCH  28  35
ATOM     35  C   UNL     1      -0.592 -10.480  -0.209  0.00  0.00    +0.120 C 
BRANCH  35  36
ATOM     36  N   UNL     1      -2.044 -10.260  -0.256  0.00  0.00    -0.301 NA
ATOM     37  C   UNL     1      -2.589 -10.039   1.096  0.00  0.00    +0.070 C 
ATOM     38  C   UNL     1      -3.779 -10.924   0.701  0.00  0.00    -0.041 C 
ATOM     39  C   UNL     1      -2.773 -11.542  -0.279  0.00  0.00    +0.070 C 
BRANCH  38  40
ATOM     40  N   UNL     1      -4.880 -10.197   0.055  0.00  0.00    +0.379 N 
ATOM     41  C   UNL     1      -5.959 -11.138  -0.278  0.00  0.00    -0.096 C 
ATOM     42  C   UNL     1      -5.393  -9.169   0.970  0.00  0.00    -0.096 C 
ATOM     43  H   UNL     1      -4.544  -9.759  -0.790  0.00  0.00    -0.082 HD
ENDBRANCH  38  40
ENDBRANCH  35  36
ENDBRANCH  28  35
ENDBRANCH  24  25
BRANCH  24  44
ATOM     44  O   UNL     1       3.547  -5.647  -0.878  0.00  0.00    -0.370 OA
ATOM     45  H   UNL     1       3.953  -6.117  -0.137  0.00  0.00    +0.212 HD
ENDBRANCH  24  44
ENDBRANCH   1  24
TORSDOF 10
