REMARK  Name = CHEMBL255863
REMARK  8 active torsions:
REMARK  status: ('A' for Active; 'I' for Inactive)
REMARK    1  A    between atoms: C_1  and  C_2
REMARK    2  A    between atoms: C_5  and  C_21
REMARK    3  A    between atoms: C_7  and  N_8
REMARK    4  A    between atoms: C_13  and  C_15
REMARK    5  A    between atoms: N_23  and  C_24
REMARK    6  A    between atoms: C_26  and  C_36
REMARK    7  A    between atoms: C_28  and  N_30
REMARK    8  A    between atoms: C_32  and  C_35
REMARK                            x       y       z     vdW  Elec       q    Type
REMARK                         _______ _______ _______ _____ _____    ______ ____
ROOT
ATOM      1  C   UNL     1      -0.082   1.344  -0.059  0.00  0.00    +0.045 C 
ATOM      2  C   UNL     1      -0.110  -0.157   0.075  0.00  0.00    -0.029 A 
ATOM      3  C   UNL     1      -0.201  -0.948  -1.056  0.00  0.00    +0.006 A 
ATOM      4  C   UNL     1      -0.228  -2.322  -0.941  0.00  0.00    +0.013 A 
ATOM      5  C   UNL     1      -0.164  -2.919   0.319  0.00  0.00    +0.039 A 
ATOM      6  C   UNL     1      -0.072  -2.122   1.460  0.00  0.00    +0.036 A 
ATOM      7  C   UNL     1      -0.040  -0.741   1.334  0.00  0.00    +0.037 A 
ENDROOT
BRANCH   7   8
ATOM      8  N   UNL     1       0.057   0.063   2.474  0.00  0.00    -0.283 N 
ATOM      9  C   UNL     1      -0.567  -0.323   3.649  0.00  0.00    +0.220 A 
ATOM     10  N   UNL     1      -1.169  -1.502   3.703  0.00  0.00    -0.223 NA
ATOM     11  C   UNL     1      -1.776  -1.907   4.807  0.00  0.00    +0.116 A 
ATOM     12  C   UNL     1      -1.779  -1.083   5.919  0.00  0.00    +0.048 A 
ATOM     13  C   UNL     1      -1.135   0.154   5.832  0.00  0.00    +0.077 A 
ATOM     14  N   UNL     1      -0.541   0.493   4.691  0.00  0.00    -0.214 NA
ATOM     15  H   UNL     1       0.561   0.891   2.441  0.00  0.00    +0.155 HD
BRANCH  13  16
ATOM     16  C   UNL     1      -1.110   1.073   6.996  0.00  0.00    +0.019 A 
ATOM     17  C   UNL     1      -0.563   2.355   6.878  0.00  0.00    +0.013 A 
ATOM     18  C   UNL     1      -0.565   3.174   7.993  0.00  0.00    +0.020 A 
ATOM     19  C   UNL     1      -1.101   2.704   9.178  0.00  0.00    +0.111 A 
ATOM     20  N   UNL     1      -1.610   1.490   9.259  0.00  0.00    -0.263 NA
ATOM     21  C   UNL     1      -1.636   0.676   8.223  0.00  0.00    +0.120 A 
ENDBRANCH  13  16
ENDBRANCH   7   8
BRANCH   5  22
ATOM     22  C   UNL     1      -0.193  -4.392   0.445  0.00  0.00    +0.248 C 
ATOM     23  O   UNL     1      -0.137  -4.910   1.543  0.00  0.00    -0.270 OA
ATOM     24  N   UNL     1      -0.282  -5.161  -0.658  0.00  0.00    -0.281 N 
ATOM     25  H   UNL     1      -0.240  -4.754  -1.538  0.00  0.00    +0.155 HD
BRANCH  24  26
ATOM     26  C   UNL     1      -0.434  -6.545  -0.536  0.00  0.00    +0.036 A 
ATOM     27  C   UNL     1       0.006  -7.386  -1.550  0.00  0.00    +0.035 A 
ATOM     28  C   UNL     1      -0.144  -8.754  -1.430  0.00  0.00    +0.059 A 
ATOM     29  C   UNL     1      -0.732  -9.290  -0.300  0.00  0.00    +0.038 A 
ATOM     30  C   UNL     1      -1.174  -8.456   0.718  0.00  0.00    +0.050 A 
ATOM     31  C   UNL     1      -1.019  -7.082   0.602  0.00  0.00    +0.049 A 
BRANCH  30  32
ATOM     32  N   UNL     1      -1.770  -9.001   1.864  0.00  0.00    -0.306 N 
ATOM     33  C   UNL     1      -2.256  -8.304   2.940  0.00  0.00    +0.115 A 
ATOM     34  C   UNL     1      -2.739  -9.213   3.808  0.00  0.00    +0.056 A 
ATOM     35  N   UNL     1      -2.555 -10.433   3.281  0.00  0.00    -0.241 NA
ATOM     36  C   UNL     1      -1.982 -10.319   2.115  0.00  0.00    +0.204 A 
ATOM     37  C   UNL     1      -3.375  -8.912   5.140  0.00  0.00    +0.067 C 
ENDBRANCH  30  32
BRANCH  28  38
ATOM     38  C   UNL     1       0.334  -9.663  -2.533  0.00  0.00    +0.418 C 
ATOM     39  F   UNL     1       0.888  -8.896  -3.563  0.00  0.00    -0.166 F 
ATOM     40  F   UNL     1       1.303 -10.538  -2.029  0.00  0.00    -0.166 F 
ATOM     41  F   UNL     1      -0.746 -10.401  -3.030  0.00  0.00    -0.166 F 
ENDBRANCH  28  38
ENDBRANCH  24  26
ENDBRANCH   5  22
TORSDOF 6
