REMARK  Name = CHEMBL1085511
REMARK  11 active torsions:
REMARK  status: ('A' for Active; 'I' for Inactive)
REMARK    1  A    between atoms: C_1  and  C_2
REMARK    2  A    between atoms: C_2  and  C_3
REMARK    3  A    between atoms: C_2  and  C_4
REMARK    4  A    between atoms: C_4  and  O_5
REMARK    5  A    between atoms: O_5  and  C_6
REMARK    6  A    between atoms: N_8  and  C_9
REMARK    7  A    between atoms: C_12  and  C_15
REMARK    8  A    between atoms: C_19  and  C_25
REMARK    9  A    between atoms: C_23  and  N_24
REMARK   10  A    between atoms: C_28  and  N_31
REMARK   11  A    between atoms: N_34  and  C_37
REMARK                            x       y       z     vdW  Elec       q    Type
REMARK                         _______ _______ _______ _____ _____    ______ ____
ROOT
ATOM      1  C   UNL     1       7.690  -1.831  -6.348  0.00  0.00    +0.040 A 
ATOM      2  C   UNL     1       7.908  -3.201  -6.574  0.00  0.00    +0.125 A 
ATOM      3  N   UNL     1       8.718  -3.592  -7.531  0.00  0.00    -0.235 NA
ATOM      4  C   UNL     1       9.354  -2.709  -8.310  0.00  0.00    +0.165 A 
ATOM      5  C   UNL     1      10.249  -2.866  -9.375  0.00  0.00    +0.046 A 
ATOM      6  C   UNL     1      10.595  -1.584  -9.819  0.00  0.00    +0.145 A 
ATOM      7  N   UNL     1       9.964  -0.698  -9.087  0.00  0.00    -0.171 NA
ATOM      8  N   UNL     1       9.180  -1.361  -8.136  0.00  0.00    -0.200 N 
ATOM      9  C   UNL     1       8.341  -0.904  -7.155  0.00  0.00    +0.129 A 
ENDROOT
BRANCH   1  13
ATOM     10  C   UNL     1       5.071  -0.541  -3.255  0.00  0.00    +0.036 A 
ATOM     11  C   UNL     1       4.569  -1.258  -4.334  0.00  0.00    +0.024 A 
ATOM     12  C   UNL     1       5.416  -1.677  -5.338  0.00  0.00    +0.010 A 
ATOM     13  C   UNL     1       6.777  -1.381  -5.270  0.00  0.00    -0.013 A 
ATOM     14  C   UNL     1       7.278  -0.661  -4.185  0.00  0.00    +0.010 A 
ATOM     15  C   UNL     1       6.426  -0.240  -3.187  0.00  0.00    +0.024 A 
BRANCH  10  18
ATOM     16  C   UNL     1       3.169  -0.890  -1.868  0.00  0.00    +0.405 C 
ATOM     17  O   UNL     1       2.932  -1.917  -2.472  0.00  0.00    -0.226 OA
ATOM     18  N   UNL     1       4.209  -0.116  -2.237  0.00  0.00    -0.251 N 
ATOM     19  H   UNL     1       4.360   0.735  -1.797  0.00  0.00    +0.158 HD
BRANCH  16  20
ATOM     20  O   UNL     1       2.393  -0.526  -0.829  0.00  0.00    -0.450 OA
BRANCH  20  21
ATOM     21  C   UNL     1       1.309  -1.394  -0.493  0.00  0.00    +0.236 C 
BRANCH  21  23
ATOM     22  C   UNL     1      -0.104   0.507   0.303  0.00  0.00    +0.010 C 
ATOM     23  C   UNL     1       0.547  -0.819   0.702  0.00  0.00    +0.021 C 
ATOM     24  C   UNL     1      -0.536  -1.807   1.140  0.00  0.00    +0.010 C 
ENDBRANCH  21  23
ENDBRANCH  20  21
ENDBRANCH  16  20
ENDBRANCH  10  18
ENDBRANCH   1  13
BRANCH   5  25
ATOM     25  C   UNL     1      10.740  -4.150  -9.928  0.00  0.00    -0.013 A 
ATOM     26  C   UNL     1      11.248  -5.130  -9.076  0.00  0.00    +0.010 A 
ATOM     27  C   UNL     1      11.703  -6.324  -9.593  0.00  0.00    +0.024 A 
ATOM     28  C   UNL     1      11.658  -6.551 -10.964  0.00  0.00    +0.030 A 
ATOM     29  C   UNL     1      11.153  -5.576 -11.816  0.00  0.00    +0.024 A 
ATOM     30  C   UNL     1      10.691  -4.383 -11.303  0.00  0.00    +0.010 A 
BRANCH  28  31
ATOM     31  N   UNL     1      12.121  -7.762 -11.486  0.00  0.00    -0.333 N 
ATOM     32  C   UNL     1      12.544  -8.857 -10.598  0.00  0.00    +0.086 C 
ATOM     33  C   UNL     1      11.836 -10.142 -11.040  0.00  0.00    -0.060 C 
ATOM     34  N   UNL     1      12.101 -10.380 -12.465  0.00  0.00    +0.380 N 
ATOM     35  C   UNL     1      11.508  -9.305 -13.270  0.00  0.00    -0.060 C 
ATOM     36  C   UNL     1      12.194  -7.981 -12.939  0.00  0.00    +0.086 C 
ATOM     37  C   UNL     1      11.514 -11.667 -12.861  0.00  0.00    -0.096 C 
ATOM     38  H   UNL     1      13.097 -10.405 -12.621  0.00  0.00    -0.082 HD
ENDBRANCH  28  31
ENDBRANCH   5  25
BRANCH   9  39
ATOM     39  N   UNL     1       8.149   0.446  -6.969  0.00  0.00    -0.343 N 
ATOM     40  H   UNL     1       7.555   0.759  -6.269  0.00  0.00    +0.144 HD
ATOM     41  H   UNL     1       8.608   1.084  -7.538  0.00  0.00    +0.144 HD
ENDBRANCH   9  39
TORSDOF 8
