REMARK  Name = CHEMBL1169876
REMARK  7 active torsions:
REMARK  status: ('A' for Active; 'I' for Inactive)
REMARK    1  A    between atoms: C_1  and  C_2
REMARK    2  A    between atoms: C_5  and  C_23
REMARK    3  A    between atoms: C_7  and  C_8
REMARK    4  A    between atoms: C_9  and  N_10
REMARK    5  A    between atoms: C_18  and  N_19
REMARK    6  A    between atoms: N_19  and  C_20
REMARK    7  A    between atoms: C_28  and  C_31
REMARK                            x       y       z     vdW  Elec       q    Type
REMARK                         _______ _______ _______ _____ _____    ______ ____
ROOT
ATOM      1  C   UNL     1      -0.018   1.503   0.010  0.00  0.00    +0.044 C 
ATOM      2  C   UNL     1       0.002  -0.004   0.002  0.00  0.00    -0.043 A 
ATOM      3  C   UNL     1       0.006  -0.686  -1.198  0.00  0.00    +0.004 A 
ATOM      4  C   UNL     1       0.024  -2.067  -1.215  0.00  0.00    +0.013 A 
ATOM      5  C   UNL     1       0.040  -2.783  -0.016  0.00  0.00    +0.038 A 
ATOM      6  C   UNL     1       0.037  -2.102   1.199  0.00  0.00    +0.021 A 
ATOM      7  C   UNL     1       0.023  -0.708   1.209  0.00  0.00    -0.020 A 
ENDROOT
BRANCH   5   8
ATOM      8  C   UNL     1       0.060  -4.261  -0.036  0.00  0.00    +0.249 C 
ATOM      9  O   UNL     1       0.073  -4.883   1.008  0.00  0.00    -0.270 OA
ATOM     10  N   UNL     1       0.062  -4.919  -1.213  0.00  0.00    -0.264 N 
ATOM     11  C   UNL     1       0.081  -6.313  -1.232  0.00  0.00    +0.168 A 
ATOM     12  C   UNL     1       0.092  -7.160  -0.101  0.00  0.00    +0.100 A 
ATOM     13  C   UNL     1       0.108  -8.433  -0.534  0.00  0.00    +0.242 A 
ATOM     14  O   UNL     1       0.107  -8.420  -1.876  0.00  0.00    -0.349 OA
ATOM     15  N   UNL     1       0.085  -7.069  -2.300  0.00  0.00    -0.062 NA
ATOM     16  H   UNL     1       0.051  -4.423  -2.046  0.00  0.00    +0.157 HD
BRANCH  13  17
ATOM     17  C   UNL     1       0.125  -9.663   0.338  0.00  0.00    +0.453 C 
ATOM     18  F   UNL     1      -1.189 -10.060   0.609  0.00  0.00    -0.163 F 
ATOM     19  F   UNL     1       0.797 -10.695  -0.325  0.00  0.00    -0.163 F 
ATOM     20  F   UNL     1       0.782  -9.374   1.539  0.00  0.00    -0.163 F 
ENDBRANCH  13  17
ENDBRANCH   5   8
BRANCH   7  21
ATOM     21  C   UNL     1       0.025   0.023   2.491  0.00  0.00    +0.026 C 
ATOM     22  C   UNL     1       0.045  -0.650   3.643  0.00  0.00    +0.095 C 
BRANCH  22  23
ATOM     23  N   UNL     1       0.047   0.038   4.852  0.00  0.00    -0.290 N 
ATOM     24  C   UNL     1       0.024   1.395   5.010  0.00  0.00    +0.206 A 
ATOM     25  N   UNL     1       0.034   1.694   6.276  0.00  0.00    -0.230 NA
ATOM     26  C   UNL     1       0.064   0.556   7.011  0.00  0.00    +0.148 A 
ATOM     27  C   UNL     1       0.067  -0.521   6.108  0.00  0.00    +0.169 A 
ATOM     28  N   UNL     1       0.089  -1.762   6.582  0.00  0.00    -0.216 NA
ATOM     29  C   UNL     1       0.104  -1.984   7.879  0.00  0.00    +0.225 A 
ATOM     30  N   UNL     1       0.100  -1.006   8.766  0.00  0.00    -0.219 NA
ATOM     31  C   UNL     1       0.086   0.268   8.386  0.00  0.00    +0.150 A 
BRANCH  31  32
ATOM     32  N   UNL     1       0.079   1.286   9.322  0.00  0.00    -0.324 N 
ATOM     33  H   UNL     1       0.059   2.212   9.033  0.00  0.00    +0.148 HD
BRANCH  32  34
ATOM     34  C   UNL     1       0.102   0.967  10.752  0.00  0.00    +0.072 C 
ATOM     35  C   UNL     1      -0.837   1.755  11.667  0.00  0.00    +0.024 C 
ATOM     36  C   UNL     1       0.669   2.023  11.703  0.00  0.00    +0.024 C 
ENDBRANCH  32  34
ENDBRANCH  31  32
ENDBRANCH  22  23
ENDBRANCH   7  21
TORSDOF 6
