REMARK  Name = CHEMBL58142
REMARK  4 active torsions:
REMARK  status: ('A' for Active; 'I' for Inactive)
REMARK    1  A    between atoms: C_3  and  N_16
REMARK    2  A    between atoms: C_5  and  N_7
REMARK    3  A    between atoms: C_8  and  C_10
REMARK    4  A    between atoms: C_21  and  C_23
REMARK                            x       y       z     vdW  Elec       q    Type
REMARK                         _______ _______ _______ _____ _____    ______ ____
ROOT
ATOM      1  C   UNL     1       0.028   1.777  -0.757  0.00  0.00    +0.004 A 
ATOM      2  C   UNL     1       1.209   2.476  -0.589  0.00  0.00    +0.023 A 
ATOM      3  C   UNL     1       2.376   1.800  -0.258  0.00  0.00    +0.035 A 
ATOM      4  C   UNL     1       2.356   0.421  -0.095  0.00  0.00    +0.046 A 
ATOM      5  C   UNL     1       1.169  -0.277  -0.264  0.00  0.00    +0.035 A 
ATOM      6  C   UNL     1       0.005   0.406  -0.596  0.00  0.00    +0.023 A 
ENDROOT
BRANCH   3   7
ATOM      7  N   UNL     1       3.571   2.507  -0.088  0.00  0.00    -0.284 N 
ATOM      8  C   UNL     1       3.548   3.789   0.437  0.00  0.00    +0.220 A 
ATOM      9  N   UNL     1       2.402   4.284   0.882  0.00  0.00    -0.223 NA
ATOM     10  C   UNL     1       2.339   5.504   1.391  0.00  0.00    +0.116 A 
ATOM     11  C   UNL     1       3.490   6.271   1.456  0.00  0.00    +0.048 A 
ATOM     12  C   UNL     1       4.683   5.722   0.978  0.00  0.00    +0.077 A 
ATOM     13  N   UNL     1       4.672   4.486   0.485  0.00  0.00    -0.214 NA
ATOM     14  H   UNL     1       4.415   2.100  -0.338  0.00  0.00    +0.155 HD
BRANCH  12  15
ATOM     15  C   UNL     1       5.942   6.503   1.025  0.00  0.00    +0.019 A 
ATOM     16  C   UNL     1       7.112   6.000   0.449  0.00  0.00    +0.013 A 
ATOM     17  C   UNL     1       8.262   6.767   0.519  0.00  0.00    +0.020 A 
ATOM     18  C   UNL     1       8.217   7.997   1.152  0.00  0.00    +0.111 A 
ATOM     19  N   UNL     1       7.098   8.446   1.687  0.00  0.00    -0.263 NA
ATOM     20  C   UNL     1       5.978   7.753   1.639  0.00  0.00    +0.120 A 
ENDBRANCH  12  15
ENDBRANCH   3   7
BRANCH   5  21
ATOM     21  N   UNL     1       1.145  -1.666  -0.101  0.00  0.00    -0.285 N 
ATOM     22  C   UNL     1       1.960  -2.254   0.797  0.00  0.00    +0.220 C 
ATOM     23  O   UNL     1       2.648  -1.573   1.528  0.00  0.00    -0.275 OA
ATOM     24  H   UNL     1       0.541  -2.206  -0.634  0.00  0.00    +0.155 HD
BRANCH  22  25
ATOM     25  C   UNL     1       2.018  -3.757   0.892  0.00  0.00    +0.075 C 
ATOM     26  C   UNL     1       0.630  -4.299   1.242  0.00  0.00    +0.013 C 
ATOM     27  C   UNL     1       0.689  -5.825   1.338  0.00  0.00    +0.001 C 
ATOM     28  C   UNL     1       1.685  -6.229   2.427  0.00  0.00    +0.000 C 
ATOM     29  C   UNL     1       3.072  -5.687   2.077  0.00  0.00    +0.001 C 
ATOM     30  C   UNL     1       3.013  -4.161   1.981  0.00  0.00    +0.013 C 
ENDBRANCH  22  25
ENDBRANCH   5  21
TORSDOF 4
