REMARK  Name = CHEMBL455384
REMARK  9 active torsions:
REMARK  status: ('A' for Active; 'I' for Inactive)
REMARK    1  A    between atoms: C_1  and  C_2
REMARK    2  A    between atoms: C_6  and  C_35
REMARK    3  A    between atoms: C_7  and  C_8
REMARK    4  A    between atoms: C_9  and  N_10
REMARK    5  A    between atoms: C_18  and  N_19
REMARK    6  A    between atoms: N_19  and  C_20
REMARK    7  A    between atoms: C_23  and  P_26
REMARK    8  A    between atoms: P_26  and  C_28
REMARK    9  A    between atoms: P_26  and  C_29
REMARK                            x       y       z     vdW  Elec       q    Type
REMARK                         _______ _______ _______ _____ _____    ______ ____
ROOT
ATOM      1  N   UNL     1      -1.177  -0.304   4.502  0.00  0.00    -0.290 N 
ATOM      2  C   UNL     1      -0.274   0.659   4.855  0.00  0.00    +0.206 A 
ATOM      3  N   UNL     1      -0.692   1.295   5.910  0.00  0.00    -0.230 NA
ATOM      4  C   UNL     1      -1.885   0.785   6.303  0.00  0.00    +0.148 A 
ATOM      5  C   UNL     1      -2.214  -0.243   5.403  0.00  0.00    +0.171 A 
ATOM      6  N   UNL     1      -3.353  -0.907   5.567  0.00  0.00    -0.192 NA
ATOM      7  C   UNL     1      -4.170  -0.606   6.561  0.00  0.00    +0.240 A 
ATOM      8  N   UNL     1      -3.902   0.357   7.431  0.00  0.00    -0.194 NA
ATOM      9  C   UNL     1      -2.782   1.067   7.348  0.00  0.00    +0.156 A 
ATOM     10  N   UNL     1      -5.356  -1.327   6.699  0.00  0.00    -0.274 N 
ATOM     11  C   UNL     1      -6.315  -1.145   7.664  0.00  0.00    +0.115 A 
ATOM     12  C   UNL     1      -7.284  -2.048   7.426  0.00  0.00    +0.130 A 
ATOM     13  N   UNL     1      -6.934  -2.765   6.347  0.00  0.00    -0.244 NA
ATOM     14  C   UNL     1      -5.785  -2.341   5.899  0.00  0.00    +0.206 A 
ENDROOT
BRANCH   1  16
ATOM     15  C   UNL     1      -0.001  -1.129   2.629  0.00  0.00    +0.026 C 
ATOM     16  C   UNL     1      -1.069  -1.181   3.428  0.00  0.00    +0.095 C 
BRANCH  15  23
ATOM     17  C   UNL     1       2.220  -2.947   2.263  0.00  0.00    +0.044 C 
ATOM     18  C   UNL     1       1.125  -2.855   1.232  0.00  0.00    -0.043 A 
ATOM     19  C   UNL     1       1.171  -3.646   0.103  0.00  0.00    +0.004 A 
ATOM     20  C   UNL     1       0.166  -3.563  -0.845  0.00  0.00    +0.001 A 
ATOM     21  C   UNL     1      -0.891  -2.689  -0.667  0.00  0.00    +0.004 A 
ATOM     22  C   UNL     1      -0.950  -1.892   0.458  0.00  0.00    -0.043 A 
ATOM     23  C   UNL     1       0.058  -1.974   1.421  0.00  0.00    -0.018 A 
ATOM     24  C   UNL     1      -2.102  -0.940   0.649  0.00  0.00    +0.044 C 
ENDBRANCH  15  23
ENDBRANCH   1  16
BRANCH   9  25
ATOM     25  N   UNL     1      -2.512   2.072   8.261  0.00  0.00    -0.298 N 
ATOM     26  H   UNL     1      -1.740   2.646   8.136  0.00  0.00    +0.154 HD
BRANCH  25  27
ATOM     27  C   UNL     1      -3.352   2.260   9.362  0.00  0.00    +0.032 A 
ATOM     28  C   UNL     1      -3.973   1.169   9.957  0.00  0.00    +0.024 A 
ATOM     29  C   UNL     1      -4.802   1.359  11.046  0.00  0.00    +0.013 A 
ATOM     30  C   UNL     1      -5.014   2.631  11.543  0.00  0.00    +0.011 A 
ATOM     31  C   UNL     1      -4.396   3.719  10.953  0.00  0.00    +0.013 A 
ATOM     32  C   UNL     1      -3.561   3.536   9.868  0.00  0.00    +0.024 A 
BRANCH  30  33
ATOM     33  P   UNL     1      -6.103   2.875  12.973  0.00  0.00    +0.111 P 
ATOM     34  O   UNL     1      -6.059   1.675  13.837  0.00  0.00    -0.317 OA
ATOM     35  C   UNL     1      -5.545   4.328  13.922  0.00  0.00    +0.085 C 
ATOM     36  C   UNL     1      -7.811   3.147  12.396  0.00  0.00    +0.085 C 
ENDBRANCH  30  33
ENDBRANCH  25  27
ENDBRANCH   9  25
TORSDOF 5
