REMARK  Name = CHEMBL272888
REMARK  9 active torsions:
REMARK  status: ('A' for Active; 'I' for Inactive)
REMARK    1  A    between atoms: C_1  and  C_2
REMARK    2  A    between atoms: C_5  and  N_31
REMARK    3  A    between atoms: C_7  and  C_8
REMARK    4  A    between atoms: N_10  and  C_11
REMARK    5  A    between atoms: N_17  and  C_18
REMARK    6  A    between atoms: C_21  and  N_24
REMARK    7  A    between atoms: N_27  and  C_30
REMARK    8  A    between atoms: C_32  and  C_34
REMARK    9  A    between atoms: C_38  and  C_40
REMARK                            x       y       z     vdW  Elec       q    Type
REMARK                         _______ _______ _______ _____ _____    ______ ____
ROOT
ATOM      1  C   UNL     1       0.359  -0.420   2.657  0.00  0.00    +0.249 C 
ATOM      2  O   UNL     1       0.777   0.717   2.761  0.00  0.00    -0.270 OA
ATOM      3  N   UNL     1      -0.130  -1.060   3.737  0.00  0.00    -0.279 N 
ATOM      4  H   UNL     1      -0.524  -1.941   3.642  0.00  0.00    +0.155 HD
ENDROOT
BRANCH   3   5
ATOM      5  C   UNL     1      -0.068  -0.453   4.999  0.00  0.00    +0.070 A 
ATOM      6  C   UNL     1      -0.217   0.924   5.135  0.00  0.00    +0.139 A 
ATOM      7  N   UNL     1      -0.153   1.463   6.341  0.00  0.00    -0.221 NA
ATOM      8  C   UNL     1       0.050   0.708   7.411  0.00  0.00    +0.220 A 
ATOM      9  N   UNL     1       0.196  -0.605   7.319  0.00  0.00    -0.221 NA
ATOM     10  C   UNL     1       0.137  -1.214   6.146  0.00  0.00    +0.139 A 
ATOM     11  N   UNL     1       0.111   1.309   8.659  0.00  0.00    -0.284 N 
ATOM     12  H   UNL     1      -0.075   2.256   8.751  0.00  0.00    +0.155 HD
BRANCH  11  13
ATOM     13  C   UNL     1       0.440   0.547   9.788  0.00  0.00    +0.034 A 
ATOM     14  C   UNL     1       1.351  -0.495   9.680  0.00  0.00    +0.025 A 
ATOM     15  C   UNL     1       1.676  -1.246  10.792  0.00  0.00    +0.025 A 
ATOM     16  C   UNL     1       1.092  -0.959  12.019  0.00  0.00    +0.030 A 
ATOM     17  C   UNL     1       0.181   0.084  12.127  0.00  0.00    +0.025 A 
ATOM     18  C   UNL     1      -0.140   0.838  11.015  0.00  0.00    +0.025 A 
BRANCH  16  19
ATOM     19  N   UNL     1       1.421  -1.720  13.146  0.00  0.00    -0.333 N 
ATOM     20  C   UNL     1       0.722  -1.519  14.425  0.00  0.00    +0.086 C 
ATOM     21  C   UNL     1       0.247  -2.882  14.939  0.00  0.00    -0.060 C 
ATOM     22  N   UNL     1       1.389  -3.802  15.010  0.00  0.00    +0.380 N 
ATOM     23  C   UNL     1       1.918  -4.050  13.663  0.00  0.00    -0.060 C 
ATOM     24  C   UNL     1       2.471  -2.748  13.085  0.00  0.00    +0.086 C 
ATOM     25  C   UNL     1       0.955  -5.073  15.605  0.00  0.00    -0.096 C 
ATOM     26  H   UNL     1       2.112  -3.394  15.584  0.00  0.00    -0.082 HD
ENDBRANCH  16  19
ENDBRANCH  11  13
ENDBRANCH   3   5
BRANCH   1  33
ATOM     27  C   UNL     1       1.572   0.902   0.389  0.00  0.00    +0.044 C 
ATOM     28  C   UNL     1       0.970  -0.472   0.242  0.00  0.00    -0.038 A 
ATOM     29  C   UNL     1       0.999  -1.111  -0.980  0.00  0.00    +0.006 A 
ATOM     30  C   UNL     1       0.448  -2.371  -1.120  0.00  0.00    +0.023 A 
ATOM     31  C   UNL     1      -0.139  -3.003  -0.030  0.00  0.00    +0.034 A 
ATOM     32  C   UNL     1      -0.173  -2.370   1.202  0.00  0.00    +0.036 A 
ATOM     33  C   UNL     1       0.387  -1.100   1.345  0.00  0.00    +0.042 A 
BRANCH  31  34
ATOM     34  N   UNL     1      -0.696  -4.278  -0.177  0.00  0.00    -0.281 N 
ATOM     35  C   UNL     1      -1.794  -4.619   0.526  0.00  0.00    +0.248 C 
ATOM     36  O   UNL     1      -2.356  -3.790   1.215  0.00  0.00    -0.270 OA
ATOM     37  H   UNL     1      -0.291  -4.916  -0.785  0.00  0.00    +0.155 HD
BRANCH  35  38
ATOM     38  C   UNL     1      -2.316  -6.000   0.458  0.00  0.00    +0.038 A 
ATOM     39  C   UNL     1      -1.669  -6.956  -0.329  0.00  0.00    +0.013 A 
ATOM     40  C   UNL     1      -2.161  -8.243  -0.387  0.00  0.00    +0.001 A 
ATOM     41  C   UNL     1      -3.293  -8.588   0.331  0.00  0.00    +0.012 A 
ATOM     42  C   UNL     1      -3.938  -7.646   1.113  0.00  0.00    +0.056 A 
ATOM     43  C   UNL     1      -3.453  -6.356   1.185  0.00  0.00    +0.025 A 
BRANCH  42  44
ATOM     44  C   UNL     1      -5.169  -8.031   1.891  0.00  0.00    +0.417 C 
ATOM     45  F   UNL     1      -5.461  -9.380   1.665  0.00  0.00    -0.166 F 
ATOM     46  F   UNL     1      -4.940  -7.826   3.256  0.00  0.00    -0.166 F 
ATOM     47  F   UNL     1      -6.248  -7.245   1.476  0.00  0.00    -0.166 F 
ENDBRANCH  42  44
ENDBRANCH  35  38
ENDBRANCH  31  34
ENDBRANCH   1  33
TORSDOF 7
