REMARK  Name = CHEMBL1213975
REMARK  9 active torsions:
REMARK  status: ('A' for Active; 'I' for Inactive)
REMARK    1  A    between atoms: C_1  and  N_2
REMARK    2  A    between atoms: C_3  and  C_5
REMARK    3  A    between atoms: C_7  and  O_11
REMARK    4  A    between atoms: O_11  and  C_12
REMARK    5  A    between atoms: C_15  and  N_18
REMARK    6  A    between atoms: N_21  and  C_22
REMARK    7  A    between atoms: C_25  and  C_28
REMARK    8  A    between atoms: C_28  and  N_29
REMARK    9  A    between atoms: N_32  and  C_35
REMARK                            x       y       z     vdW  Elec       q    Type
REMARK                         _______ _______ _______ _____ _____    ______ ____
ROOT
ATOM      1  N   UNL     1       1.590 -10.393  -2.403  0.00  0.00    -0.269 N 
ATOM      2  C   UNL     1       2.264 -11.203  -3.243  0.00  0.00    +0.308 C 
ATOM      3  O   UNL     1       2.853 -10.734  -4.198  0.00  0.00    -0.252 OA
ATOM      4  N   UNL     1       2.286 -12.533  -3.025  0.00  0.00    -0.269 N 
ATOM      5  H   UNL     1       1.067 -10.772  -1.680  0.00  0.00    +0.156 HD
ATOM      6  H   UNL     1       1.753 -12.916  -2.311  0.00  0.00    +0.156 HD
ENDROOT
BRANCH   1  10
ATOM      7  C   UNL     1       1.753  -6.258  -2.913  0.00  0.00    +0.129 A 
ATOM      8  C   UNL     1       1.765  -7.094  -4.020  0.00  0.00    +0.048 A 
ATOM      9  C   UNL     1       1.711  -8.464  -3.852  0.00  0.00    +0.027 A 
ATOM     10  C   UNL     1       1.645  -9.004  -2.574  0.00  0.00    +0.035 A 
ATOM     11  C   UNL     1       1.634  -8.166  -1.467  0.00  0.00    +0.027 A 
ATOM     12  C   UNL     1       1.693  -6.797  -1.636  0.00  0.00    +0.048 A 
BRANCH   7  13
ATOM     13  O   UNL     1       1.806  -4.910  -3.080  0.00  0.00    -0.456 OA
BRANCH  13  16
ATOM     14  C   UNL     1      -1.591  -4.305  -4.261  0.00  0.00    +0.129 A 
ATOM     15  C   UNL     1      -0.459  -4.995  -3.840  0.00  0.00    +0.079 A 
ATOM     16  C   UNL     1       0.681  -4.274  -3.496  0.00  0.00    +0.132 A 
ATOM     17  C   UNL     1       0.639  -2.885  -3.588  0.00  0.00    +0.066 A 
ATOM     18  C   UNL     1      -0.523  -2.271  -4.015  0.00  0.00    +0.115 A 
ATOM     19  N   UNL     1      -1.584  -2.979  -4.340  0.00  0.00    -0.250 NA
BRANCH  14  22
ATOM     20  C   UNL     1      -5.120  -5.136  -5.412  0.00  0.00    +0.128 C 
ATOM     21  N   UNL     1      -3.912  -4.393  -5.046  0.00  0.00    -0.313 N 
ATOM     22  C   UNL     1      -2.813  -5.056  -4.632  0.00  0.00    +0.262 C 
ATOM     23  O   UNL     1      -2.826  -6.269  -4.562  0.00  0.00    -0.269 OA
ATOM     24  H   UNL     1      -3.902  -3.425  -5.101  0.00  0.00    +0.149 HD
ENDBRANCH  14  22
ENDBRANCH  13  16
ENDBRANCH   7  13
ENDBRANCH   1  10
BRANCH   4  25
ATOM     25  C   UNL     1       3.078 -13.361  -3.828  0.00  0.00    +0.035 A 
ATOM     26  C   UNL     1       4.302 -12.907  -4.302  0.00  0.00    +0.023 A 
ATOM     27  C   UNL     1       5.081 -13.727  -5.095  0.00  0.00    +0.003 A 
ATOM     28  C   UNL     1       4.644 -14.999  -5.416  0.00  0.00    -0.064 A 
ATOM     29  C   UNL     1       3.426 -15.454  -4.946  0.00  0.00    +0.003 A 
ATOM     30  C   UNL     1       2.644 -14.641  -4.148  0.00  0.00    +0.023 A 
BRANCH  28  31
ATOM     31  C   UNL     1       5.496 -15.890  -6.282  0.00  0.00    -0.043 C 
BRANCH  31  32
ATOM     32  N   UNL     1       6.397 -16.681  -5.433  0.00  0.00    +0.384 N 
ATOM     33  C   UNL     1       7.339 -15.783  -4.750  0.00  0.00    -0.063 C 
ATOM     34  C   UNL     1       8.266 -16.604  -3.851  0.00  0.00    +0.065 C 
ATOM     35  N   UNL     1       8.998 -17.581  -4.669  0.00  0.00    -0.309 NA
ATOM     36  C   UNL     1       8.068 -18.471  -5.378  0.00  0.00    +0.065 C 
ATOM     37  C   UNL     1       7.143 -17.634  -6.265  0.00  0.00    -0.063 C 
ATOM     38  C   UNL     1       9.942 -18.352  -3.849  0.00  0.00    +0.104 C 
ATOM     39  H   UNL     1       5.856 -17.185  -4.746  0.00  0.00    -0.081 HD
ENDBRANCH  31  32
ENDBRANCH  28  31
ENDBRANCH   4  25
TORSDOF 7
