REMARK  Name = CHEMBL509941
REMARK  10 active torsions:
REMARK  status: ('A' for Active; 'I' for Inactive)
REMARK    1  A    between atoms: C_1  and  C_2
REMARK    2  A    between atoms: C_6  and  C_37
REMARK    3  A    between atoms: C_7  and  C_8
REMARK    4  A    between atoms: C_9  and  N_10
REMARK    5  A    between atoms: C_18  and  N_19
REMARK    6  A    between atoms: N_19  and  C_20
REMARK    7  A    between atoms: C_23  and  P_26
REMARK    8  A    between atoms: P_26  and  C_28
REMARK    9  A    between atoms: P_26  and  C_29
REMARK   10  A    between atoms: N_33  and  C_36
REMARK                            x       y       z     vdW  Elec       q    Type
REMARK                         _______ _______ _______ _____ _____    ______ ____
ROOT
ATOM      1  N   UNL     1      -1.231   0.320   4.580  0.00  0.00    -0.290 N 
ATOM      2  C   UNL     1      -0.610   1.507   4.853  0.00  0.00    +0.206 A 
ATOM      3  N   UNL     1      -1.029   1.975   5.992  0.00  0.00    -0.230 NA
ATOM      4  C   UNL     1      -1.942   1.125   6.524  0.00  0.00    +0.148 A 
ATOM      5  C   UNL     1      -2.088   0.056   5.623  0.00  0.00    +0.171 A 
ATOM      6  N   UNL     1      -2.939  -0.923   5.912  0.00  0.00    -0.194 NA
ATOM      7  C   UNL     1      -3.644  -0.893   7.031  0.00  0.00    +0.221 A 
ATOM      8  N   UNL     1      -3.541   0.098   7.907  0.00  0.00    -0.197 NA
ATOM      9  C   UNL     1      -2.708   1.113   7.702  0.00  0.00    +0.156 A 
ATOM     10  N   UNL     1      -4.521  -1.932   7.297  0.00  0.00    -0.303 N 
ATOM     11  C   UNL     1      -4.751  -2.999   6.310  0.00  0.00    +0.089 C 
ATOM     12  C   UNL     1      -4.585  -4.351   7.010  0.00  0.00    -0.060 C 
ATOM     13  N   UNL     1      -5.470  -4.408   8.181  0.00  0.00    +0.380 N 
ATOM     14  C   UNL     1      -5.059  -3.400   9.166  0.00  0.00    -0.060 C 
ATOM     15  C   UNL     1      -5.245  -2.003   8.575  0.00  0.00    +0.089 C 
ATOM     16  C   UNL     1      -5.392  -5.743   8.787  0.00  0.00    -0.096 C 
ATOM     17  H   UNL     1      -6.419  -4.227   7.892  0.00  0.00    -0.082 HD
ENDROOT
BRANCH   1  19
ATOM     18  C   UNL     1      -0.169  -0.093   2.513  0.00  0.00    +0.026 C 
ATOM     19  C   UNL     1      -1.037  -0.472   3.454  0.00  0.00    +0.095 C 
BRANCH  18  26
ATOM     20  C   UNL     1       2.401  -1.186   1.759  0.00  0.00    +0.044 C 
ATOM     21  C   UNL     1       1.189  -1.405   0.891  0.00  0.00    -0.043 A 
ATOM     22  C   UNL     1       1.296  -2.137  -0.273  0.00  0.00    +0.004 A 
ATOM     23  C   UNL     1       0.184  -2.339  -1.072  0.00  0.00    +0.001 A 
ATOM     24  C   UNL     1      -1.041  -1.809  -0.710  0.00  0.00    +0.004 A 
ATOM     25  C   UNL     1      -1.162  -1.075   0.452  0.00  0.00    -0.043 A 
ATOM     26  C   UNL     1      -0.046  -0.872   1.266  0.00  0.00    -0.018 A 
ATOM     27  C   UNL     1      -2.498  -0.498   0.845  0.00  0.00    +0.044 C 
ENDBRANCH  18  26
ENDBRANCH   1  19
BRANCH   9  28
ATOM     28  N   UNL     1      -2.608   2.143   8.621  0.00  0.00    -0.298 N 
ATOM     29  H   UNL     1      -2.066   2.922   8.420  0.00  0.00    +0.154 HD
BRANCH  28  30
ATOM     30  C   UNL     1      -3.289   2.061   9.839  0.00  0.00    +0.032 A 
ATOM     31  C   UNL     1      -3.462   0.830  10.458  0.00  0.00    +0.024 A 
ATOM     32  C   UNL     1      -4.135   0.753  11.662  0.00  0.00    +0.013 A 
ATOM     33  C   UNL     1      -4.636   1.899  12.251  0.00  0.00    +0.011 A 
ATOM     34  C   UNL     1      -4.466   3.127  11.636  0.00  0.00    +0.013 A 
ATOM     35  C   UNL     1      -3.789   3.212  10.436  0.00  0.00    +0.024 A 
BRANCH  33  36
ATOM     36  P   UNL     1      -5.520   1.793  13.831  0.00  0.00    +0.111 P 
ATOM     37  O   UNL     1      -4.992   0.655  14.616  0.00  0.00    -0.317 OA
ATOM     38  C   UNL     1      -5.281   3.340  14.766  0.00  0.00    +0.085 C 
ATOM     39  C   UNL     1      -7.298   1.542  13.517  0.00  0.00    +0.085 C 
ENDBRANCH  33  36
ENDBRANCH  28  30
ENDBRANCH   9  28
TORSDOF 5
