REMARK  Name = CHEMBL564829
REMARK  8 active torsions:
REMARK  status: ('A' for Active; 'I' for Inactive)
REMARK    1  A    between atoms: C_1  and  C_2
REMARK    2  A    between atoms: C_2  and  C_34
REMARK    3  A    between atoms: C_12  and  C_16
REMARK    4  A    between atoms: N_14  and  C_15
REMARK    5  A    between atoms: N_18  and  C_19
REMARK    6  A    between atoms: N_20  and  C_21
REMARK    7  A    between atoms: C_24  and  N_27
REMARK    8  A    between atoms: N_30  and  C_33
REMARK                            x       y       z     vdW  Elec       q    Type
REMARK                         _______ _______ _______ _____ _____    ______ ____
ROOT
ATOM      1  C   UNL     1      -0.715   1.063   2.290  0.00  0.00    +0.016 C 
ATOM      2  C   UNL     1      -0.573  -0.412   1.909  0.00  0.00    -0.001 C 
ATOM      3  C   UNL     1      -0.314  -0.526   0.406  0.00  0.00    +0.050 C 
ATOM      4  C   UNL     1       0.173  -1.891   0.012  0.00  0.00    -0.001 A 
ATOM      5  C   UNL     1      -0.189  -2.448  -1.200  0.00  0.00    +0.120 A 
ATOM      6  N   UNL     1       0.282  -3.643  -1.526  0.00  0.00    -0.222 NA
ATOM      7  C   UNL     1       1.093  -4.310  -0.717  0.00  0.00    +0.220 A 
ATOM      8  N   UNL     1       1.458  -3.819   0.460  0.00  0.00    -0.212 NA
ATOM      9  C   UNL     1       1.010  -2.637   0.854  0.00  0.00    +0.097 A 
ATOM     10  C   UNL     1       1.315  -2.069   2.179  0.00  0.00    +0.092 A 
ATOM     11  C   UNL     1       0.571  -1.016   2.669  0.00  0.00    +0.018 A 
ATOM     12  C   UNL     1       1.119  -0.718   3.916  0.00  0.00    +0.151 A 
ATOM     13  N   UNL     1       2.104  -1.579   4.126  0.00  0.00    -0.166 NA
ATOM     14  N   UNL     1       2.221  -2.385   3.124  0.00  0.00    -0.264 N 
ATOM     15  C   UNL     1       3.193  -3.477   3.029  0.00  0.00    +0.173 C 
ATOM     16  N   UNL     1       1.570  -5.549  -1.110  0.00  0.00    -0.284 N 
ATOM     17  C   UNL     1      -1.865  -1.154   2.259  0.00  0.00    +0.016 C 
ATOM     18  H   UNL     1       2.100  -6.082  -0.497  0.00  0.00    +0.155 HD
ENDROOT
BRANCH  16  19
ATOM     19  C   UNL     1       1.287  -6.034  -2.394  0.00  0.00    +0.034 A 
ATOM     20  C   UNL     1       1.157  -5.149  -3.457  0.00  0.00    +0.025 A 
ATOM     21  C   UNL     1       0.878  -5.627  -4.722  0.00  0.00    +0.025 A 
ATOM     22  C   UNL     1       0.728  -6.991  -4.932  0.00  0.00    +0.030 A 
ATOM     23  C   UNL     1       0.858  -7.876  -3.869  0.00  0.00    +0.025 A 
ATOM     24  C   UNL     1       1.142  -7.399  -2.605  0.00  0.00    +0.025 A 
BRANCH  22  25
ATOM     25  N   UNL     1       0.444  -7.475  -6.214  0.00  0.00    -0.333 N 
ATOM     26  C   UNL     1       0.156  -8.900  -6.438  0.00  0.00    +0.086 C 
ATOM     27  C   UNL     1      -1.140  -9.012  -7.249  0.00  0.00    -0.060 C 
ATOM     28  N   UNL     1      -1.017  -8.218  -8.478  0.00  0.00    +0.380 N 
ATOM     29  C   UNL     1      -0.882  -6.795  -8.142  0.00  0.00    -0.060 C 
ATOM     30  C   UNL     1       0.420  -6.572  -7.375  0.00  0.00    +0.086 C 
ATOM     31  C   UNL     1      -2.214  -8.413  -9.306  0.00  0.00    -0.096 C 
ATOM     32  H   UNL     1      -0.203  -8.519  -8.992  0.00  0.00    -0.082 HD
ENDBRANCH  22  25
ENDBRANCH  16  19
BRANCH  12  33
ATOM     33  C   UNL     1       0.684   0.357   4.832  0.00  0.00    +0.264 C 
ATOM     34  O   UNL     1      -0.349   0.238   5.462  0.00  0.00    -0.268 OA
ATOM     35  N   UNL     1       1.431   1.470   4.968  0.00  0.00    -0.313 N 
ATOM     36  C   UNL     1       0.999   2.536   5.876  0.00  0.00    +0.128 C 
ATOM     37  H   UNL     1       2.255   1.566   4.466  0.00  0.00    +0.149 HD
ENDBRANCH  12  33
TORSDOF 3
