REMARK  Name = CHEMBL122068
REMARK  2 active torsions:
REMARK  status: ('A' for Active; 'I' for Inactive)
REMARK    1  A    between atoms: C_3  and  N_8
REMARK    2  A    between atoms: C_11  and  N_20
REMARK                            x       y       z     vdW  Elec       q    Type
REMARK                         _______ _______ _______ _____ _____    ______ ____
ROOT
ATOM      1  N   UNL     1       3.582   2.124  -0.021  0.00  0.00    -0.297 N 
ATOM      2  C   UNL     1       4.799   1.445   0.069  0.00  0.00    +0.157 A 
ATOM      3  C   UNL     1       6.122   2.053   0.175  0.00  0.00    +0.100 A 
ATOM      4  C   UNL     1       6.607   3.372   0.221  0.00  0.00    +0.134 A 
ATOM      5  N   UNL     1       7.918   3.560   0.324  0.00  0.00    -0.199 NA
ATOM      6  C   UNL     1       8.756   2.531   0.383  0.00  0.00    +0.216 A 
ATOM      7  N   UNL     1       8.343   1.276   0.343  0.00  0.00    -0.195 NA
ATOM      8  C   UNL     1       7.045   0.991   0.241  0.00  0.00    +0.164 A 
ATOM      9  N   UNL     1       6.323  -0.162   0.178  0.00  0.00    -0.258 N 
ATOM     10  N   UNL     1       4.963   0.147   0.079  0.00  0.00    -0.156 NA
ATOM     11  H   UNL     1       6.695  -1.058   0.202  0.00  0.00    +0.191 HD
ATOM     12  N   UNL     1      10.112   2.783   0.490  0.00  0.00    -0.327 N 
ATOM     13  H   UNL     1       3.558   3.090   0.065  0.00  0.00    +0.154 HD
ATOM     14  H   UNL     1      10.435   3.697   0.521  0.00  0.00    +0.145 HD
ATOM     15  H   UNL     1      10.740   2.045   0.535  0.00  0.00    +0.145 HD
ENDROOT
BRANCH   1  18
ATOM     16  C   UNL     1       0.025   1.200   0.033  0.00  0.00    +0.003 A 
ATOM     17  C   UNL     1       1.193   1.905   0.246  0.00  0.00    +0.023 A 
ATOM     18  C   UNL     1       2.399   1.412  -0.235  0.00  0.00    +0.034 A 
ATOM     19  C   UNL     1       2.427   0.209  -0.930  0.00  0.00    +0.043 A 
ATOM     20  C   UNL     1       1.255  -0.492  -1.140  0.00  0.00    +0.043 A 
ATOM     21  C   UNL     1       0.055   0.003  -0.659  0.00  0.00    +0.020 A 
ATOM     22 CL   UNL     1       1.287  -1.995  -2.009  0.00  0.00    -0.083 Cl
ENDBRANCH   1  18
BRANCH   4  23
ATOM     23  N   UNL     1       5.742   4.446   0.160  0.00  0.00    -0.342 N 
ATOM     24  H   UNL     1       4.787   4.295   0.084  0.00  0.00    +0.144 HD
ATOM     25  H   UNL     1       6.089   5.351   0.192  0.00  0.00    +0.144 HD
ENDBRANCH   4  23
TORSDOF 2
