REMARK  Name = CHEMBL477139
REMARK  3 active torsions:
REMARK  status: ('A' for Active; 'I' for Inactive)
REMARK    1  A    between atoms: C_1  and  O_2
REMARK    2  A    between atoms: O_2  and  C_3
REMARK    3  A    between atoms: C_16  and  C_18
REMARK                            x       y       z     vdW  Elec       q    Type
REMARK                         _______ _______ _______ _____ _____    ______ ____
ROOT
ATOM      1  C   UNL     1      -1.200  -0.637   0.010  0.00  0.00    +0.120 A 
ATOM      2  C   UNL     1      -2.375   0.103   0.020  0.00  0.00    +0.046 A 
ATOM      3  C   UNL     1      -3.598  -0.534   0.028  0.00  0.00    +0.014 A 
ATOM      4  C   UNL     1      -3.654  -1.929   0.027  0.00  0.00    +0.005 A 
ATOM      5  C   UNL     1      -2.474  -2.663   0.017  0.00  0.00    -0.030 A 
ATOM      6  C   UNL     1      -1.254  -2.026   0.003  0.00  0.00    +0.050 A 
ATOM      7  C   UNL     1      -2.866  -4.121   0.019  0.00  0.00    +0.080 C 
ATOM      8  C   UNL     1      -4.359  -4.131   0.031  0.00  0.00    +0.023 A 
ATOM      9  C   UNL     1      -4.837  -2.852   0.036  0.00  0.00    +0.084 A 
ATOM     10  N   UNL     1      -6.178  -2.710   0.046  0.00  0.00    -0.224 NA
ATOM     11  C   UNL     1      -6.996  -3.739   0.052  0.00  0.00    +0.165 A 
ATOM     12  S   UNL     1      -5.844  -5.106   0.042  0.00  0.00    -0.056 S 
ATOM     13  N   UNL     1      -8.384  -3.759   0.063  0.00  0.00    -0.260 N 
ATOM     14  C   UNL     1      -9.075  -2.601   0.068  0.00  0.00    +0.256 C 
ATOM     15  O   UNL     1      -8.481  -1.538   0.064  0.00  0.00    -0.269 OA
ATOM     16  H   UNL     1      -8.857  -4.605   0.066  0.00  0.00    +0.157 HD
ENDROOT
BRANCH  14  17
ATOM     17  C   UNL     1     -10.540  -2.622   0.080  0.00  0.00    +0.074 A 
ATOM     18  C   UNL     1     -11.429  -1.558   0.081  0.00  0.00    +0.021 A 
ATOM     19  C   UNL     1     -12.761  -1.894   0.092  0.00  0.00    +0.008 A 
ATOM     20  C   UNL     1     -13.111  -3.204   0.101  0.00  0.00    +0.046 A 
ATOM     21  S   UNL     1     -11.643  -4.022   0.087  0.00  0.00    -0.092 S 
ENDBRANCH  14  17
BRANCH   1  23
ATOM     22  C   UNL     1      -0.017   1.425   0.010  0.00  0.00    +0.277 C 
ATOM     23  O   UNL     1       0.002  -0.004   0.002  0.00  0.00    -0.495 OA
ENDBRANCH   1  23
TORSDOF 2
