REMARK  Name = CHEMBL288441
REMARK  13 active torsions:
REMARK  status: ('A' for Active; 'I' for Inactive)
REMARK    1  A    between atoms: C_1  and  N_2
REMARK    2  A    between atoms: N_5  and  C_8
REMARK    3  A    between atoms: C_8  and  C_9
REMARK    4  A    between atoms: C_9  and  C_10
REMARK    5  A    between atoms: C_10  and  O_11
REMARK    6  A    between atoms: O_11  and  C_12
REMARK    7  A    between atoms: C_17  and  O_18
REMARK    8  A    between atoms: O_18  and  C_19
REMARK    9  A    between atoms: C_20  and  N_26
REMARK   10  A    between atoms: C_21  and  C_24
REMARK   11  A    between atoms: N_26  and  C_27
REMARK   12  A    between atoms: C_29  and  O_35
REMARK   13  A    between atoms: O_35  and  C_36
REMARK                            x       y       z     vdW  Elec       q    Type
REMARK                         _______ _______ _______ _____ _____    ______ ____
ROOT
ATOM      1  C   UNL     1       2.999 -10.904   1.573  0.00  0.00    +0.164 A 
ATOM      2  C   UNL     1       1.640 -10.740   1.427  0.00  0.00    +0.077 A 
ATOM      3  C   UNL     1       0.779 -11.097   2.476  0.00  0.00    +0.077 A 
ATOM      4  C   UNL     1       1.328 -11.621   3.671  0.00  0.00    +0.026 A 
ATOM      5  C   UNL     1       2.716 -11.779   3.794  0.00  0.00    +0.061 A 
ATOM      6  C   UNL     1       3.533 -11.430   2.758  0.00  0.00    +0.162 A 
ATOM      7  C   UNL     1       0.457 -11.980   4.726  0.00  0.00    +0.060 A 
ATOM      8  C   UNL     1      -0.920 -11.795   4.531  0.00  0.00    +0.091 A 
ATOM      9  C   UNL     1      -1.376 -11.268   3.312  0.00  0.00    +0.132 A 
ATOM     10  N   UNL     1      -0.548 -10.945   2.351  0.00  0.00    -0.253 NA
ENDROOT
BRANCH   6  11
ATOM     11  O   UNL     1       4.879 -11.588   2.878  0.00  0.00    -0.491 OA
ATOM     12  C   UNL     1       5.361 -12.128   4.110  0.00  0.00    +0.277 C 
ENDBRANCH   6  11
BRANCH   8  13
ATOM     13  C   UNL     1      -1.850 -12.140   5.563  0.00  0.00    +0.103 C 
ATOM     14  N   UNL     1      -2.588 -12.414   6.382  0.00  0.00    -0.191 NA
ENDBRANCH   8  13
BRANCH   7  15
ATOM     15  N   UNL     1       0.946 -12.496   5.910  0.00  0.00    -0.312 N 
ATOM     16  H   UNL     1       1.079 -11.914   6.674  0.00  0.00    +0.152 HD
BRANCH  15  17
ATOM     17  C   UNL     1       1.250 -13.857   6.007  0.00  0.00    +0.053 A 
ATOM     18  C   UNL     1       1.174 -14.668   4.882  0.00  0.00    +0.071 A 
ATOM     19  C   UNL     1       1.476 -16.017   4.981  0.00  0.00    +0.140 A 
ATOM     20  C   UNL     1       1.853 -16.555   6.205  0.00  0.00    +0.084 A 
ATOM     21  C   UNL     1       1.929 -15.747   7.324  0.00  0.00    +0.045 A 
ATOM     22  C   UNL     1       1.634 -14.400   7.228  0.00  0.00    +0.064 A 
ATOM     23 CL   UNL     1       1.737 -13.386   8.633  0.00  0.00    -0.082 Cl
ATOM     24 CL   UNL     1       2.231 -18.245   6.328  0.00  0.00    -0.080 Cl
BRANCH  19  25
ATOM     25  O   UNL     1       1.402 -16.813   3.882  0.00  0.00    -0.494 OA
ATOM     26  C   UNL     1       1.125 -16.172   2.635  0.00  0.00    +0.277 C 
ENDBRANCH  19  25
ENDBRANCH  15  17
ENDBRANCH   7  15
BRANCH   1  27
ATOM     27  O   UNL     1       3.831 -10.558   0.556  0.00  0.00    -0.488 OA
BRANCH  27  28
ATOM     28  C   UNL     1       3.226 -10.028  -0.625  0.00  0.00    +0.230 C 
BRANCH  28  29
ATOM     29  C   UNL     1       4.312  -9.699  -1.651  0.00  0.00    +0.056 C 
BRANCH  29  30
ATOM     30  C   UNL     1       3.665  -9.132  -2.916  0.00  0.00    +0.087 C 
BRANCH  30  35
ATOM     31  C   UNL     1       6.990  -8.580  -7.431  0.00  0.00    -0.096 C 
ATOM     32  N   UNL     1       5.920  -8.925  -6.485  0.00  0.00    +0.379 N 
ATOM     33  C   UNL     1       5.280  -7.695  -6.000  0.00  0.00    -0.064 C 
ATOM     34  C   UNL     1       4.154  -8.054  -5.029  0.00  0.00    +0.066 C 
ATOM     35  N   UNL     1       4.708  -8.816  -3.900  0.00  0.00    -0.306 NA
ATOM     36  C   UNL     1       5.374 -10.038  -4.373  0.00  0.00    +0.066 C 
ATOM     37  C   UNL     1       6.490  -9.662  -5.349  0.00  0.00    -0.064 C 
ATOM     38  H   UNL     1       5.234  -9.500  -6.949  0.00  0.00    -0.082 HD
ENDBRANCH  30  35
ENDBRANCH  29  30
ENDBRANCH  28  29
ENDBRANCH  27  28
ENDBRANCH   1  27
TORSDOF 10
