REMARK  Name = CHEMBL206046
REMARK  4 active torsions:
REMARK  status: ('A' for Active; 'I' for Inactive)
REMARK    1  A    between atoms: C_4  and  C_7
REMARK    2  A    between atoms: C_7  and  C_8
REMARK    3  A    between atoms: C_8  and  C_9
REMARK    4  A    between atoms: C_15  and  C_17
REMARK                            x       y       z     vdW  Elec       q    Type
REMARK                         _______ _______ _______ _____ _____    ______ ____
ROOT
ATOM      1  C   UNL     1       5.487  -1.699   1.381  0.00  0.00    +0.104 A 
ATOM      2  N   UNL     1       6.719  -1.231   1.377  0.00  0.00    -0.145 NA
ATOM      3  N   UNL     1       7.726  -1.991   1.362  0.00  0.00    -0.126 NA
ATOM      4  C   UNL     1       7.605  -3.311   1.350  0.00  0.00    +0.188 A 
ATOM      5  S   UNL     1       5.821  -3.458   1.369  0.00  0.00    -0.035 S 
ATOM      6  N   UNL     1       8.584  -4.298   1.333  0.00  0.00    -0.259 N 
ATOM      7  C   UNL     1       9.887  -3.955   1.327  0.00  0.00    +0.250 C 
ATOM      8  O   UNL     1      10.207  -2.782   1.337  0.00  0.00    -0.270 OA
ATOM      9  H   UNL     1       8.329  -5.234   1.325  0.00  0.00    +0.157 HD
ENDROOT
BRANCH   7  10
ATOM     10  C   UNL     1      10.927  -5.004   1.309  0.00  0.00    +0.037 A 
ATOM     11  C   UNL     1      10.563  -6.352   1.292  0.00  0.00    +0.014 A 
ATOM     12  C   UNL     1      11.539  -7.327   1.275  0.00  0.00    +0.015 A 
ATOM     13  C   UNL     1      12.877  -6.971   1.275  0.00  0.00    +0.013 A 
ATOM     14  C   UNL     1      13.244  -5.636   1.291  0.00  0.00    +0.015 A 
ATOM     15  C   UNL     1      12.278  -4.652   1.303  0.00  0.00    +0.014 A 
ATOM     16  I   UNL     1      14.352  -8.459   1.250  0.00  0.00    -0.044 I 
ENDBRANCH   7  10
BRANCH   1  17
ATOM     17  C   UNL     1       4.171  -0.963   1.399  0.00  0.00    +0.069 C 
BRANCH  17  18
ATOM     18  C   UNL     1       3.711  -0.707  -0.038  0.00  0.00    +0.042 C 
BRANCH  18  22
ATOM     19  C   UNL     1      -0.017   1.378   0.010  0.00  0.00    +0.000 A 
ATOM     20  C   UNL     1       1.171   2.086   0.002  0.00  0.00    +0.000 A 
ATOM     21  C   UNL     1       2.377   1.411  -0.013  0.00  0.00    +0.003 A 
ATOM     22  C   UNL     1       2.396   0.029  -0.020  0.00  0.00    -0.047 A 
ATOM     23  C   UNL     1       1.208  -0.679  -0.012  0.00  0.00    +0.003 A 
ATOM     24  C   UNL     1       0.002  -0.004   0.002  0.00  0.00    +0.000 A 
ENDBRANCH  18  22
ENDBRANCH  17  18
ENDBRANCH   1  17
TORSDOF 4
