REMARK  Name = CHEMBL538337
REMARK  14 active torsions:
REMARK  status: ('A' for Active; 'I' for Inactive)
REMARK    1  A    between atoms: C_1  and  C_2
REMARK    2  A    between atoms: C_5  and  N_21
REMARK    3  A    between atoms: C_7  and  N_8
REMARK    4  A    between atoms: C_13  and  C_15
REMARK    5  A    between atoms: N_21  and  C_22
REMARK    6  A    between atoms: C_22  and  C_23
REMARK    7  A    between atoms: C_22  and  O_44
REMARK    8  A    between atoms: C_26  and  C_33
REMARK    9  A    between atoms: C_27  and  C_29
REMARK   10  A    between atoms: C_33  and  N_34
REMARK   11  A    between atoms: C_37  and  C_40
REMARK   12  A    between atoms: C_40  and  N_41
REMARK   13  A    between atoms: N_41  and  C_42
REMARK   14  A    between atoms: N_41  and  C_43
REMARK                            x       y       z     vdW  Elec       q    Type
REMARK                         _______ _______ _______ _____ _____    ______ ____
ROOT
ATOM      1  C   UNL     1       2.521  -5.699  -1.024  0.00  0.00    +0.232 C 
ENDROOT
BRANCH   1   2
ATOM      2  C   UNL     1       1.718  -6.944  -0.746  0.00  0.00    -0.001 A 
ATOM      3  C   UNL     1       1.607  -7.420   0.547  0.00  0.00    +0.008 A 
ATOM      4  C   UNL     1       0.871  -8.562   0.802  0.00  0.00    +0.006 A 
ATOM      5  C   UNL     1       0.246  -9.227  -0.236  0.00  0.00    -0.022 A 
ATOM      6  C   UNL     1       0.356  -8.750  -1.529  0.00  0.00    +0.060 A 
ATOM      7  C   UNL     1       1.089  -7.606  -1.783  0.00  0.00    +0.020 A 
BRANCH   6   8
ATOM      8  C   UNL     1      -0.326  -9.476  -2.660  0.00  0.00    +0.418 C 
ATOM      9  F   UNL     1      -0.043  -8.827  -3.867  0.00  0.00    -0.166 F 
ATOM     10  F   UNL     1       0.141 -10.793  -2.718  0.00  0.00    -0.166 F 
ATOM     11  F   UNL     1      -1.708  -9.480  -2.446  0.00  0.00    -0.166 F 
ENDBRANCH   6   8
BRANCH   5  12
ATOM     12  C   UNL     1      -0.556 -10.473   0.042  0.00  0.00    +0.120 C 
BRANCH  12  13
ATOM     13  N   UNL     1      -1.982 -10.129   0.125  0.00  0.00    -0.298 NA
ATOM     14  C   UNL     1      -2.284  -9.413   1.392  0.00  0.00    +0.085 C 
ATOM     15  C   UNL     1      -3.803  -9.601   1.592  0.00  0.00    +0.018 C 
ATOM     16  C   UNL     1      -4.157 -10.876   0.800  0.00  0.00    -0.012 C 
ATOM     17  C   UNL     1      -2.822 -11.352   0.188  0.00  0.00    +0.086 C 
BRANCH  16  18
ATOM     18  C   UNL     1      -4.724 -11.944   1.738  0.00  0.00    -0.075 C 
BRANCH  18  19
ATOM     19  N   UNL     1      -6.018 -11.492   2.268  0.00  0.00    +0.376 N 
ATOM     20  C   UNL     1      -6.987 -11.385   1.170  0.00  0.00    -0.097 C 
ATOM     21  C   UNL     1      -6.506 -12.461   3.259  0.00  0.00    -0.097 C 
ATOM     22  H   UNL     1      -5.905 -10.591   2.707  0.00  0.00    -0.083 HD
ENDBRANCH  18  19
ENDBRANCH  16  18
ENDBRANCH  12  13
ENDBRANCH   5  12
ENDBRANCH   1   2
BRANCH   1  23
ATOM     23  N   UNL     1       2.478  -4.819   0.146  0.00  0.00    -0.316 N 
ATOM     24  H   UNL     1       2.446  -5.199   1.038  0.00  0.00    +0.149 HD
BRANCH  23  29
ATOM     25  C   UNL     1       2.501   0.814  -0.554  0.00  0.00    +0.045 C 
ATOM     26  C   UNL     1       2.495  -0.682  -0.366  0.00  0.00    -0.029 A 
ATOM     27  C   UNL     1       2.688  -1.514  -1.452  0.00  0.00    +0.007 A 
ATOM     28  C   UNL     1       2.683  -2.885  -1.285  0.00  0.00    +0.023 A 
ATOM     29  C   UNL     1       2.483  -3.432  -0.022  0.00  0.00    +0.031 A 
ATOM     30  C   UNL     1       2.289  -2.599   1.070  0.00  0.00    +0.046 A 
ATOM     31  C   UNL     1       2.300  -1.222   0.899  0.00  0.00    +0.038 A 
BRANCH  31  32
ATOM     32  N   UNL     1       2.111  -0.379   1.998  0.00  0.00    -0.283 N 
ATOM     33  C   UNL     1       1.358  -0.808   3.079  0.00  0.00    +0.220 A 
ATOM     34  N   UNL     1       0.733  -1.974   3.007  0.00  0.00    -0.223 NA
ATOM     35  C   UNL     1       0.004  -2.419   4.018  0.00  0.00    +0.116 A 
ATOM     36  C   UNL     1      -0.103  -1.651   5.165  0.00  0.00    +0.048 A 
ATOM     37  C   UNL     1       0.568  -0.427   5.211  0.00  0.00    +0.079 A 
ATOM     38  N   UNL     1       1.287  -0.045   4.158  0.00  0.00    -0.214 NA
ATOM     39  H   UNL     1       2.507   0.507   2.004  0.00  0.00    +0.155 HD
BRANCH  37  40
ATOM     40  C   UNL     1       0.484   0.432   6.417  0.00  0.00    +0.037 A 
ATOM     41  C   UNL     1      -0.259   0.035   7.532  0.00  0.00    +0.124 A 
ATOM     42  N   UNL     1      -0.306   0.831   8.586  0.00  0.00    -0.243 NA
ATOM     43  C   UNL     1       0.335   1.983   8.595  0.00  0.00    +0.221 A 
ATOM     44  N   UNL     1       1.047   2.395   7.566  0.00  0.00    -0.243 NA
ATOM     45  C   UNL     1       1.152   1.659   6.473  0.00  0.00    +0.124 A 
ENDBRANCH  37  40
ENDBRANCH  31  32
ENDBRANCH  23  29
ENDBRANCH   1  23
BRANCH   1  46
ATOM     46  O   UNL     1       3.876  -6.058  -1.301  0.00  0.00    -0.370 OA
ATOM     47  H   UNL     1       4.315  -6.524  -0.576  0.00  0.00    +0.212 HD
ENDBRANCH   1  46
TORSDOF 11
