REMARK  Name = CHEMBL184742
REMARK  6 active torsions:
REMARK  status: ('A' for Active; 'I' for Inactive)
REMARK    1  A    between atoms: C_1  and  C_2
REMARK    2  A    between atoms: C_5  and  N_21
REMARK    3  A    between atoms: C_7  and  N_8
REMARK    4  A    between atoms: C_13  and  C_15
REMARK    5  A    between atoms: N_24  and  C_25
REMARK    6  A    between atoms: C_29  and  N_31
REMARK                            x       y       z     vdW  Elec       q    Type
REMARK                         _______ _______ _______ _____ _____    ______ ____
ROOT
ATOM      1  C   UNL     1      -0.268   2.020   1.280  0.00  0.00    +0.045 C 
ATOM      2  C   UNL     1       0.144   0.699   0.683  0.00  0.00    -0.029 A 
ATOM      3  C   UNL     1      -0.037   0.466  -0.667  0.00  0.00    +0.007 A 
ATOM      4  C   UNL     1       0.339  -0.744  -1.218  0.00  0.00    +0.024 A 
ATOM      5  C   UNL     1       0.899  -1.731  -0.416  0.00  0.00    +0.037 A 
ATOM      6  C   UNL     1       1.082  -1.500   0.939  0.00  0.00    +0.047 A 
ATOM      7  C   UNL     1       0.709  -0.281   1.489  0.00  0.00    +0.038 A 
ENDROOT
BRANCH   7   8
ATOM      8  N   UNL     1       0.897  -0.043   2.854  0.00  0.00    -0.283 N 
ATOM      9  C   UNL     1       0.836  -1.093   3.755  0.00  0.00    +0.220 A 
ATOM     10  N   UNL     1       0.490  -2.296   3.322  0.00  0.00    -0.223 NA
ATOM     11  C   UNL     1       0.421  -3.325   4.152  0.00  0.00    +0.116 A 
ATOM     12  C   UNL     1       0.715  -3.135   5.491  0.00  0.00    +0.048 A 
ATOM     13  C   UNL     1       1.077  -1.855   5.918  0.00  0.00    +0.077 A 
ATOM     14  N   UNL     1       1.131  -0.869   5.026  0.00  0.00    -0.214 NA
ATOM     15  H   UNL     1       1.070   0.858   3.169  0.00  0.00    +0.155 HD
BRANCH  13  16
ATOM     16  C   UNL     1       1.401  -1.601   7.343  0.00  0.00    +0.019 A 
ATOM     17  C   UNL     1       1.656  -0.301   7.792  0.00  0.00    +0.013 A 
ATOM     18  C   UNL     1       1.954  -0.117   9.131  0.00  0.00    +0.020 A 
ATOM     19  C   UNL     1       1.989  -1.213   9.974  0.00  0.00    +0.111 A 
ATOM     20  N   UNL     1       1.744  -2.427   9.521  0.00  0.00    -0.263 NA
ATOM     21  C   UNL     1       1.451  -2.651   8.257  0.00  0.00    +0.120 A 
ENDBRANCH  13  16
ENDBRANCH   7   8
BRANCH   5  22
ATOM     22  N   UNL     1       1.279  -2.956  -0.976  0.00  0.00    -0.269 N 
ATOM     23  C   UNL     1       1.815  -2.996  -2.212  0.00  0.00    +0.308 C 
ATOM     24  O   UNL     1       1.882  -1.981  -2.878  0.00  0.00    -0.252 OA
ATOM     25  N   UNL     1       2.276  -4.160  -2.709  0.00  0.00    -0.269 N 
ATOM     26  H   UNL     1       1.156  -3.777  -0.474  0.00  0.00    +0.156 HD
ATOM     27  H   UNL     1       2.154  -4.983  -2.211  0.00  0.00    +0.156 HD
BRANCH  25  28
ATOM     28  C   UNL     1       2.932  -4.182  -3.945  0.00  0.00    +0.037 A 
ATOM     29  C   UNL     1       3.711  -3.101  -4.338  0.00  0.00    +0.023 A 
ATOM     30  C   UNL     1       4.359  -3.121  -5.558  0.00  0.00    +0.004 A 
ATOM     31  C   UNL     1       4.235  -4.216  -6.391  0.00  0.00    +0.023 A 
ATOM     32  C   UNL     1       3.458  -5.301  -6.004  0.00  0.00    +0.031 A 
ATOM     33  C   UNL     1       2.810  -5.285  -4.777  0.00  0.00    +0.046 A 
BRANCH  32  34
ATOM     34  N   UNL     1       3.332  -6.407  -6.847  0.00  0.00    -0.330 N 
ATOM     35  C   UNL     1       2.540  -7.613  -6.566  0.00  0.00    +0.105 C 
ATOM     36  C   UNL     1       2.720  -8.570  -7.763  0.00  0.00    +0.020 C 
ATOM     37  C   UNL     1       4.054  -8.089  -8.394  0.00  0.00    +0.020 C 
ATOM     38  C   UNL     1       3.967  -6.557  -8.169  0.00  0.00    +0.105 C 
ENDBRANCH  32  34
ENDBRANCH  25  28
ENDBRANCH   5  22
TORSDOF 5
