REMARK  Name = CHEMBL478825
REMARK  3 active torsions:
REMARK  status: ('A' for Active; 'I' for Inactive)
REMARK    1  A    between atoms: C_4  and  C_7
REMARK    2  A    between atoms: C_7  and  C_8
REMARK    3  A    between atoms: C_14  and  C_16
REMARK                            x       y       z     vdW  Elec       q    Type
REMARK                         _______ _______ _______ _____ _____    ______ ____
ROOT
ATOM      1  C   UNL     1       4.164  -0.959   1.377  0.00  0.00    +0.108 A 
ATOM      2  N   UNL     1       3.931  -1.985   2.171  0.00  0.00    -0.144 NA
ATOM      3  N   UNL     1       4.390  -2.045   3.345  0.00  0.00    -0.126 NA
ATOM      4  C   UNL     1       5.138  -1.075   3.853  0.00  0.00    +0.188 A 
ATOM      5  S   UNL     1       5.180   0.045   2.457  0.00  0.00    -0.035 S 
ATOM      6  N   UNL     1       5.725  -0.963   5.107  0.00  0.00    -0.259 N 
ATOM      7  C   UNL     1       5.564  -1.944   6.017  0.00  0.00    +0.256 C 
ATOM      8  O   UNL     1       4.905  -2.929   5.739  0.00  0.00    -0.269 OA
ATOM      9  H   UNL     1       6.250  -0.177   5.329  0.00  0.00    +0.157 HD
ENDROOT
BRANCH   7  10
ATOM     10  C   UNL     1       6.184  -1.826   7.340  0.00  0.00    +0.074 A 
ATOM     11  C   UNL     1       6.147  -2.714   8.404  0.00  0.00    +0.021 A 
ATOM     12  C   UNL     1       6.832  -2.324   9.530  0.00  0.00    +0.008 A 
ATOM     13  C   UNL     1       7.479  -1.132   9.528  0.00  0.00    +0.046 A 
ATOM     14  S   UNL     1       7.186  -0.507   7.997  0.00  0.00    -0.092 S 
ENDBRANCH   7  10
BRANCH   1  15
ATOM     15  C   UNL     1       3.711  -0.707  -0.038  0.00  0.00    +0.100 C 
BRANCH  15  19
ATOM     16  C   UNL     1      -0.017   1.378   0.010  0.00  0.00    +0.000 A 
ATOM     17  C   UNL     1       1.171   2.086   0.002  0.00  0.00    +0.000 A 
ATOM     18  C   UNL     1       2.377   1.411  -0.013  0.00  0.00    +0.004 A 
ATOM     19  C   UNL     1       2.396   0.029  -0.020  0.00  0.00    -0.041 A 
ATOM     20  C   UNL     1       1.208  -0.679  -0.012  0.00  0.00    +0.004 A 
ATOM     21  C   UNL     1       0.002  -0.004   0.002  0.00  0.00    +0.000 A 
ENDBRANCH  15  19
ENDBRANCH   1  15
TORSDOF 3
