REMARK  Name = CHEMBL1172719
REMARK  9 active torsions:
REMARK  status: ('A' for Active; 'I' for Inactive)
REMARK    1  A    between atoms: C_1  and  C_2
REMARK    2  A    between atoms: C_5  and  C_19
REMARK    3  A    between atoms: C_7  and  C_8
REMARK    4  A    between atoms: C_9  and  C_10
REMARK    5  A    between atoms: N_21  and  C_22
REMARK    6  A    between atoms: C_25  and  C_31
REMARK    7  A    between atoms: C_26  and  C_28
REMARK    8  A    between atoms: C_31  and  N_32
REMARK    9  A    between atoms: N_35  and  C_38
REMARK                            x       y       z     vdW  Elec       q    Type
REMARK                         _______ _______ _______ _____ _____    ______ ____
ROOT
ATOM      1  C   UNL     1       0.754  -4.162  -0.729  0.00  0.00    +0.248 C 
ATOM      2  O   UNL     1       1.165  -4.709   0.276  0.00  0.00    -0.270 OA
ATOM      3  N   UNL     1       0.269  -4.900  -1.747  0.00  0.00    -0.281 N 
ATOM      4  H   UNL     1      -0.121  -4.463  -2.520  0.00  0.00    +0.155 HD
ENDROOT
BRANCH   1   9
ATOM      5  C   UNL     1       0.865   1.586  -1.172  0.00  0.00    +0.045 C 
ATOM      6  C   UNL     1       0.838   0.084  -1.052  0.00  0.00    -0.035 A 
ATOM      7  C   UNL     1       0.343  -0.681  -2.089  0.00  0.00    +0.005 A 
ATOM      8  C   UNL     1       0.315  -2.058  -1.988  0.00  0.00    +0.013 A 
ATOM      9  C   UNL     1       0.787  -2.688  -0.834  0.00  0.00    +0.038 A 
ATOM     10  C   UNL     1       1.288  -1.925   0.217  0.00  0.00    +0.030 A 
ATOM     11  C   UNL     1       1.319  -0.533   0.107  0.00  0.00    +0.029 A 
BRANCH  11  12
ATOM     12  C   UNL     1       1.837   0.261   1.181  0.00  0.00    -0.059 C 
ATOM     13  C   UNL     1       2.262   0.911   2.061  0.00  0.00    -0.040 C 
BRANCH  13  14
ATOM     14  C   UNL     1       2.780   1.705   3.134  0.00  0.00    +0.136 A 
ATOM     15  C   UNL     1       2.866   3.087   3.176  0.00  0.00    +0.150 A 
ATOM     16  N   UNL     1       3.402   3.435   4.338  0.00  0.00    -0.233 NA
ATOM     17  C   UNL     1       3.668   2.345   5.051  0.00  0.00    +0.155 A 
ATOM     18  N   UNL     1       3.285   1.245   4.327  0.00  0.00    -0.205 N 
ATOM     19  N   UNL     1       3.453  -0.037   4.857  0.00  0.00    -0.172 NA
ATOM     20  C   UNL     1       3.971  -0.203   6.045  0.00  0.00    +0.133 A 
ATOM     21  C   UNL     1       4.371   0.896   6.815  0.00  0.00    +0.025 A 
ATOM     22  C   UNL     1       4.229   2.161   6.328  0.00  0.00    +0.050 A 
ENDBRANCH  13  14
ENDBRANCH  11  12
ENDBRANCH   1   9
BRANCH   3  23
ATOM     23  C   UNL     1       0.328  -6.296  -1.689  0.00  0.00    +0.034 A 
ATOM     24  C   UNL     1       0.162  -6.950  -0.475  0.00  0.00    +0.023 A 
ATOM     25  C   UNL     1       0.221  -8.329  -0.421  0.00  0.00    +0.004 A 
ATOM     26  C   UNL     1       0.445  -9.058  -1.575  0.00  0.00    -0.060 A 
ATOM     27  C   UNL     1       0.611  -8.410  -2.785  0.00  0.00    -0.041 A 
ATOM     28  C   UNL     1       0.546  -7.032  -2.846  0.00  0.00    +0.027 A 
BRANCH  27  29
ATOM     29  C   UNL     1       0.855  -9.209  -4.039  0.00  0.00    +0.019 C 
ATOM     30  C   UNL     1       1.119  -8.433  -5.331  0.00  0.00    +0.009 C 
ATOM     31  C   UNL     1      -0.215  -9.155  -5.131  0.00  0.00    +0.009 C 
ENDBRANCH  27  29
BRANCH  26  32
ATOM     32  C   UNL     1       0.509 -10.563  -1.512  0.00  0.00    -0.043 C 
BRANCH  32  33
ATOM     33  N   UNL     1      -0.726 -11.129  -2.071  0.00  0.00    +0.384 N 
ATOM     34  C   UNL     1      -1.861 -10.772  -1.211  0.00  0.00    -0.063 C 
ATOM     35  C   UNL     1      -3.151 -11.346  -1.803  0.00  0.00    +0.065 C 
ATOM     36  N   UNL     1      -3.031 -12.807  -1.905  0.00  0.00    -0.309 NA
ATOM     37  C   UNL     1      -1.884 -13.180  -2.744  0.00  0.00    +0.065 C 
ATOM     38  C   UNL     1      -0.605 -12.591  -2.144  0.00  0.00    -0.063 C 
ATOM     39  C   UNL     1      -4.273 -13.402  -2.417  0.00  0.00    +0.104 C 
ATOM     40  H   UNL     1      -0.877 -10.758  -2.997  0.00  0.00    -0.081 HD
ENDBRANCH  32  33
ENDBRANCH  26  32
ENDBRANCH   3  23
TORSDOF 7
