REMARK  Name = CHEMBL378299
REMARK  3 active torsions:
REMARK  status: ('A' for Active; 'I' for Inactive)
REMARK    1  A    between atoms: C_7  and  C_11
REMARK    2  A    between atoms: C_16  and  N_20
REMARK    3  A    between atoms: C_23  and  N_26
REMARK                            x       y       z     vdW  Elec       q    Type
REMARK                         _______ _______ _______ _____ _____    ______ ____
ROOT
ATOM      1  C   UNL     1      -4.336   3.138   0.084  0.00  0.00    +0.160 A 
ATOM      2  N   UNL     1      -3.596   4.220   0.059  0.00  0.00    -0.226 NA
ATOM      3  C   UNL     1      -4.393   5.318   0.070  0.00  0.00    +0.090 A 
ATOM      4  C   UNL     1      -4.133   6.692   0.054  0.00  0.00    +0.032 A 
ATOM      5  C   UNL     1      -5.167   7.583   0.072  0.00  0.00    +0.025 A 
ATOM      6  C   UNL     1      -6.487   7.137   0.107  0.00  0.00    +0.032 A 
ATOM      7  C   UNL     1      -6.766   5.780   0.123  0.00  0.00    +0.051 A 
ATOM      8  C   UNL     1      -5.724   4.864   0.105  0.00  0.00    +0.068 A 
ATOM      9  N   UNL     1      -5.662   3.484   0.108  0.00  0.00    -0.337 N 
ATOM     10  H   UNL     1      -6.416   2.874   0.126  0.00  0.00    +0.167 HD
ENDROOT
BRANCH   1  17
ATOM     11  C   UNL     1      -0.017   1.385   0.010  0.00  0.00    +0.001 A 
ATOM     12  C   UNL     1       0.003  -0.004   0.017  0.00  0.00    +0.002 A 
ATOM     13  C   UNL     1      -1.172  -0.721   0.043  0.00  0.00    +0.028 A 
ATOM     14  C   UNL     1      -2.392  -0.049   0.063  0.00  0.00    +0.066 A 
ATOM     15  C   UNL     1      -2.405   1.357   0.056  0.00  0.00    +0.030 A 
ATOM     16  C   UNL     1      -1.201   2.064   0.035  0.00  0.00    +0.012 A 
ATOM     17  C   UNL     1      -3.818   1.756   0.082  0.00  0.00    +0.135 A 
ATOM     18  N   UNL     1      -4.538   0.657   0.101  0.00  0.00    -0.170 NA
ATOM     19  H   UNL     1      -3.996  -1.385   0.101  0.00  0.00    +0.189 HD
ATOM     20  N   UNL     1      -3.700  -0.462   0.091  0.00  0.00    -0.276 N 
ENDBRANCH   1  17
BRANCH   6  21
ATOM     21  N   UNL     1      -7.534   8.063   0.127  0.00  0.00    -0.330 N 
ATOM     22  C   UNL     1      -8.931   7.615   0.041  0.00  0.00    +0.103 C 
ATOM     23  C   UNL     1      -9.711   8.206   1.220  0.00  0.00    +0.004 C 
ATOM     24  C   UNL     1      -9.538   9.726   1.230  0.00  0.00    -0.066 C 
ATOM     25  C   UNL     1      -8.057  10.072   1.409  0.00  0.00    +0.004 C 
ATOM     26  C   UNL     1      -7.259   9.502   0.238  0.00  0.00    +0.103 C 
BRANCH  24  27
ATOM     27  N   UNL     1     -10.311  10.300   2.340  0.00  0.00    +0.382 N 
ATOM     28  C   UNL     1     -11.730   9.962   2.171  0.00  0.00    -0.078 C 
ATOM     29  C   UNL     1     -12.528  10.487   3.366  0.00  0.00    -0.019 C 
ATOM     30  C   UNL     1     -12.371  12.008   3.450  0.00  0.00    -0.004 C 
ATOM     31  C   UNL     1     -10.882  12.352   3.550  0.00  0.00    -0.019 C 
ATOM     32  C   UNL     1     -10.144  11.758   2.349  0.00  0.00    -0.078 C 
ATOM     33  H   UNL     1      -9.978   9.919   3.213  0.00  0.00    -0.081 HD
ENDBRANCH  24  27
ENDBRANCH   6  21
TORSDOF 3
