REMARK  Name = CHEMBL249819
REMARK  5 active torsions:
REMARK  status: ('A' for Active; 'I' for Inactive)
REMARK    1  A    between atoms: C_1  and  C_2
REMARK    2  A    between atoms: C_4  and  C_29
REMARK    3  A    between atoms: N_12  and  C_13
REMARK    4  A    between atoms: C_16  and  C_19
REMARK    5  A    between atoms: C_31  and  O_36
REMARK                            x       y       z     vdW  Elec       q    Type
REMARK                         _______ _______ _______ _____ _____    ______ ____
ROOT
ATOM      1  C   UNL     1       0.763   1.486   0.059  0.00  0.00    +0.046 C 
ATOM      2  C   UNL     1       0.682  -0.019   0.044  0.00  0.00    -0.022 A 
ATOM      3  C   UNL     1       0.810  -0.696  -1.128  0.00  0.00    +0.014 A 
ATOM      4  C   UNL     1       0.737  -2.098  -1.162  0.00  0.00    -0.014 A 
ATOM      5  C   UNL     1       0.534  -2.821  -0.001  0.00  0.00    +0.040 A 
ATOM      6  C   UNL     1       0.399  -2.142   1.219  0.00  0.00    +0.112 A 
ATOM      7  C   UNL     1       0.481  -0.724   1.241  0.00  0.00    +0.097 A 
ATOM      8  N   UNL     1       0.355  -0.093   2.415  0.00  0.00    -0.211 NA
ATOM      9  C   UNL     1       0.167  -0.807   3.510  0.00  0.00    +0.240 A 
ATOM     10  N   UNL     1       0.099  -2.139   3.472  0.00  0.00    -0.112 NA
ATOM     11  N   UNL     1       0.201  -2.797   2.368  0.00  0.00    -0.144 NA
ATOM     12  N   UNL     1       0.037  -0.158   4.727  0.00  0.00    -0.282 N 
ATOM     13  H   UNL     1       0.004   0.811   4.759  0.00  0.00    +0.155 HD
ENDROOT
BRANCH   4  14
ATOM     14  C   UNL     1       0.880  -2.810  -2.455  0.00  0.00    +0.004 A 
ATOM     15  C   UNL     1       1.768  -3.877  -2.571  0.00  0.00    +0.055 A 
ATOM     16  C   UNL     1       1.897  -4.538  -3.781  0.00  0.00    +0.118 A 
ATOM     17  C   UNL     1       1.143  -4.136  -4.876  0.00  0.00    +0.047 A 
ATOM     18  C   UNL     1       0.263  -3.077  -4.763  0.00  0.00    +0.024 A 
ATOM     19  C   UNL     1       0.122  -2.416  -3.558  0.00  0.00    +0.049 A 
ATOM     20 CL   UNL     1      -0.991  -1.091  -3.418  0.00  0.00    -0.083 Cl
BRANCH  16  21
ATOM     21  O   UNL     1       2.761  -5.580  -3.897  0.00  0.00    -0.507 OA
ATOM     22  H   UNL     1       2.370  -6.441  -3.694  0.00  0.00    +0.292 HD
ENDBRANCH  16  21
ENDBRANCH   4  14
BRANCH  12  23
ATOM     23  C   UNL     1      -0.044  -0.896   5.905  0.00  0.00    +0.034 A 
ATOM     24  C   UNL     1       0.738  -2.036   6.065  0.00  0.00    +0.024 A 
ATOM     25  C   UNL     1       0.659  -2.768   7.228  0.00  0.00    +0.015 A 
ATOM     26  C   UNL     1      -0.207  -2.365   8.248  0.00  0.00    +0.037 A 
ATOM     27  C   UNL     1      -0.991  -1.219   8.084  0.00  0.00    +0.015 A 
ATOM     28  C   UNL     1      -0.903  -0.488   6.921  0.00  0.00    +0.024 A 
BRANCH  26  29
ATOM     29  C   UNL     1      -0.295  -3.148   9.496  0.00  0.00    +0.247 C 
ATOM     30  O   UNL     1      -0.478  -2.583  10.557  0.00  0.00    -0.270 OA
ATOM     31  N   UNL     1      -0.172  -4.490   9.460  0.00  0.00    -0.294 N 
ATOM     32  C   UNL     1      -0.053  -5.171   8.170  0.00  0.00    +0.130 C 
ATOM     33  C   UNL     1       1.327  -5.831   8.066  0.00  0.00    +0.185 C 
ATOM     34  S   UNL     1       1.531  -6.986   9.454  0.00  0.00    -0.028 S 
ATOM     35  O   UNL     1       2.889  -7.403   9.497  0.00  0.00    -0.174 OA
ATOM     36  O   UNL     1       0.507  -7.967   9.379  0.00  0.00    -0.174 OA
ATOM     37  C   UNL     1       1.209  -5.918  10.888  0.00  0.00    +0.185 C 
ATOM     38  C   UNL     1      -0.152  -5.249  10.711  0.00  0.00    +0.130 C 
ENDBRANCH  26  29
ENDBRANCH  12  23
TORSDOF 4
