REMARK  Name = CHEMBL1171836
REMARK  9 active torsions:
REMARK  status: ('A' for Active; 'I' for Inactive)
REMARK    1  A    between atoms: C_1  and  C_2
REMARK    2  A    between atoms: C_5  and  C_19
REMARK    3  A    between atoms: C_7  and  C_8
REMARK    4  A    between atoms: C_9  and  C_10
REMARK    5  A    between atoms: N_21  and  C_22
REMARK    6  A    between atoms: C_25  and  C_32
REMARK    7  A    between atoms: C_26  and  C_28
REMARK    8  A    between atoms: C_32  and  N_33
REMARK    9  A    between atoms: N_36  and  C_39
REMARK                            x       y       z     vdW  Elec       q    Type
REMARK                         _______ _______ _______ _____ _____    ______ ____
ROOT
ATOM      1  C   UNL     1       0.369  -4.157  -0.484  0.00  0.00    +0.248 C 
ATOM      2  O   UNL     1       0.774  -4.691   0.530  0.00  0.00    -0.270 OA
ATOM      3  N   UNL     1      -0.023  -4.909  -1.532  0.00  0.00    -0.281 N 
ATOM      4  H   UNL     1      -0.410  -4.487  -2.314  0.00  0.00    +0.155 HD
ENDROOT
BRANCH   1   9
ATOM      5  C   UNL     1       0.113   1.592  -0.848  0.00  0.00    +0.045 C 
ATOM      6  C   UNL     1       0.181   0.090  -0.749  0.00  0.00    -0.035 A 
ATOM      7  C   UNL     1      -0.217  -0.690  -1.816  0.00  0.00    +0.005 A 
ATOM      8  C   UNL     1      -0.158  -2.067  -1.734  0.00  0.00    +0.013 A 
ATOM      9  C   UNL     1       0.307  -2.682  -0.569  0.00  0.00    +0.038 A 
ATOM     10  C   UNL     1       0.711  -1.903   0.513  0.00  0.00    +0.030 A 
ATOM     11  C   UNL     1       0.654  -0.511   0.422  0.00  0.00    +0.029 A 
BRANCH  11  12
ATOM     12  C   UNL     1       1.073   0.298   1.527  0.00  0.00    -0.059 C 
ATOM     13  C   UNL     1       1.416   0.962   2.432  0.00  0.00    -0.041 C 
BRANCH  13  14
ATOM     14  C   UNL     1       1.835   1.771   3.537  0.00  0.00    +0.117 A 
ATOM     15  C   UNL     1       1.827   3.155   3.600  0.00  0.00    +0.148 A 
ATOM     16  N   UNL     1       2.289   3.519   4.790  0.00  0.00    -0.233 NA
ATOM     17  C   UNL     1       2.596   2.441   5.498  0.00  0.00    +0.157 A 
ATOM     18  N   UNL     1       2.318   1.329   4.742  0.00  0.00    -0.290 N 
ATOM     19  C   UNL     1       2.550   0.090   5.266  0.00  0.00    +0.113 A 
ATOM     20  C   UNL     1       3.045  -0.026   6.519  0.00  0.00    +0.129 A 
ATOM     21  N   UNL     1       3.313   1.052   7.257  0.00  0.00    -0.258 NA
ATOM     22  C   UNL     1       3.115   2.264   6.795  0.00  0.00    +0.157 A 
ENDBRANCH  13  14
ENDBRANCH  11  12
ENDBRANCH   1   9
BRANCH   3  23
ATOM     23  C   UNL     1       0.129  -6.298  -1.490  0.00  0.00    +0.034 A 
ATOM     24  C   UNL     1      -0.042  -6.982  -0.293  0.00  0.00    +0.023 A 
ATOM     25  C   UNL     1       0.109  -8.354  -0.255  0.00  0.00    +0.007 A 
ATOM     26  C   UNL     1       0.431  -9.048  -1.408  0.00  0.00    -0.022 A 
ATOM     27  C   UNL     1       0.602  -8.370  -2.601  0.00  0.00    +0.061 A 
ATOM     28  C   UNL     1       0.446  -6.999  -2.647  0.00  0.00    +0.036 A 
BRANCH  27  29
ATOM     29  C   UNL     1       0.953  -9.130  -3.854  0.00  0.00    +0.418 C 
ATOM     30  F   UNL     1       1.025  -8.242  -4.933  0.00  0.00    -0.166 F 
ATOM     31  F   UNL     1       2.190  -9.761  -3.686  0.00  0.00    -0.166 F 
ATOM     32  F   UNL     1      -0.031 -10.092  -4.107  0.00  0.00    -0.166 F 
ENDBRANCH  27  29
BRANCH  26  33
ATOM     33  C   UNL     1       0.595 -10.545  -1.363  0.00  0.00    +0.120 C 
BRANCH  33  34
ATOM     34  N   UNL     1      -0.618 -11.187  -1.887  0.00  0.00    -0.302 NA
ATOM     35  C   UNL     1      -1.784 -10.874  -1.048  0.00  0.00    +0.066 C 
ATOM     36  C   UNL     1      -3.034 -11.510  -1.659  0.00  0.00    -0.064 C 
ATOM     37  N   UNL     1      -2.850 -12.964  -1.748  0.00  0.00    +0.379 N 
ATOM     38  C   UNL     1      -1.698 -13.262  -2.609  0.00  0.00    -0.064 C 
ATOM     39  C   UNL     1      -0.436 -12.640  -2.006  0.00  0.00    +0.066 C 
ATOM     40  C   UNL     1      -4.058 -13.576  -2.318  0.00  0.00    -0.096 C 
ATOM     41  H   UNL     1      -2.687 -13.340  -0.826  0.00  0.00    -0.082 HD
ENDBRANCH  33  34
ENDBRANCH  26  33
ENDBRANCH   3  23
TORSDOF 7
