REMARK  Name = CHEMBL384213
REMARK  6 active torsions:
REMARK  status: ('A' for Active; 'I' for Inactive)
REMARK    1  A    between atoms: C_4  and  C_7
REMARK    2  A    between atoms: C_7  and  N_8
REMARK    3  A    between atoms: N_8  and  C_9
REMARK    4  A    between atoms: C_15  and  C_19
REMARK    5  A    between atoms: C_25  and  N_29
REMARK    6  A    between atoms: C_32  and  N_35
REMARK                            x       y       z     vdW  Elec       q    Type
REMARK                         _______ _______ _______ _____ _____    ______ ____
ROOT
ATOM      1  C   UNL     1       7.289  -2.749   5.641  0.00  0.00    +0.158 A 
ATOM      2  N   UNL     1       8.037  -3.143   6.722  0.00  0.00    -0.337 N 
ATOM      3  H   UNL     1       8.889  -3.604   6.696  0.00  0.00    +0.167 HD
ATOM      4  C   UNL     1       7.345  -2.757   7.859  0.00  0.00    +0.067 A 
ATOM      5  C   UNL     1       7.592  -2.878   9.218  0.00  0.00    +0.029 A 
ATOM      6  C   UNL     1       6.687  -2.379  10.130  0.00  0.00    +0.025 A 
ATOM      7  C   UNL     1       5.520  -1.753   9.695  0.00  0.00    +0.032 A 
ATOM      8  C   UNL     1       5.258  -1.624   8.344  0.00  0.00    +0.053 A 
ATOM      9  C   UNL     1       6.171  -2.126   7.410  0.00  0.00    +0.091 A 
ATOM     10  N   UNL     1       6.195  -2.147   6.055  0.00  0.00    -0.226 NA
ENDROOT
BRANCH   1  17
ATOM     11  C   UNL     1       5.311  -1.701   1.577  0.00  0.00    +0.028 A 
ATOM     12  C   UNL     1       6.084  -2.131   0.491  0.00  0.00    +0.025 A 
ATOM     13  C   UNL     1       7.265  -2.775   0.665  0.00  0.00    +0.032 A 
ATOM     14  C   UNL     1       7.739  -3.023   1.970  0.00  0.00    +0.093 A 
ATOM     15  C   UNL     1       6.926  -2.570   3.109  0.00  0.00    +0.032 A 
ATOM     16  C   UNL     1       5.717  -1.906   2.866  0.00  0.00    +0.035 A 
ATOM     17  C   UNL     1       7.657  -2.961   4.237  0.00  0.00    +0.109 A 
ATOM     18  N   UNL     1       8.778  -3.577   3.771  0.00  0.00    -0.273 N 
ATOM     19  N   UNL     1       8.807  -3.602   2.487  0.00  0.00    -0.173 NA
ATOM     20  H   UNL     1       9.470  -3.950   4.339  0.00  0.00    +0.189 HD
BRANCH  11  21
ATOM     21  N   UNL     1       4.102  -1.043   1.338  0.00  0.00    -0.340 N 
ATOM     22  H   UNL     1       3.561  -0.737   2.083  0.00  0.00    +0.146 HD
BRANCH  21  23
ATOM     23  C   UNL     1       3.652  -0.814  -0.037  0.00  0.00    +0.136 C 
BRANCH  23  27
ATOM     24  C   UNL     1      -0.095   1.236   0.010  0.00  0.00    +0.000 A 
ATOM     25  C   UNL     1       1.086   1.954  -0.010  0.00  0.00    +0.000 A 
ATOM     26  C   UNL     1       2.299   1.291  -0.025  0.00  0.00    +0.005 A 
ATOM     27  C   UNL     1       2.330  -0.091  -0.020  0.00  0.00    -0.030 A 
ATOM     28  C   UNL     1       1.150  -0.809   0.001  0.00  0.00    +0.005 A 
ATOM     29  C   UNL     1      -0.063  -0.146   0.015  0.00  0.00    +0.000 A 
ENDBRANCH  23  27
ENDBRANCH  21  23
ENDBRANCH  11  21
ENDBRANCH   1  17
BRANCH   7  30
ATOM     30  N   UNL     1       4.609  -1.251  10.630  0.00  0.00    -0.330 N 
ATOM     31  C   UNL     1       3.435  -0.482  10.195  0.00  0.00    +0.103 C 
ATOM     32  C   UNL     1       2.178  -1.120  10.794  0.00  0.00    +0.004 C 
ATOM     33  C   UNL     1       2.336  -1.219  12.313  0.00  0.00    -0.066 C 
ATOM     34  C   UNL     1       3.534  -2.110  12.646  0.00  0.00    +0.004 C 
ATOM     35  C   UNL     1       4.804  -1.489  12.067  0.00  0.00    +0.103 C 
BRANCH  33  36
ATOM     36  N   UNL     1       1.118  -1.799  12.895  0.00  0.00    +0.382 N 
ATOM     37  C   UNL     1      -0.032  -0.948  12.569  0.00  0.00    -0.078 C 
ATOM     38  C   UNL     1      -1.315  -1.589  13.103  0.00  0.00    -0.019 C 
ATOM     39  C   UNL     1      -1.206  -1.744  14.623  0.00  0.00    -0.004 C 
ATOM     40  C   UNL     1       0.038  -2.572  14.954  0.00  0.00    -0.019 C 
ATOM     41  C   UNL     1       1.271  -1.894  14.352  0.00  0.00    -0.078 C 
ATOM     42  H   UNL     1       0.970  -2.721  12.513  0.00  0.00    -0.081 HD
ENDBRANCH  33  36
ENDBRANCH   7  30
TORSDOF 6
