REMARK  Name = CHEMBL455404
REMARK  9 active torsions:
REMARK  status: ('A' for Active; 'I' for Inactive)
REMARK    1  A    between atoms: C_1  and  N_2
REMARK    2  A    between atoms: C_11  and  C_12
REMARK    3  A    between atoms: C_15  and  C_17
REMARK    4  A    between atoms: C_18  and  C_19
REMARK    5  A    between atoms: N_21  and  C_22
REMARK    6  A    between atoms: C_22  and  C_23
REMARK    7  A    between atoms: C_23  and  N_24
REMARK    8  A    between atoms: N_24  and  C_25
REMARK    9  A    between atoms: N_24  and  C_26
REMARK                            x       y       z     vdW  Elec       q    Type
REMARK                         _______ _______ _______ _____ _____    ______ ____
ROOT
ATOM      1  C   UNL     1       2.040  -4.319  -0.487  0.00  0.00    +0.016 A 
ATOM      2  C   UNL     1       2.960  -5.261  -0.945  0.00  0.00    +0.016 A 
ATOM      3  C   UNL     1       2.658  -6.583  -0.820  0.00  0.00    +0.016 A 
ATOM      4  C   UNL     1       1.442  -6.940  -0.240  0.00  0.00    +0.013 A 
ATOM      5  S   UNL     1       0.724  -5.350   0.139  0.00  0.00    -0.089 S 
ENDROOT
BRANCH   1  16
ATOM      6  C   UNL     1      -0.018   1.461   0.010  0.00  0.00    +0.139 C 
ATOM      7  N   UNL     1       0.002  -0.004   0.002  0.00  0.00    -0.265 N 
ATOM      8  C   UNL     1      -1.194  -0.733   0.004  0.00  0.00    +0.079 A 
ATOM      9  C   UNL     1      -2.397  -0.095  -0.261  0.00  0.00    +0.027 A 
ATOM     10  C   UNL     1      -3.575  -0.818  -0.260  0.00  0.00    +0.002 A 
ATOM     11  C   UNL     1      -3.560  -2.175   0.004  0.00  0.00    +0.004 A 
ATOM     12  C   UNL     1      -2.365  -2.818   0.270  0.00  0.00    +0.048 A 
ATOM     13  C   UNL     1      -1.180  -2.102   0.271  0.00  0.00    +0.150 A 
ATOM     14  O   UNL     1       0.000  -2.729   0.534  0.00  0.00    -0.449 OA
ATOM     15  C   UNL     1       1.118  -2.153  -0.002  0.00  0.00    +0.191 C 
ATOM     16  C   UNL     1       2.130  -2.905  -0.508  0.00  0.00    +0.066 C 
ATOM     17  C   UNL     1       1.177  -0.678  -0.013  0.00  0.00    +0.286 C 
ATOM     18  O   UNL     1       2.243  -0.089  -0.030  0.00  0.00    -0.266 OA
ENDBRANCH   1  16
BRANCH   4  19
ATOM     19  C   UNL     1       0.915  -8.231  -0.007  0.00  0.00    +0.020 C 
ATOM     20  C   UNL     1      -0.303  -8.372   0.578  0.00  0.00    +0.068 C 
BRANCH  20  21
ATOM     21  C   UNL     1      -0.831  -9.664   0.811  0.00  0.00    +0.237 C 
ATOM     22  O   UNL     1      -0.193 -10.650   0.488  0.00  0.00    -0.271 OA
ATOM     23  N   UNL     1      -2.039  -9.803   1.391  0.00  0.00    -0.314 N 
ATOM     24  H   UNL     1      -2.547  -9.018   1.648  0.00  0.00    +0.149 HD
BRANCH  23  25
ATOM     25  C   UNL     1      -2.586 -11.141   1.633  0.00  0.00    +0.086 C 
BRANCH  25  26
ATOM     26  C   UNL     1      -3.959 -11.018   2.296  0.00  0.00    -0.061 C 
BRANCH  26  27
ATOM     27  N   UNL     1      -4.507 -12.359   2.539  0.00  0.00    +0.377 N 
ATOM     28  C   UNL     1      -5.769 -12.245   3.283  0.00  0.00    -0.097 C 
ATOM     29  C   UNL     1      -4.755 -13.027   1.254  0.00  0.00    -0.097 C 
ATOM     30  H   UNL     1      -3.847 -12.900   3.077  0.00  0.00    -0.083 HD
ENDBRANCH  26  27
ENDBRANCH  25  26
ENDBRANCH  23  25
ENDBRANCH  20  21
ENDBRANCH   4  19
TORSDOF 6
