REMARK  Name = CHEMBL169757
REMARK  3 active torsions:
REMARK  status: ('A' for Active; 'I' for Inactive)
REMARK    1  A    between atoms: C_4  and  C_7
REMARK    2  A    between atoms: N_9  and  C_17
REMARK    3  A    between atoms: C_12  and  N_16
REMARK                            x       y       z     vdW  Elec       q    Type
REMARK                         _______ _______ _______ _____ _____    ______ ____
ROOT
ATOM      1  C   UNL     1       3.698  -0.688  -0.037  0.00  0.00    +0.013 A 
ATOM      2  C   UNL     1       4.740  -0.463  -0.875  0.00  0.00    +0.102 A 
ATOM      3  N   UNL     1       5.760  -1.328  -0.583  0.00  0.00    -0.300 N 
ATOM      4  C   UNL     1       5.406  -2.144   0.460  0.00  0.00    +0.151 A 
ATOM      5  C   UNL     1       4.106  -1.781   0.855  0.00  0.00    +0.066 A 
ATOM      6  C   UNL     1       3.508  -2.468   1.919  0.00  0.00    +0.129 A 
ATOM      7  N   UNL     1       4.200  -3.436   2.514  0.00  0.00    -0.220 NA
ATOM      8  C   UNL     1       5.420  -3.744   2.114  0.00  0.00    +0.225 A 
ATOM      9  N   UNL     1       6.017  -3.130   1.115  0.00  0.00    -0.217 NA
ENDROOT
BRANCH   1  13
ATOM     10  C   UNL     1      -0.017   1.379   0.010  0.00  0.00    +0.000 A 
ATOM     11  C   UNL     1       1.169   2.092   0.002  0.00  0.00    +0.001 A 
ATOM     12  C   UNL     1       2.377   1.427  -0.013  0.00  0.00    +0.008 A 
ATOM     13  C   UNL     1       2.403   0.033  -0.021  0.00  0.00    -0.016 A 
ATOM     14  C   UNL     1       1.205  -0.680  -0.013  0.00  0.00    +0.008 A 
ATOM     15  C   UNL     1       0.002  -0.004   0.002  0.00  0.00    +0.001 A 
ENDBRANCH   1  13
BRANCH   3  16
ATOM     16  C   UNL     1       6.989  -1.373  -1.254  0.00  0.00    +0.048 A 
ATOM     17  C   UNL     1       8.176  -1.369  -0.532  0.00  0.00    +0.026 A 
ATOM     18  C   UNL     1       9.386  -1.414  -1.196  0.00  0.00    +0.002 A 
ATOM     19  C   UNL     1       9.417  -1.463  -2.578  0.00  0.00    +0.000 A 
ATOM     20  C   UNL     1       8.237  -1.467  -3.299  0.00  0.00    +0.002 A 
ATOM     21  C   UNL     1       7.024  -1.429  -2.641  0.00  0.00    +0.026 A 
ENDBRANCH   3  16
BRANCH   6  22
ATOM     22  N   UNL     1       2.230  -2.148   2.340  0.00  0.00    -0.343 N 
ATOM     23  H   UNL     1       1.736  -1.440   1.898  0.00  0.00    +0.144 HD
ATOM     24  H   UNL     1       1.827  -2.632   3.078  0.00  0.00    +0.144 HD
ENDBRANCH   6  22
TORSDOF 3
