REMARK  3 active torsions:
REMARK  status: ('A' for Active; 'I' for Inactive)
REMARK       I    between atoms: N2_2  and  C4_4 
REMARK    1  A    between atoms: C4_4  and  C6_6 
REMARK    2  A    between atoms: C8_8  and  C12_12 
REMARK    3  A    between atoms: C17_18  and  C18_19 
ROOT
HETATM    1  C12 19A A 360     -16.293  12.005  41.194  1.00 44.34     0.072 A 
HETATM    2  N13 19A A 360     -17.251  11.090  41.127  1.00 41.61    -0.299 N 
ATOM      3  H13 19A A 360     -17.170  10.182  40.669  1.00  0.00     0.187 HD
HETATM    4  N14 19A A 360     -18.384  11.564  41.780  1.00 44.22    -0.310 N 
ATOM      5  H14 19A A 360     -19.266  11.061  41.876  1.00  0.00     0.186 HD
HETATM    6  C16 19A A 360     -18.131  12.785  42.261  1.00 44.04     0.121 A 
HETATM    7  C17 19A A 360     -16.837  13.124  41.933  1.00 45.42     0.020 A 
ENDROOT
BRANCH   1   8
HETATM    8  C8  19A A 360     -14.911  11.823  40.594  1.00 43.82     0.011 A 
HETATM    9  C9  19A A 360     -14.592  11.123  39.452  1.00 45.04     0.102 A 
HETATM   10  N10 19A A 360     -13.244  11.188  39.259  1.00 44.98    -0.361 N 
HETATM   11  C6  19A A 360     -12.664  11.933  40.269  1.00 45.92     0.101 A 
ATOM     12  H10 19A A 360     -12.740  10.753  38.486  1.00  0.00     0.165 HD
HETATM   13  C7  19A A 360     -13.700  12.321  41.096  1.00 44.13     0.050 A 
BRANCH  11  14
HETATM   14  C4  19A A 360     -11.176  12.224  40.412  1.00 47.72     0.269 C 
HETATM   15  O5  19A A 360     -10.408  11.485  39.810  1.00 49.70    -0.266 OA
HETATM   16  N2  19A A 360     -10.626  13.263  41.177  1.00 47.84    -0.355 N 
HETATM   17  C3  19A A 360     -11.436  14.225  41.934  1.00 48.65     0.152 C 
HETATM   18  C1  19A A 360      -9.160  13.415  41.239  1.00 47.69     0.152 C 
ENDBRANCH  11  14
ENDBRANCH   1   8
BRANCH   7  19
HETATM   19  C18 19A A 360     -16.183  14.428  42.311  1.00 48.71    -0.022 A 
HETATM   20  C23 19A A 360     -16.280  14.859  43.672  1.00 49.96     0.012 A 
HETATM   21  C22 19A A 360     -15.696  16.063  44.074  1.00 50.61     0.001 A 
HETATM   22  C21 19A A 360     -15.005  16.869  43.127  1.00 51.01     0.000 A 
HETATM   23  C20 19A A 360     -14.896  16.461  41.779  1.00 51.90     0.001 A 
HETATM   24  C19 19A A 360     -15.487  15.246  41.368  1.00 51.44     0.012 A 
ENDBRANCH   7  19
TORSDOF 3
