REMARK  Name = ZINC15782265
REMARK  3 active torsions:
REMARK  status: ('A' for Active; 'I' for Inactive)
REMARK    1  A    between atoms: C_1  and  C_2
REMARK    2  A    between atoms: C_2  and  N_4
REMARK    3  A    between atoms: C_2  and  N_13
REMARK                            x       y       z     vdW  Elec       q    Type
REMARK                         _______ _______ _______ _____ _____    ______ ____
ROOT
ATOM      1  C   UNL     1      -0.804   1.420  -1.258  0.00  0.00    +0.054 C 
ATOM      2  C   UNL     1      -0.013   1.086   0.008  0.00  0.00    +0.193 C 
ENDROOT
BRANCH   2   3
ATOM      3  N   UNL     1       1.289   1.756  -0.038  0.00  0.00    -0.224 N 
ATOM      4  C   UNL     1       2.514   1.163  -0.230  0.00  0.00    +0.091 A 
ATOM      5  C   UNL     1       2.932  -0.149  -0.429  0.00  0.00    +0.030 A 
ATOM      6  C   UNL     1       4.261  -0.421  -0.592  0.00  0.00    +0.002 A 
ATOM      7  C   UNL     1       5.201   0.601  -0.561  0.00  0.00    +0.002 A 
ATOM      8  C   UNL     1       4.817   1.895  -0.367  0.00  0.00    +0.032 A 
ATOM      9  C   UNL     1       3.460   2.202  -0.197  0.00  0.00    +0.113 A 
ATOM     10  N   UNL     1       2.794   3.355   0.007  0.00  0.00    -0.129 NA
ATOM     11  N   UNL     1       1.530   3.131   0.099  0.00  0.00    -0.063 NA
ENDBRANCH   2   3
BRANCH   2  12
ATOM     12  N   UNL     1      -0.757   1.544   1.184  0.00  0.00    -0.297 N 
ATOM     13  C   UNL     1      -1.145   2.939   1.190  0.00  0.00    +0.109 C 
ATOM     14  C   UNL     1      -2.321   3.215   2.120  0.00  0.00    +0.030 C 
ATOM     15  C   UNL     1      -1.959   2.756   3.538  0.00  0.00    +0.078 C 
ATOM     16  S   UNL     1      -1.954   0.944   3.559  0.00  0.00    -0.103 S 
ATOM     17  C   UNL     1      -1.000   0.632   2.115  0.00  0.00    +0.111 C 
ATOM     18  S   UNL     1      -0.345  -0.935   1.902  0.00  0.00    -0.028 S 
ENDBRANCH   2  12
TORSDOF 2
