REMARK  Name = ZINC11935880
REMARK  7 active torsions:
REMARK  status: ('A' for Active; 'I' for Inactive)
REMARK    1  A    between atoms: C_1  and  N_51
REMARK    2  A    between atoms: C_2  and  C_3
REMARK    3  A    between atoms: C_2  and  N_51
REMARK    4  A    between atoms: C_14  and  C_15
REMARK    5  A    between atoms: C_14  and  N_51
REMARK    6  A    between atoms: C_17  and  C_20
REMARK    7  A    between atoms: C_20  and  C_21
REMARK                            x       y       z     vdW  Elec       q    Type
REMARK                         _______ _______ _______ _____ _____    ______ ____
ROOT
ATOM      1  C   UNL     1       0.615   5.117  -2.061  0.00  0.00    -0.095 C 
ATOM      2  N   UNL     1       1.853   4.651  -1.401  0.00  0.00    +0.387 N 
ATOM      3  H   UNL     1       2.209   3.828  -1.901  0.00  0.00    -0.081 HD
ENDROOT
BRANCH   2   4
ATOM      4  C   UNL     1       1.567   4.274  -0.000  0.00  0.00    -0.020 C 
BRANCH   4   5
ATOM      5  C   UNL     1       0.693   3.047   0.004  0.00  0.00    +0.050 A 
ATOM      6  C   UNL     1      -0.705   3.036   0.012  0.00  0.00    -0.006 A 
ATOM      7  C   UNL     1      -1.111   1.744   0.016  0.00  0.00    +0.039 A 
ATOM      8  N   UNL     1      -0.011   0.966   0.007  0.00  0.00    -0.281 N 
ATOM      9  H   UNL     1       0.003  -0.034   0.006  0.00  0.00    +0.189 HD
ATOM     10  N   UNL     1       1.111   1.806   0.001  0.00  0.00    -0.180 NA
ATOM     11  C   UNL     1      -2.543   1.275   0.043  0.00  0.00    +0.055 C 
ATOM     12  C   UNL     1      -3.348   2.049  -1.006  0.00  0.00    +0.006 C 
ATOM     13  C   UNL     1      -3.905   3.326  -0.386  0.00  0.00    +0.001 C 
ATOM     14  C   UNL     1      -2.941   3.884   0.657  0.00  0.00    +0.005 C 
ATOM     15  C   UNL     1      -1.610   4.242   0.000  0.00  0.00    +0.039 C 
ENDBRANCH   4   5
ENDBRANCH   2   4
BRANCH   2  16
ATOM     16  C   UNL     1       2.877   5.716  -1.438  0.00  0.00    +0.022 C 
BRANCH  16  17
ATOM     17  C   UNL     1       3.309   5.925  -2.867  0.00  0.00    +0.211 A 
ATOM     18  N   UNL     1       2.783   6.765  -3.726  0.00  0.00    -0.197 NA
ATOM     19  C   UNL     1       3.486   6.607  -4.862  0.00  0.00    +0.176 A 
ATOM     20  N   UNL     1       4.381   5.692  -4.642  0.00  0.00    -0.061 NA
ATOM     21  O   UNL     1       4.296   5.287  -3.501  0.00  0.00    -0.340 OA
BRANCH  19  22
ATOM     22  C   UNL     1       3.271   7.351  -6.154  0.00  0.00    +0.117 C 
BRANCH  22  23
ATOM     23  C   UNL     1       2.282   6.600  -7.008  0.00  0.00    -0.005 A 
ATOM     24  C   UNL     1       0.961   7.003  -7.053  0.00  0.00    +0.007 A 
ATOM     25  C   UNL     1       0.054   6.314  -7.837  0.00  0.00    +0.000 A 
ATOM     26  C   UNL     1       0.467   5.222  -8.577  0.00  0.00    +0.003 A 
ATOM     27  C   UNL     1       1.788   4.817  -8.534  0.00  0.00    +0.038 A 
ATOM     28  C   UNL     1       2.698   5.509  -7.752  0.00  0.00    +0.127 A 
ATOM     29  F   UNL     1       3.991   5.118  -7.713  0.00  0.00    -0.205 F 
ENDBRANCH  22  23
ENDBRANCH  19  22
ENDBRANCH  16  17
ENDBRANCH   2  16
TORSDOF 6
