REMARK  Name = ZINC20082442
REMARK  14 active torsions:
REMARK  status: ('A' for Active; 'I' for Inactive)
REMARK    1  A    between atoms: C_1  and  C_2
REMARK    2  A    between atoms: C_2  and  C_3
REMARK    3  A    between atoms: C_10  and  C_15
REMARK    4  A    between atoms: C_15  and  C_17
REMARK    5  A    between atoms: C_15  and  N_27
REMARK    6  A    between atoms: N_21  and  C_22
REMARK    7  A    between atoms: C_22  and  C_23
REMARK    8  A    between atoms: C_22  and  C_24
REMARK    9  A    between atoms: C_22  and  C_25
REMARK   10  A    between atoms: C_25  and  C_26
REMARK   11  A    between atoms: N_27  and  C_28
REMARK   12  A    between atoms: N_27  and  C_35
REMARK   13  A    between atoms: C_28  and  C_29
REMARK   14  A    between atoms: C_35  and  C_36
REMARK                            x       y       z     vdW  Elec       q    Type
REMARK                         _______ _______ _______ _____ _____    ______ ____
ROOT
ATOM      1  C   UNL     1       6.180  -0.586   0.938  0.00  0.00    +0.163 C 
ENDROOT
BRANCH   1   9
ATOM      2  C   UNL     1       0.574  -1.460   3.405  0.00  0.00    -0.047 A 
ATOM      3  C   UNL     1       0.423  -0.174   3.908  0.00  0.00    +0.005 A 
ATOM      4  C   UNL     1       1.412   0.769   3.735  0.00  0.00    +0.026 A 
ATOM      5  C   UNL     1       2.575   0.432   3.050  0.00  0.00    +0.049 A 
ATOM      6  C   UNL     1       2.725  -0.872   2.542  0.00  0.00    -0.001 A 
ATOM      7  C   UNL     1       1.707  -1.813   2.729  0.00  0.00    +0.013 A 
ATOM      8  C   UNL     1       3.953  -1.217   1.823  0.00  0.00    +0.021 A 
ATOM      9  C   UNL     1       4.905  -0.264   1.673  0.00  0.00    +0.042 A 
ATOM     10  C   UNL     1       4.706   1.030   2.202  0.00  0.00    +0.254 A 
ATOM     11  O   UNL     1       5.574   1.872   2.055  0.00  0.00    -0.268 OA
ATOM     12  N   UNL     1       3.582   1.356   2.864  0.00  0.00    -0.322 N 
ATOM     13  H   UNL     1       3.471   2.376   3.259  0.00  0.00    +0.169 HD
BRANCH   2  15
ATOM     14  C   UNL     1      -1.504  -2.405   2.436  0.00  0.00    +0.009 C 
ATOM     15  C   UNL     1      -0.522  -2.474   3.607  0.00  0.00    +0.032 C 
ENDBRANCH   2  15
ENDBRANCH   1   9
BRANCH   1  16
ATOM     16  C   UNL     1       6.327   0.340  -0.243  0.00  0.00    +0.174 A 
ATOM     17  N   UNL     1       6.793   1.564  -0.224  0.00  0.00    -0.111 NA
ATOM     18  N   UNL     1       6.762   2.021  -1.429  0.00  0.00    -0.023 NA
ATOM     19  N   UNL     1       6.280   1.122  -2.214  0.00  0.00    -0.043 NA
ATOM     20  N   UNL     1       6.000   0.070  -1.520  0.00  0.00    -0.222 N 
BRANCH  20  21
ATOM     21  C   UNL     1       5.432  -1.181  -2.028  0.00  0.00    +0.062 C 
ATOM     22  C   UNL     1       6.432  -2.319  -1.812  0.00  0.00    +0.036 C 
ATOM     23  C   UNL     1       4.135  -1.493  -1.280  0.00  0.00    +0.036 C 
BRANCH  21  24
ATOM     24  C   UNL     1       5.138  -1.038  -3.523  0.00  0.00    +0.026 C 
ATOM     25  C   UNL     1       4.545  -2.346  -4.053  0.00  0.00    +0.006 C 
ENDBRANCH  21  24
ENDBRANCH  20  21
ENDBRANCH   1  16
BRANCH   1  26
ATOM     26  N   UNL     1       7.324  -0.410   1.842  0.00  0.00    -0.280 NA
BRANCH  26  27
ATOM     27  C   UNL     1       7.092  -1.091   3.123  0.00  0.00    +0.121 C 
BRANCH  27  28
ATOM     28  C   UNL     1       8.161  -0.691   4.106  0.00  0.00    -0.033 A 
ATOM     29  C   UNL     1       9.327  -1.428   4.197  0.00  0.00    +0.005 A 
ATOM     30  C   UNL     1      10.311  -1.058   5.095  0.00  0.00    +0.000 A 
ATOM     31  C   UNL     1      10.124   0.043   5.910  0.00  0.00    +0.000 A 
ATOM     32  C   UNL     1       8.955   0.776   5.824  0.00  0.00    +0.000 A 
ATOM     33  C   UNL     1       7.974   0.409   4.921  0.00  0.00    +0.005 A 
ENDBRANCH  27  28
ENDBRANCH  26  27
BRANCH  26  34
ATOM     34  C   UNL     1       8.568  -0.878   1.216  0.00  0.00    +0.122 C 
BRANCH  34  35
ATOM     35  C   UNL     1       9.067   0.165   0.250  0.00  0.00    -0.015 A 
ATOM     36  C   UNL     1       8.792   0.056  -1.105  0.00  0.00    +0.008 A 
ATOM     37  C   UNL     1       9.268   1.042  -1.956  0.00  0.00    +0.020 A 
ATOM     38  C   UNL     1      10.004   2.087  -1.431  0.00  0.00    +0.111 A 
ATOM     39  N   UNL     1      10.250   2.156  -0.137  0.00  0.00    -0.263 NA
ATOM     40  C   UNL     1       9.809   1.239   0.702  0.00  0.00    +0.115 A 
ENDBRANCH  34  35
ENDBRANCH  26  34
ENDBRANCH   1  26
TORSDOF 10
