REMARK  Name = ZINC48685561
REMARK  5 active torsions:
REMARK  status: ('A' for Active; 'I' for Inactive)
REMARK    1  A    between atoms: C_1  and  C_2
REMARK    2  A    between atoms: C_7  and  N_12
REMARK    3  A    between atoms: C_9  and  C_11
REMARK    4  A    between atoms: C_13  and  C_15
REMARK    5  A    between atoms: N_17  and  C_18
REMARK                            x       y       z     vdW  Elec       q    Type
REMARK                         _______ _______ _______ _____ _____    ______ ____
ROOT
ATOM      1  N   UNL     1      -0.610  -2.557   1.220  0.00  0.00    -0.304 N 
ATOM      2  C   UNL     1      -0.871  -3.783   1.715  0.00  0.00    +0.300 C 
ATOM      3  O   UNL     1       0.033  -4.470   2.144  0.00  0.00    -0.265 OA
ATOM      4  H   UNL     1      -1.332  -2.008   0.877  0.00  0.00    +0.149 HD
ENDROOT
BRANCH   1  10
ATOM      5  C   UNL     1      -0.013   1.510  -0.032  0.00  0.00    +0.008 C 
ATOM      6  C   UNL     1       0.003  -0.020  -0.035  0.00  0.00    -0.009 C 
ATOM      7  C   UNL     1       0.710  -0.520  -1.297  0.00  0.00    +0.003 C 
ATOM      8  C   UNL     1       0.726  -2.050  -1.300  0.00  0.00    +0.002 C 
ATOM      9  C   UNL     1       1.473  -2.554  -0.063  0.00  0.00    +0.022 C 
ATOM     10  C   UNL     1       0.766  -2.054   1.198  0.00  0.00    +0.076 C 
ATOM     11  C   UNL     1       0.750  -0.524   1.201  0.00  0.00    +0.009 C 
ATOM     12  C   UNL     1       0.044  -0.024   2.463  0.00  0.00    +0.009 C 
ENDBRANCH   1  10
BRANCH   2  13
ATOM     13  C   UNL     1      -2.274  -4.296   1.737  0.00  0.00    +0.303 C 
ATOM     14  O   UNL     1      -3.178  -3.608   1.308  0.00  0.00    -0.265 OA
ATOM     15  N   UNL     1      -2.535  -5.521   2.232  0.00  0.00    -0.275 N 
ATOM     16  H   UNL     1      -1.807  -6.096   2.515  0.00  0.00    +0.155 HD
BRANCH  15  17
ATOM     17  C   UNL     1      -3.858  -5.965   2.339  0.00  0.00    +0.069 A 
ATOM     18  C   UNL     1      -4.796  -5.591   1.387  0.00  0.00    +0.027 A 
ATOM     19  C   UNL     1      -6.101  -6.030   1.494  0.00  0.00    +0.022 A 
ATOM     20  C   UNL     1      -6.475  -6.843   2.550  0.00  0.00    +0.044 A 
ATOM     21  C   UNL     1      -5.544  -7.218   3.503  0.00  0.00    +0.060 A 
ATOM     22  C   UNL     1      -4.234  -6.786   3.397  0.00  0.00    +0.146 A 
ATOM     23  F   UNL     1      -3.323  -7.157   4.323  0.00  0.00    -0.203 F 
ATOM     24 CL   UNL     1      -8.117  -7.392   2.681  0.00  0.00    -0.083 Cl
ENDBRANCH  15  17
ENDBRANCH   2  13
TORSDOF 3
