REMARK  Name = ZINC20798737
REMARK  7 active torsions:
REMARK  status: ('A' for Active; 'I' for Inactive)
REMARK    1  A    between atoms: C_1  and  C_2
REMARK    2  A    between atoms: C_2  and  O_3
REMARK    3  A    between atoms: O_3  and  C_4
REMARK    4  A    between atoms: C_4  and  C_6
REMARK    5  A    between atoms: N_9  and  C_12
REMARK    6  A    between atoms: N_17  and  C_20
REMARK    7  A    between atoms: C_24  and  C_26
REMARK                            x       y       z     vdW  Elec       q    Type
REMARK                         _______ _______ _______ _____ _____    ______ ____
ROOT
ATOM      1  C   UNL     1      -1.252   2.082   0.183  0.00  0.00    +0.029 C 
ATOM      2  C   UNL     1      -0.713   3.491  -0.137  0.00  0.00    +0.090 C 
ATOM      3  C   UNL     1       0.783   3.286  -0.228  0.00  0.00    +0.225 C 
ATOM      4  O   UNL     1       1.597   4.152  -0.470  0.00  0.00    -0.275 OA
ATOM      5  N   UNL     1       1.066   1.998   0.003  0.00  0.00    -0.212 N 
ATOM      6  C   UNL     1      -0.003   1.231   0.248  0.00  0.00    +0.213 C 
ATOM      7  O   UNL     1       0.025   0.042   0.481  0.00  0.00    -0.277 OA
ENDROOT
BRANCH   1  11
ATOM      8  C   UNL     1      -2.444   1.316   4.217  0.00  0.00    +0.094 C 
ATOM      9  C   UNL     1      -3.317   0.812   3.064  0.00  0.00    -0.004 C 
ATOM     10  C   UNL     1      -2.477   0.745   1.786  0.00  0.00    -0.077 C 
ATOM     11  N   UNL     1      -1.948   2.079   1.476  0.00  0.00    +0.388 N 
ATOM     12  C   UNL     1      -1.069   2.564   2.548  0.00  0.00    -0.077 C 
ATOM     13  C   UNL     1      -1.867   2.685   3.849  0.00  0.00    -0.004 C 
ATOM     14  H   UNL     1      -2.801   2.770   1.405  0.00  0.00    -0.081 HD
BRANCH   8  15
ATOM     15  C   UNL     1      -3.280   1.441   5.464  0.00  0.00    +0.310 C 
ATOM     16  O   UNL     1      -4.454   1.156   5.436  0.00  0.00    -0.251 OA
BRANCH  15  17
ATOM     17  O   UNL     1      -2.721   1.868   6.607  0.00  0.00    -0.465 OA
BRANCH  17  19
ATOM     18  C   UNL     1      -2.778   2.465   8.967  0.00  0.00    +0.048 C 
ATOM     19  C   UNL     1      -3.586   1.964   7.769  0.00  0.00    +0.229 C 
ENDBRANCH  17  19
ENDBRANCH  15  17
ENDBRANCH   8  15
ENDBRANCH   1  11
BRANCH   5  20
ATOM     20  C   UNL     1       2.375   1.494  -0.012  0.00  0.00    +0.044 A 
ATOM     21  C   UNL     1       2.767   0.606  -1.005  0.00  0.00    +0.025 A 
ATOM     22  C   UNL     1       4.056   0.112  -1.018  0.00  0.00    +0.022 A 
ATOM     23  C   UNL     1       4.957   0.501  -0.042  0.00  0.00    +0.053 A 
ATOM     24  C   UNL     1       4.569   1.386   0.948  0.00  0.00    +0.075 A 
ATOM     25  C   UNL     1       3.282   1.887   0.962  0.00  0.00    +0.037 A 
ATOM     26 CL   UNL     1       6.578  -0.122  -0.061  0.00  0.00    -0.083 Cl
BRANCH  24  27
ATOM     27  C   UNL     1       5.553   1.808   2.009  0.00  0.00    +0.419 C 
ATOM     28  F   UNL     1       4.934   2.700   2.891  0.00  0.00    -0.166 F 
ATOM     29  F   UNL     1       5.991   0.682   2.714  0.00  0.00    -0.166 F 
ATOM     30  F   UNL     1       6.649   2.435   1.405  0.00  0.00    -0.166 F 
ENDBRANCH  24  27
ENDBRANCH   5  20
TORSDOF 6
