REMARK  Name = ZINC66000652
REMARK  7 active torsions:
REMARK  status: ('A' for Active; 'I' for Inactive)
REMARK    1  A    between atoms: C_1  and  C_2
REMARK    2  A    between atoms: C_6  and  C_8
REMARK    3  A    between atoms: C_8  and  N_9
REMARK    4  A    between atoms: C_12  and  N_15
REMARK    5  A    between atoms: N_15  and  S_16
REMARK    6  A    between atoms: S_16  and  C_19
REMARK    7  A    between atoms: C_22  and  N_24
REMARK                            x       y       z     vdW  Elec       q    Type
REMARK                         _______ _______ _______ _____ _____    ______ ____
ROOT
ATOM      1  N   UNL     1       1.444  -3.074   2.904  0.00  0.00    +0.382 N 
ATOM      2  C   UNL     1       2.108  -3.945   1.927  0.00  0.00    -0.077 C 
ATOM      3  C   UNL     1       3.579  -4.121   2.312  0.00  0.00    +0.002 C 
ATOM      4  C   UNL     1       3.664  -4.754   3.703  0.00  0.00    +0.073 C 
ATOM      5  C   UNL     1       2.905  -3.875   4.701  0.00  0.00    +0.002 C 
ATOM      6  C   UNL     1       1.459  -3.708   4.228  0.00  0.00    -0.077 C 
ATOM      7  H   UNL     1       1.930  -2.191   2.950  0.00  0.00    -0.081 HD
ENDROOT
BRANCH   4   8
ATOM      8  N   UNL     1       5.068  -4.856   4.110  0.00  0.00    -0.187 NA
ATOM      9  H   UNL     1       5.699  -4.168   3.849  0.00  0.00    +0.148 HD
BRANCH   8  10
ATOM     10  S   UNL     1       5.577  -6.147   5.014  0.00  0.00    +0.065 S 
ATOM     11  O   UNL     1       6.972  -5.974   5.220  0.00  0.00    -0.153 OA
ATOM     12  O   UNL     1       4.658  -6.276   6.090  0.00  0.00    -0.153 OA
BRANCH  10  13
ATOM     13  C   UNL     1       5.389  -7.588   4.017  0.00  0.00    +0.145 A 
ATOM     14  C   UNL     1       6.279  -8.161   3.170  0.00  0.00    +0.038 A 
ATOM     15  C   UNL     1       5.911  -9.303   2.483  0.00  0.00    +0.042 A 
ATOM     16  C   UNL     1       4.671  -9.815   2.677  0.00  0.00    +0.165 A 
ATOM     17  S   UNL     1       3.982  -8.675   3.866  0.00  0.00    -0.045 S 
BRANCH  16  18
ATOM     18  N   UNL     1       4.050 -11.011   2.065  0.00  0.00    +0.063 N 
ATOM     19  O   UNL     1       4.675 -11.677   1.272  0.00  0.00    -0.126 OA
ATOM     20  O   UNL     1       2.920 -11.323   2.358  0.00  0.00    -0.126 OA
ENDBRANCH  16  18
ENDBRANCH  10  13
ENDBRANCH   8  10
ENDBRANCH   4   8
BRANCH   1  21
ATOM     21  C   UNL     1       0.054  -2.845   2.489  0.00  0.00    -0.043 C 
BRANCH  21  27
ATOM     22  C   UNL     1      -0.018   1.503   0.010  0.00  0.00    +0.044 C 
ATOM     23  C   UNL     1       0.002  -0.004   0.002  0.00  0.00    -0.050 A 
ATOM     24  C   UNL     1       0.006  -0.689  -1.199  0.00  0.00    +0.003 A 
ATOM     25  C   UNL     1       0.025  -2.071  -1.207  0.00  0.00    +0.000 A 
ATOM     26  C   UNL     1       0.040  -2.768  -0.013  0.00  0.00    +0.002 A 
ATOM     27  C   UNL     1       0.037  -2.084   1.188  0.00  0.00    -0.064 A 
ATOM     28  C   UNL     1       0.023  -0.702   1.195  0.00  0.00    +0.005 A 
ENDBRANCH  21  27
ENDBRANCH   1  21
TORSDOF 6
