REMARK  Name = ZINC27455930
REMARK  7 active torsions:
REMARK  status: ('A' for Active; 'I' for Inactive)
REMARK    1  A    between atoms: C_1  and  C_2
REMARK    2  A    between atoms: C_2  and  O_3
REMARK    3  A    between atoms: O_3  and  C_4
REMARK    4  A    between atoms: C_12  and  C_14
REMARK    5  A    between atoms: N_17  and  S_20
REMARK    6  A    between atoms: S_20  and  C_23
REMARK    7  A    between atoms: C_28  and  C_29
REMARK                            x       y       z     vdW  Elec       q    Type
REMARK                         _______ _______ _______ _____ _____    ______ ____
ROOT
ATOM      1  C   UNL     1      -0.368   3.686  -1.248  0.00  0.00    +0.078 C 
ATOM      2  C   UNL     1       0.996   2.995  -1.196  0.00  0.00    +0.030 C 
ATOM      3  C   UNL     1       1.070   2.114   0.055  0.00  0.00    +0.110 C 
ATOM      4  N   UNL     1      -0.074   1.192   0.052  0.00  0.00    -0.177 NA
ATOM      5  C   UNL     1      -1.427   1.746  -0.091  0.00  0.00    +0.110 C 
ATOM      6  C   UNL     1      -1.474   2.632  -1.335  0.00  0.00    +0.030 C 
ENDROOT
BRANCH   1  15
ATOM      7  C   UNL     1       1.899   9.330  -2.399  0.00  0.00    +0.403 C 
ATOM      8  O   UNL     1       1.758  10.071  -3.351  0.00  0.00    -0.226 OA
ATOM      9  N   UNL     1       1.582   8.025  -2.507  0.00  0.00    -0.264 N 
ATOM     10  C   UNL     1       1.063   7.484  -3.771  0.00  0.00    +0.130 C 
ATOM     11  C   UNL     1      -0.279   6.794  -3.495  0.00  0.00    +0.127 C 
ATOM     12  N   UNL     1      -0.113   5.886  -2.351  0.00  0.00    -0.298 N 
ATOM     13  C   UNL     1       0.401   6.428  -1.085  0.00  0.00    +0.127 C 
ATOM     14  C   UNL     1       1.748   7.117  -1.364  0.00  0.00    +0.130 C 
ATOM     15  C   UNL     1      -0.432   4.581  -2.460  0.00  0.00    +0.219 C 
ATOM     16  O   UNL     1      -0.769   4.126  -3.532  0.00  0.00    -0.275 OA
BRANCH   7  17
ATOM     17  O   UNL     1       2.374   9.813  -1.235  0.00  0.00    -0.451 OA
BRANCH  17  19
ATOM     18  C   UNL     1       3.216  11.589   0.202  0.00  0.00    +0.048 C 
ATOM     19  C   UNL     1       2.695  11.228  -1.190  0.00  0.00    +0.230 C 
ENDBRANCH  17  19
ENDBRANCH   7  17
ENDBRANCH   1  15
BRANCH   4  20
ATOM     20  S   UNL     1       0.158  -0.441   0.200  0.00  0.00    +0.061 S 
ATOM     21  O   UNL     1      -1.029  -1.064  -0.271  0.00  0.00    -0.153 OA
ATOM     22  O   UNL     1       1.436  -0.722  -0.352  0.00  0.00    -0.153 OA
BRANCH  20  23
ATOM     23  C   UNL     1       0.265  -0.798   1.923  0.00  0.00    +0.117 A 
ATOM     24  C   UNL     1      -0.123   0.151   2.850  0.00  0.00    +0.029 A 
ATOM     25  C   UNL     1      -0.044  -0.131   4.201  0.00  0.00    +0.002 A 
ATOM     26  C   UNL     1       0.433  -1.357   4.625  0.00  0.00    +0.001 A 
ATOM     27  C   UNL     1       0.825  -2.304   3.697  0.00  0.00    +0.014 A 
ATOM     28  C   UNL     1       0.741  -2.024   2.346  0.00  0.00    +0.081 A 
BRANCH  28  29
ATOM     29  C   UNL     1       1.170  -3.056   1.335  0.00  0.00    +0.419 C 
ATOM     30  F   UNL     1       1.486  -4.250   1.992  0.00  0.00    -0.166 F 
ATOM     31  F   UNL     1       0.127  -3.284   0.430  0.00  0.00    -0.166 F 
ATOM     32  F   UNL     1       2.294  -2.593   0.643  0.00  0.00    -0.166 F 
ENDBRANCH  28  29
ENDBRANCH  20  23
ENDBRANCH   4  20
TORSDOF 6
