REMARK  Name = ZINC04517039
REMARK  11 active torsions:
REMARK  status: ('A' for Active; 'I' for Inactive)
REMARK    1  A    between atoms: C_1  and  C_2
REMARK    2  A    between atoms: C_3  and  C_23
REMARK    3  A    between atoms: C_12  and  N_16
REMARK    4  A    between atoms: C_13  and  C_14
REMARK    5  A    between atoms: N_19  and  C_20
REMARK    6  A    between atoms: C_20  and  C_21
REMARK    7  A    between atoms: C_23  and  O_25
REMARK    8  A    between atoms: O_25  and  C_26
REMARK    9  A    between atoms: C_26  and  C_27
REMARK   10  A    between atoms: C_26  and  C_28
REMARK   11  A    between atoms: C_26  and  C_29
REMARK                            x       y       z     vdW  Elec       q    Type
REMARK                         _______ _______ _______ _____ _____    ______ ____
ROOT
ATOM      1  C   UNL     1      -2.749  -0.122   0.016  0.00  0.00    +0.061 C 
ATOM      2  C   UNL     1      -2.483   1.361   0.022  0.00  0.00    +0.022 C 
ATOM      3  C   UNL     1      -1.250   1.903   0.018  0.00  0.00    +0.078 C 
ATOM      4  C   UNL     1      -1.455   3.401   0.034  0.00  0.00    +0.148 C 
ATOM      5  C   UNL     1      -0.862   3.997   1.278  0.00  0.00    +0.020 A 
ATOM      6  C   UNL     1      -1.493   3.818   2.495  0.00  0.00    +0.009 A 
ATOM      7  C   UNL     1      -0.953   4.362   3.645  0.00  0.00    +0.001 A 
ATOM      8  C   UNL     1       0.221   5.090   3.581  0.00  0.00    +0.004 A 
ATOM      9  C   UNL     1       0.856   5.272   2.368  0.00  0.00    +0.046 A 
ATOM     10  C   UNL     1       0.316   4.726   1.210  0.00  0.00    +0.135 A 
ATOM     11  O   UNL     1       0.949   4.913   0.026  0.00  0.00    -0.441 OA
ATOM     12  C   UNL     1       0.288   4.737  -1.130  0.00  0.00    +0.199 C 
ATOM     13  C   UNL     1      -0.864   4.024  -1.195  0.00  0.00    +0.110 C 
ATOM     14  C   UNL     1      -2.959   3.561   0.035  0.00  0.00    +0.240 C 
ATOM     15  O   UNL     1      -3.583   4.600   0.043  0.00  0.00    -0.274 OA
ATOM     16  N   UNL     1      -3.462   2.310   0.031  0.00  0.00    -0.270 N 
ENDROOT
BRANCH  12  17
ATOM     17  N   UNL     1       0.794   5.293  -2.279  0.00  0.00    -0.328 N 
ATOM     18  H   UNL     1       1.617   5.804  -2.248  0.00  0.00    +0.145 HD
ATOM     19  H   UNL     1       0.328   5.173  -3.121  0.00  0.00    +0.145 HD
ENDBRANCH  12  17
BRANCH  13  20
ATOM     20  C   UNL     1      -1.525   3.865  -2.455  0.00  0.00    +0.102 C 
ATOM     21  N   UNL     1      -2.050   3.739  -3.455  0.00  0.00    -0.191 NA
ENDBRANCH  13  20
BRANCH   3  22
ATOM     22  C   UNL     1      -0.014   1.212   0.009  0.00  0.00    +0.339 C 
ATOM     23  O   UNL     1       0.002  -0.004   0.002  0.00  0.00    -0.245 OA
BRANCH  22  24
ATOM     24  O   UNL     1       1.145   1.903   0.001  0.00  0.00    -0.456 OA
BRANCH  24  25
ATOM     25  C   UNL     1       2.354   1.141  -0.014  0.00  0.00    +0.106 C 
ATOM     26  C   UNL     1       2.389   0.266  -1.269  0.00  0.00    +0.055 C 
ATOM     27  C   UNL     1       3.554   2.090  -0.021  0.00  0.00    +0.055 C 
ATOM     28  C   UNL     1       2.413   0.252   1.230  0.00  0.00    +0.055 C 
ENDBRANCH  24  25
ENDBRANCH  22  24
ENDBRANCH   3  22
BRANCH  16  29
ATOM     29  C   UNL     1      -4.895   2.006   0.037  0.00  0.00    +0.140 C 
BRANCH  29  30
ATOM     30  C   UNL     1      -5.379   1.895   1.460  0.00  0.00    -0.015 C 
ATOM     31  C   UNL     1      -6.384   2.630   1.869  0.00  0.00    +0.005 C 
ENDBRANCH  29  30
ENDBRANCH  16  29
TORSDOF 7
