REMARK  Name = ZINC05343905
REMARK  9 active torsions:
REMARK  status: ('A' for Active; 'I' for Inactive)
REMARK    1  A    between atoms: C_1  and  C_2
REMARK    2  A    between atoms: C_2  and  O_3
REMARK    3  A    between atoms: O_3  and  C_4
REMARK    4  A    between atoms: C_6  and  C_12
REMARK    5  A    between atoms: C_9  and  O_10
REMARK    6  A    between atoms: O_10  and  C_11
REMARK    7  A    between atoms: C_15  and  C_26
REMARK    8  A    between atoms: C_21  and  N_25
REMARK    9  A    between atoms: C_22  and  C_23
REMARK                            x       y       z     vdW  Elec       q    Type
REMARK                         _______ _______ _______ _____ _____    ______ ____
ROOT
ATOM      1  C   UNL     1      -0.229  -4.969   0.477  0.00  0.00    +0.097 C 
ATOM      2  C   UNL     1      -1.296  -5.798  -0.172  0.00  0.00    +0.027 A 
ATOM      3  C   UNL     1      -2.575  -5.410  -0.501  0.00  0.00    +0.106 A 
ATOM      4  N   UNL     1      -3.190  -6.486  -1.077  0.00  0.00    -0.273 N 
ATOM      5  H   UNL     1      -4.100  -6.510  -1.413  0.00  0.00    +0.189 HD
ATOM      6  N   UNL     1      -2.273  -7.547  -1.100  0.00  0.00    -0.166 NA
ATOM      7  C   UNL     1      -1.157  -7.142  -0.562  0.00  0.00    +0.129 A 
ATOM      8  S   UNL     1       0.330  -8.060  -0.316  0.00  0.00    -0.052 S 
ATOM      9  C   UNL     1       1.215  -7.046   0.823  0.00  0.00    +0.079 C 
ATOM     10  C   UNL     1       0.875  -5.771   1.067  0.00  0.00    +0.069 C 
ENDROOT
BRANCH   1  13
ATOM     11  C   UNL     1       0.777  -1.811  -1.336  0.00  0.00    +0.162 A 
ATOM     12  C   UNL     1       0.243  -2.669  -0.388  0.00  0.00    +0.054 A 
ATOM     13  C   UNL     1       0.352  -4.037  -0.555  0.00  0.00    -0.031 A 
ATOM     14  C   UNL     1       0.992  -4.552  -1.667  0.00  0.00    +0.008 A 
ATOM     15  C   UNL     1       1.526  -3.702  -2.616  0.00  0.00    +0.050 A 
ATOM     16  C   UNL     1       1.416  -2.330  -2.458  0.00  0.00    +0.162 A 
BRANCH  16  17
ATOM     17  O   UNL     1       1.936  -1.492  -3.394  0.00  0.00    -0.491 OA
ATOM     18  C   UNL     1       2.578  -2.095  -4.520  0.00  0.00    +0.277 C 
ENDBRANCH  16  17
BRANCH  11  19
ATOM     19  O   UNL     1       0.671  -0.465  -1.174  0.00  0.00    -0.489 OA
BRANCH  19  21
ATOM     20  C   UNL     1      -0.019   1.526   0.010  0.00  0.00    +0.048 C 
ATOM     21  C   UNL     1       0.002  -0.004   0.002  0.00  0.00    +0.226 C 
ENDBRANCH  19  21
ENDBRANCH  11  19
ENDBRANCH   1  13
BRANCH   3  22
ATOM     22  C   UNL     1      -3.170  -4.082  -0.273  0.00  0.00    +0.153 A 
ATOM     23  C   UNL     1      -3.914  -3.376  -1.168  0.00  0.00    +0.051 A 
ATOM     24  C   UNL     1      -4.275  -2.171  -0.534  0.00  0.00    +0.042 A 
ATOM     25  C   UNL     1      -3.739  -2.199   0.702  0.00  0.00    +0.196 A 
ATOM     26  O   UNL     1      -3.078  -3.357   0.859  0.00  0.00    -0.461 OA
ENDBRANCH   3  22
BRANCH   9  27
ATOM     27  N   UNL     1       2.296  -7.581   1.483  0.00  0.00    -0.352 N 
ATOM     28  H   UNL     1       2.558  -8.501   1.319  0.00  0.00    +0.143 HD
ATOM     29  H   UNL     1       2.796  -7.040   2.113  0.00  0.00    +0.143 HD
ENDBRANCH   9  27
BRANCH  10  30
ATOM     30  C   UNL     1       1.688  -5.092   2.030  0.00  0.00    +0.098 C 
ATOM     31  N   UNL     1       2.334  -4.553   2.794  0.00  0.00    -0.191 NA
ENDBRANCH  10  30
TORSDOF 7
