REMARK  Name = ZINC43199480
REMARK  4 active torsions:
REMARK  status: ('A' for Active; 'I' for Inactive)
REMARK    1  A    between atoms: C_1  and  C_2
REMARK    2  A    between atoms: C_5  and  S_8
REMARK    3  A    between atoms: S_8  and  N_11
REMARK    4  A    between atoms: C_12  and  C_24
REMARK                            x       y       z     vdW  Elec       q    Type
REMARK                         _______ _______ _______ _____ _____    ______ ____
ROOT
ATOM      1  N   UNL     1       1.409  -5.277   0.198  0.00  0.00    -0.114 N 
ATOM      2  C   UNL     1       2.340  -5.435   1.345  0.00  0.00    +0.171 C 
ATOM      3  C   UNL     1       3.643  -4.897   0.740  0.00  0.00    +0.132 C 
ATOM      4  C   UNL     1       3.406  -5.174  -0.754  0.00  0.00    +0.061 C 
ATOM      5  N   UNL     1       2.187  -5.297  -0.972  0.00  0.00    -0.170 NA
ATOM      6  C   UNL     1       4.662  -5.420  -1.585  0.00  0.00    +0.039 C 
ATOM      7  C   UNL     1       5.074  -6.862  -1.166  0.00  0.00    +0.025 C 
ATOM      8  C   UNL     1       4.671  -7.036   0.306  0.00  0.00    +0.086 C 
ATOM      9  N   UNL     1       4.822  -5.736   1.040  0.00  0.00    -0.292 NA
ATOM     10  C   UNL     1       6.025  -5.062   0.496  0.00  0.00    +0.086 C 
ATOM     11  C   UNL     1       5.734  -4.517  -0.918  0.00  0.00    +0.025 C 
ENDROOT
BRANCH   2  12
ATOM     12  C   UNL     1       1.900  -4.599   2.519  0.00  0.00    -0.022 A 
ATOM     13  C   UNL     1       1.560  -3.272   2.334  0.00  0.00    +0.008 A 
ATOM     14  C   UNL     1       1.157  -2.505   3.411  0.00  0.00    +0.038 A 
ATOM     15  C   UNL     1       1.093  -3.066   4.675  0.00  0.00    +0.123 A 
ATOM     16  C   UNL     1       1.434  -4.395   4.859  0.00  0.00    +0.038 A 
ATOM     17  C   UNL     1       1.832  -5.162   3.780  0.00  0.00    +0.008 A 
ATOM     18  F   UNL     1       0.699  -2.317   5.728  0.00  0.00    -0.205 F 
ENDBRANCH   2  12
BRANCH   1  19
ATOM     19  S   UNL     1      -0.238  -5.117   0.282  0.00  0.00    +0.089 S 
ATOM     20  O   UNL     1      -0.623  -4.302  -0.817  0.00  0.00    -0.149 OA
ATOM     21  O   UNL     1      -0.544  -4.777   1.627  0.00  0.00    -0.149 OA
BRANCH  19  26
ATOM     22  C   UNL     1      -2.618 -10.573  -0.701  0.00  0.00    +0.044 C 
ATOM     23  C   UNL     1      -2.023  -9.210  -0.456  0.00  0.00    -0.050 A 
ATOM     24  C   UNL     1      -1.613  -8.854   0.815  0.00  0.00    +0.005 A 
ATOM     25  C   UNL     1      -1.067  -7.604   1.040  0.00  0.00    +0.029 A 
ATOM     26  C   UNL     1      -0.932  -6.710  -0.005  0.00  0.00    +0.110 A 
ATOM     27  C   UNL     1      -1.342  -7.067  -1.276  0.00  0.00    +0.029 A 
ATOM     28  C   UNL     1      -1.884  -8.318  -1.503  0.00  0.00    +0.005 A 
ENDBRANCH  19  26
ENDBRANCH   1  19
TORSDOF 3
