REMARK  Name = ZINC29502272
REMARK  3 active torsions:
REMARK  status: ('A' for Active; 'I' for Inactive)
REMARK    1  A    between atoms: C_1  and  C_2
REMARK    2  A    between atoms: N_7  and  C_9
REMARK    3  A    between atoms: C_9  and  N_10
REMARK                            x       y       z     vdW  Elec       q    Type
REMARK                         _______ _______ _______ _____ _____    ______ ____
ROOT
ATOM      1  N   UNL     1       3.339   3.498  -1.890  0.00  0.00    -0.291 N 
ATOM      2  C   UNL     1       3.173   4.688  -1.182  0.00  0.00    +0.088 A 
ATOM      3  C   UNL     1       3.065   4.986   0.167  0.00  0.00    +0.031 A 
ATOM      4  C   UNL     1       2.904   6.297   0.571  0.00  0.00    +0.017 A 
ATOM      5  C   UNL     1       2.848   7.313  -0.368  0.00  0.00    +0.021 A 
ATOM      6  C   UNL     1       2.954   7.023  -1.716  0.00  0.00    +0.063 A 
ATOM      7  C   UNL     1       3.117   5.711  -2.130  0.00  0.00    +0.158 A 
ATOM      8  O   UNL     1       3.246   5.136  -3.350  0.00  0.00    -0.407 OA
ATOM      9  C   UNL     1       3.385   3.809  -3.201  0.00  0.00    +0.420 A 
ATOM     10  O   UNL     1       3.527   3.011  -4.107  0.00  0.00    -0.223 OA
ATOM     11 BR   UNL     1       2.627   9.105   0.195  0.00  0.00    -0.050 Br
ENDROOT
BRANCH   1  12
ATOM     12  C   UNL     1       3.450   2.156  -1.314  0.00  0.00    +0.054 C 
BRANCH  12  18
ATOM     13  C   UNL     1       0.847  -2.018  -1.215  0.00  0.00    +0.005 C 
ATOM     14  C   UNL     1       0.771  -0.489  -1.230  0.00  0.00    -0.031 C 
ATOM     15  C   UNL     1       0.002  -0.004   0.002  0.00  0.00    -0.001 C 
ATOM     16  C   UNL     1      -0.019   1.527   0.010  0.00  0.00    -0.018 C 
ATOM     17  C   UNL     1       1.419   2.052  -0.001  0.00  0.00    -0.076 C 
ATOM     18  N   UNL     1       2.112   1.560  -1.198  0.00  0.00    +0.392 N 
ATOM     19  C   UNL     1       2.186   0.094  -1.205  0.00  0.00    -0.073 C 
ATOM     20  H   UNL     1       1.525   1.870  -2.076  0.00  0.00    -0.079 HD
ENDBRANCH  12  18
ENDBRANCH   1  12
TORSDOF 2
