REMARK  Name = ZINC39664879
REMARK  9 active torsions:
REMARK  status: ('A' for Active; 'I' for Inactive)
REMARK    1  A    between atoms: C_1  and  N_2
REMARK    2  A    between atoms: N_2  and  C_3
REMARK    3  A    between atoms: N_2  and  C_4
REMARK    4  A    between atoms: C_4  and  C_5
REMARK    5  A    between atoms: C_5  and  C_7
REMARK    6  A    between atoms: C_5  and  N_13
REMARK    7  A    between atoms: C_14  and  C_16
REMARK    8  A    between atoms: C_27  and  C_29
REMARK    9  A    between atoms: C_32  and  C_34
REMARK                            x       y       z     vdW  Elec       q    Type
REMARK                         _______ _______ _______ _____ _____    ______ ____
ROOT
ATOM      1  C   UNL     1       1.718  -3.440   1.760  0.00  0.00    +0.100 C 
ATOM      2  C   UNL     1       1.560  -4.975   1.833  0.00  0.00    +0.121 C 
ATOM      3  N   UNL     1       2.738  -5.507   1.108  0.00  0.00    -0.294 N 
ATOM      4  C   UNL     1       3.852  -4.614   1.508  0.00  0.00    +0.115 C 
ATOM      5  C   UNL     1       3.223  -3.207   1.550  0.00  0.00    -0.004 C 
ATOM      6  C   UNL     1       3.467  -2.482   0.230  0.00  0.00    -0.010 C 
ATOM      7  C   UNL     1       4.965  -2.211   0.071  0.00  0.00    -0.082 C 
ATOM      8  N   UNL     1       5.439  -1.395   1.195  0.00  0.00    +0.379 N 
ATOM      9  C   UNL     1       5.286  -2.137   2.452  0.00  0.00    -0.082 C 
ATOM     10  C   UNL     1       3.801  -2.405   2.712  0.00  0.00    -0.010 C 
ATOM     11  C   UNL     1       2.786  -6.564   0.274  0.00  0.00    +0.282 C 
ATOM     12  O   UNL     1       3.840  -6.880  -0.249  0.00  0.00    -0.267 OA
ATOM     13  H   UNL     1       6.412  -1.166   1.057  0.00  0.00    -0.086 HD
ATOM     14  H   UNL     1       4.900  -0.543   1.241  0.00  0.00    -0.086 HD
ENDROOT
BRANCH  11  15
ATOM     15  C   UNL     1       1.571  -7.334  -0.004  0.00  0.00    +0.190 A 
ATOM     16  C   UNL     1       1.482  -8.435  -0.829  0.00  0.00    +0.055 A 
ATOM     17  C   UNL     1       0.146  -8.851  -0.803  0.00  0.00    +0.050 A 
ATOM     18  C   UNL     1      -0.523  -7.998   0.027  0.00  0.00    +0.136 A 
ATOM     19  O   UNL     1       0.346  -7.093   0.507  0.00  0.00    -0.450 OA
BRANCH  18  20
ATOM     20  C   UNL     1      -1.963  -8.064   0.349  0.00  0.00    +0.017 A 
ATOM     21  C   UNL     1      -2.761  -9.066  -0.208  0.00  0.00    +0.011 A 
ATOM     22  C   UNL     1      -4.106  -9.122   0.098  0.00  0.00    +0.001 A 
ATOM     23  C   UNL     1      -4.663  -8.189   0.954  0.00  0.00    +0.000 A 
ATOM     24  C   UNL     1      -3.878  -7.194   1.510  0.00  0.00    +0.001 A 
ATOM     25  C   UNL     1      -2.532  -7.129   1.217  0.00  0.00    +0.011 A 
ENDBRANCH  18  20
ENDBRANCH  11  15
BRANCH   1  27
ATOM     26  N   UNL     1       0.553  -1.594   0.596  0.00  0.00    -0.310 N 
ATOM     27  C   UNL     1       0.934  -2.886   0.597  0.00  0.00    +0.219 C 
ATOM     28  O   UNL     1       0.646  -3.605  -0.337  0.00  0.00    -0.275 OA
ATOM     29  H   UNL     1       0.838  -1.003   1.311  0.00  0.00    +0.149 HD
BRANCH  26  30
ATOM     30  C   UNL     1      -0.292  -1.081  -0.485  0.00  0.00    +0.087 C 
BRANCH  30  31
ATOM     31  C   UNL     1      -1.121   0.069   0.028  0.00  0.00    -0.029 A 
ATOM     32  C   UNL     1      -0.560   0.997   0.885  0.00  0.00    +0.005 A 
ATOM     33  C   UNL     1      -1.320   2.051   1.355  0.00  0.00    +0.000 A 
ATOM     34  C   UNL     1      -2.641   2.178   0.968  0.00  0.00    +0.000 A 
ATOM     35  C   UNL     1      -3.202   1.250   0.110  0.00  0.00    +0.000 A 
ATOM     36  C   UNL     1      -2.441   0.198  -0.364  0.00  0.00    +0.005 A 
ENDBRANCH  30  31
BRANCH  30  37
ATOM     37  C   UNL     1       0.591  -0.598  -1.638  0.00  0.00    -0.052 C 
BRANCH  37  39
ATOM     38  C   UNL     1       0.581   0.386  -3.825  0.00  0.00    -0.097 C 
ATOM     39  N   UNL     1      -0.255  -0.204  -2.772  0.00  0.00    +0.377 N 
ATOM     40  C   UNL     1      -0.947  -1.387  -3.301  0.00  0.00    -0.097 C 
ATOM     41  H   UNL     1      -0.936   0.473  -2.464  0.00  0.00    -0.083 HD
ENDBRANCH  37  39
ENDBRANCH  30  37
ENDBRANCH  26  30
ENDBRANCH   1  27
TORSDOF 7
