REMARK  Name = ZINC03957913
REMARK  2 active torsions:
REMARK  status: ('A' for Active; 'I' for Inactive)
REMARK    1  A    between atoms: C_4  and  N_7
REMARK    2  A    between atoms: C_15  and  O_19
REMARK                            x       y       z     vdW  Elec       q    Type
REMARK                         _______ _______ _______ _____ _____    ______ ____
ROOT
ATOM      1  N   UNL     1      -1.705   5.522  -1.379  0.00  0.00    -0.281 N 
ATOM      2  C   UNL     1      -1.060   4.919  -2.426  0.00  0.00    +0.034 A 
ATOM      3  C   UNL     1      -0.711   3.624  -2.349  0.00  0.00    +0.014 A 
ATOM      4  C   UNL     1      -1.030   2.877  -1.186  0.00  0.00    +0.134 A 
ATOM      5  C   UNL     1      -1.679   3.494  -0.142  0.00  0.00    +0.062 A 
ATOM      6  C   UNL     1      -2.017   4.849  -0.261  0.00  0.00    +0.263 A 
ATOM      7  O   UNL     1      -2.594   5.417   0.653  0.00  0.00    -0.267 OA
ATOM      8  C   UNL     1      -2.030   2.753   1.121  0.00  0.00    +0.079 C 
ATOM      9  C   UNL     1      -1.967   1.244   0.868  0.00  0.00    +0.156 C 
ATOM     10  C   UNL     1      -0.654   0.932   0.137  0.00  0.00    +0.260 C 
ATOM     11  O   UNL     1      -0.681   1.571  -1.141  0.00  0.00    -0.489 OA
ATOM     12  C   UNL     1       0.024   2.904  -3.450  0.00  0.00    +0.040 C 
ATOM     13  C   UNL     1      -0.093   3.668  -4.767  0.00  0.00    +0.005 C 
ATOM     14  C   UNL     1       0.300   5.128  -4.510  0.00  0.00    +0.006 C 
ATOM     15  C   UNL     1      -0.780   5.768  -3.641  0.00  0.00    +0.054 C 
ENDROOT
BRANCH   1  19
ATOM     16  C   UNL     1      -2.728   9.551  -1.675  0.00  0.00    +0.000 A 
ATOM     17  C   UNL     1      -1.519   9.185  -1.111  0.00  0.00    +0.002 A 
ATOM     18  C   UNL     1      -1.177   7.851  -1.011  0.00  0.00    +0.026 A 
ATOM     19  C   UNL     1      -2.049   6.876  -1.478  0.00  0.00    +0.050 A 
ATOM     20  C   UNL     1      -3.259   7.246  -2.050  0.00  0.00    +0.026 A 
ATOM     21  C   UNL     1      -3.597   8.582  -2.142  0.00  0.00    +0.002 A 
ENDBRANCH   1  19
BRANCH   9  22
ATOM     22  O   UNL     1      -2.004   0.541   2.112  0.00  0.00    -0.388 OA
ATOM     23  H   UNL     1      -1.951  -0.420   2.022  0.00  0.00    +0.210 HD
ENDBRANCH   9  22
TORSDOF 2
