REMARK  Name = ZINC35361033
REMARK  6 active torsions:
REMARK  status: ('A' for Active; 'I' for Inactive)
REMARK    1  A    between atoms: C_1  and  C_2
REMARK    2  A    between atoms: C_2  and  O_4
REMARK    3  A    between atoms: O_4  and  C_5
REMARK    4  A    between atoms: C_9  and  C_32
REMARK    5  A    between atoms: C_14  and  C_31
REMARK    6  A    between atoms: N_26  and  N_27
REMARK                            x       y       z     vdW  Elec       q    Type
REMARK                         _______ _______ _______ _____ _____    ______ ____
ROOT
ATOM      1  C   UNL     1      -1.057  -2.117   0.001  0.00  0.00    +0.180 C 
ATOM      2  C   UNL     1      -2.263  -2.712   0.730  0.00  0.00    +0.046 C 
ATOM      3  C   UNL     1      -2.122  -4.233   0.804  0.00  0.00    +0.015 C 
ATOM      4  C   UNL     1      -2.124  -4.813  -0.614  0.00  0.00    -0.008 C 
ATOM      5  C   UNL     1      -1.962  -6.322  -0.561  0.00  0.00    +0.003 C 
ATOM      6  C   UNL     1      -0.952  -6.702   0.527  0.00  0.00    +0.005 C 
ATOM      7  C   UNL     1      -0.905  -8.226   0.629  0.00  0.00    +0.013 C 
ATOM      8  C   UNL     1      -0.502  -8.853  -0.686  0.00  0.00    +0.011 C 
ATOM      9  C   UNL     1      -1.371  -8.387  -1.868  0.00  0.00    +0.005 C 
ATOM     10  C   UNL     1      -1.449  -6.858  -1.895  0.00  0.00    +0.001 C 
ATOM     11  C   UNL     1      -0.056  -6.271  -2.148  0.00  0.00    +0.031 C 
ATOM     12  C   UNL     1      -0.141  -4.773  -2.095  0.00  0.00    -0.027 C 
ATOM     13  C   UNL     1      -1.059  -4.138  -1.428  0.00  0.00    -0.064 C 
ATOM     14  C   UNL     1      -1.037  -2.618  -1.446  0.00  0.00    +0.075 C 
ATOM     15  C   UNL     1      -0.486  -8.805  -3.080  0.00  0.00    +0.010 C 
ATOM     16  C   UNL     1       0.949  -8.496  -2.599  0.00  0.00    +0.053 C 
ATOM     17  C   UNL     1       0.916  -8.519  -1.082  0.00  0.00    +0.043 C 
ATOM     18  N   UNL     1       1.899  -8.298  -0.292  0.00  0.00    -0.187 NA
ATOM     19  C   UNL     1      -0.632 -10.373  -0.567  0.00  0.00    +0.018 C 
ATOM     20  C   UNL     1      -3.481  -4.510  -1.253  0.00  0.00    +0.016 C 
ENDROOT
BRANCH  18  21
ATOM     21  N   UNL     1       3.164  -7.999  -0.815  0.00  0.00    -0.191 N 
ATOM     22  C   UNL     1       4.199  -7.766   0.016  0.00  0.00    +0.317 C 
ATOM     23  O   UNL     1       5.297  -7.506  -0.437  0.00  0.00    -0.251 OA
ATOM     24  N   UNL     1       4.017  -7.822   1.351  0.00  0.00    -0.312 N 
ATOM     25  H   UNL     1       3.295  -7.959  -1.775  0.00  0.00    +0.179 HD
ATOM     26  H   UNL     1       3.142  -8.029   1.712  0.00  0.00    +0.147 HD
ATOM     27  H   UNL     1       4.762  -7.654   1.949  0.00  0.00    +0.147 HD
ENDBRANCH  18  21
BRANCH   1  28
ATOM     28  O   UNL     1      -1.151  -0.691   0.009  0.00  0.00    -0.461 OA
BRANCH  28  30
ATOM     29  C   UNL     1      -0.018   1.503   0.010  0.00  0.00    +0.136 C 
ATOM     30  C   UNL     1       0.002  -0.004   0.002  0.00  0.00    +0.304 C 
ATOM     31  O   UNL     1       1.056  -0.594  -0.011  0.00  0.00    -0.251 OA
ENDBRANCH  28  30
ENDBRANCH   1  28
TORSDOF 3
