REMARK  Name = ZINC40113468
REMARK  4 active torsions:
REMARK  status: ('A' for Active; 'I' for Inactive)
REMARK    1  A    between atoms: C_1  and  C_2
REMARK    2  A    between atoms: C_2  and  N_3
REMARK    3  A    between atoms: C_11  and  C_13
REMARK    4  A    between atoms: C_23  and  C_26
REMARK                            x       y       z     vdW  Elec       q    Type
REMARK                         _______ _______ _______ _____ _____    ______ ____
ROOT
ATOM      1  C   UNL     1      -2.142  -1.482   5.939  0.00  0.00    +0.028 C 
ATOM      2  C   UNL     1      -3.373  -0.938   6.117  0.00  0.00    +0.079 C 
ATOM      3  C   UNL     1      -4.261  -0.965   7.303  0.00  0.00    +0.276 C 
ATOM      4  O   UNL     1      -3.941  -1.536   8.334  0.00  0.00    -0.267 OA
ATOM      5  N   UNL     1      -5.412  -0.341   7.184  0.00  0.00    -0.154 NA
ATOM      6  C   UNL     1      -5.771   0.281   6.072  0.00  0.00    +0.154 C 
ATOM      7  S   UNL     1      -4.375   0.022   4.989  0.00  0.00    -0.052 S 
ATOM      8  N   UNL     1      -6.931   0.963   5.817  0.00  0.00    -0.311 N 
ATOM      9  C   UNL     1      -7.158   1.590   4.507  0.00  0.00    +0.107 C 
ATOM     10  C   UNL     1      -8.496   1.096   3.949  0.00  0.00    +0.022 C 
ATOM     11  C   UNL     1      -9.601   1.363   4.973  0.00  0.00    -0.011 C 
ATOM     12  C   UNL     1      -9.302   0.593   6.261  0.00  0.00    +0.022 C 
ATOM     13  C   UNL     1      -7.975   1.076   6.844  0.00  0.00    +0.107 C 
ATOM     14  C   UNL     1     -10.945   0.902   4.405  0.00  0.00    +0.007 C 
ENDROOT
BRANCH   1  23
ATOM     15  N   UNL     1       0.228  -1.464   0.833  0.00  0.00    -0.330 N 
ATOM     16  C   UNL     1       1.687  -1.581   0.708  0.00  0.00    +0.105 C 
ATOM     17  C   UNL     1       2.151  -2.700   1.649  0.00  0.00    +0.024 C 
ATOM     18  C   UNL     1       1.836  -2.294   3.089  0.00  0.00    +0.038 C 
ATOM     19  C   UNL     1       0.395  -1.872   3.214  0.00  0.00    -0.026 A 
ATOM     20  C   UNL     1      -0.344  -1.472   2.105  0.00  0.00    +0.033 A 
ATOM     21  C   UNL     1      -1.673  -1.076   2.248  0.00  0.00    +0.024 A 
ATOM     22  C   UNL     1      -2.264  -1.076   3.490  0.00  0.00    +0.010 A 
ATOM     23  C   UNL     1      -1.523  -1.477   4.609  0.00  0.00    -0.023 A 
ATOM     24  C   UNL     1      -0.189  -1.881   4.453  0.00  0.00    +0.013 A 
BRANCH  15  26
ATOM     25  C   UNL     1      -0.780   0.144  -0.710  0.00  0.00    +0.024 C 
ATOM     26  C   UNL     1      -0.613  -1.336  -0.359  0.00  0.00    +0.102 C 
ENDBRANCH  15  26
ENDBRANCH   1  23
TORSDOF 2
