REMARK  Name = ZINC23675081
REMARK  6 active torsions:
REMARK  status: ('A' for Active; 'I' for Inactive)
REMARK    1  A    between atoms: C_1  and  C_2
REMARK    2  A    between atoms: C_7  and  C_13
REMARK    3  A    between atoms: C_13  and  S_14
REMARK    4  A    between atoms: S_14  and  C_15
REMARK    5  A    between atoms: N_20  and  C_21
REMARK    6  A    between atoms: C_21  and  C_22
REMARK                            x       y       z     vdW  Elec       q    Type
REMARK                         _______ _______ _______ _____ _____    ______ ____
ROOT
ATOM      1  S   UNL     1      -1.602  -1.455  -1.643  0.00  0.00    -0.091 S 
ENDROOT
BRANCH   1   2
ATOM      2  C   UNL     1      -3.130  -2.316  -1.470  0.00  0.00    +0.160 A 
ATOM      3  N   UNL     1      -3.894  -2.458  -0.404  0.00  0.00    -0.133 NA
ATOM      4  N   UNL     1      -5.064  -3.176  -0.491  0.00  0.00    -0.125 NA
ATOM      5  C   UNL     1      -5.412  -3.728  -1.637  0.00  0.00    +0.182 A 
ATOM      6  S   UNL     1      -4.056  -3.235  -2.691  0.00  0.00    -0.025 S 
ATOM      7  N   UNL     1      -6.533  -4.490  -1.944  0.00  0.00    -0.320 N 
ATOM      8  H   UNL     1      -6.671  -4.879  -2.963  0.00  0.00    +0.148 HD
BRANCH   7   9
ATOM      9  C   UNL     1      -7.530  -4.774  -0.909  0.00  0.00    +0.135 C 
BRANCH   9  10
ATOM     10  C   UNL     1      -8.654  -5.625  -1.505  0.00  0.00    +0.135 C 
ATOM     11  C   UNL     1      -9.713  -5.923  -0.426  0.00  0.00    +0.035 C 
ATOM     12  C   UNL     1     -11.024  -5.340  -1.008  0.00  0.00    +0.031 C 
ATOM     13  C   UNL     1     -10.704  -5.274  -2.524  0.00  0.00    +0.160 C 
ATOM     14  O   UNL     1      -9.308  -4.901  -2.561  0.00  0.00    -0.375 OA
ENDBRANCH   9  10
ENDBRANCH   7   9
ENDBRANCH   1   2
BRANCH   1  15
ATOM     15  C   UNL     1      -1.293  -0.775   0.010  0.00  0.00    +0.132 C 
BRANCH  15  22
ATOM     16  C   UNL     1       6.018   2.097  -0.044  0.00  0.00    +0.045 C 
ATOM     17  C   UNL     1       4.711   1.348  -0.036  0.00  0.00    -0.034 A 
ATOM     18  C   UNL     1       4.708  -0.054  -0.044  0.00  0.00    +0.008 A 
ATOM     19  C   UNL     1       3.522  -0.725  -0.036  0.00  0.00    +0.047 A 
ATOM     20  C   UNL     1       2.317   0.002  -0.021  0.00  0.00    +0.141 A 
ATOM     21  N   UNL     1       1.157  -0.651  -0.013  0.00  0.00    -0.233 NA
ATOM     22  C   UNL     1       0.002  -0.004   0.002  0.00  0.00    +0.059 A 
ATOM     23  C   UNL     1      -0.017   1.377   0.010  0.00  0.00    +0.094 A 
ATOM     24  C   UNL     1       1.199   2.071   0.002  0.00  0.00    +0.259 A 
ATOM     25  O   UNL     1       1.216   3.291   0.007  0.00  0.00    -0.267 OA
ATOM     26  N   UNL     1       2.352   1.369  -0.013  0.00  0.00    -0.268 N 
ATOM     27  C   UNL     1       3.543   2.029  -0.021  0.00  0.00    +0.099 A 
ENDBRANCH  15  22
ENDBRANCH   1  15
TORSDOF 5
