REMARK  Name = ZINC49524639
REMARK  6 active torsions:
REMARK  status: ('A' for Active; 'I' for Inactive)
REMARK    1  A    between atoms: C_1  and  C_2
REMARK    2  A    between atoms: C_5  and  C_20
REMARK    3  A    between atoms: C_6  and  C_8
REMARK    4  A    between atoms: N_10  and  C_11
REMARK    5  A    between atoms: C_13  and  C_18
REMARK    6  A    between atoms: C_16  and  C_17
REMARK                            x       y       z     vdW  Elec       q    Type
REMARK                         _______ _______ _______ _____ _____    ______ ____
ROOT
ATOM      1  C   UNL     1       0.589  -2.713   2.524  0.00  0.00    +0.249 C 
ATOM      2  O   UNL     1       0.693  -3.923   2.560  0.00  0.00    -0.270 OA
ATOM      3  N   UNL     1       0.755  -1.988   3.648  0.00  0.00    -0.281 N 
ATOM      4  H   UNL     1       0.603  -1.030   3.635  0.00  0.00    +0.155 HD
ENDROOT
BRANCH   1  10
ATOM      5  C   UNL     1       0.007   1.489  -0.104  0.00  0.00    +0.044 C 
ATOM      6  C   UNL     1      -0.002  -0.016  -0.022  0.00  0.00    -0.050 A 
ATOM      7  C   UNL     1      -0.301  -0.767  -1.145  0.00  0.00    +0.003 A 
ATOM      8  C   UNL     1      -0.312  -2.148  -1.078  0.00  0.00    +0.004 A 
ATOM      9  C   UNL     1      -0.023  -2.787   0.111  0.00  0.00    -0.038 A 
ATOM     10  C   UNL     1       0.279  -2.035   1.247  0.00  0.00    +0.040 A 
ATOM     11  C   UNL     1       0.293  -0.641   1.171  0.00  0.00    +0.016 A 
ATOM     12  C   UNL     1      -0.036  -4.292   0.182  0.00  0.00    +0.044 C 
ENDBRANCH   1  10
BRANCH   3  13
ATOM     13  C   UNL     1       1.146  -2.617   4.835  0.00  0.00    +0.038 A 
ATOM     14  C   UNL     1       0.730  -3.913   5.101  0.00  0.00    +0.042 A 
ATOM     15  C   UNL     1       1.123  -4.536   6.286  0.00  0.00    +0.054 A 
ATOM     16  C   UNL     1       1.932  -3.850   7.195  0.00  0.00    +0.019 A 
ATOM     17  C   UNL     1       2.340  -2.561   6.920  0.00  0.00    +0.006 A 
ATOM     18  C   UNL     1       1.955  -1.946   5.743  0.00  0.00    -0.029 A 
ATOM     19  C   UNL     1       2.410  -0.540   5.447  0.00  0.00    +0.045 C 
BRANCH  15  20
ATOM     20  C   UNL     1       0.698  -5.874   6.569  0.00  0.00    +0.099 C 
ATOM     21  N   UNL     1       0.360  -6.935   6.794  0.00  0.00    -0.191 NA
ENDBRANCH  15  20
ENDBRANCH   3  13
TORSDOF 3
