REMARK  Name = ZINC47053167
REMARK  4 active torsions:
REMARK  status: ('A' for Active; 'I' for Inactive)
REMARK    1  A    between atoms: C_1  and  C_2
REMARK    2  A    between atoms: C_4  and  C_7
REMARK    3  A    between atoms: N_15  and  C_16
REMARK    4  A    between atoms: C_16  and  C_17
REMARK                            x       y       z     vdW  Elec       q    Type
REMARK                         _______ _______ _______ _____ _____    ______ ____
ROOT
ATOM      1  C   UNL     1      -1.500  -3.372  -0.010  0.00  0.00    +0.130 C 
ATOM      2  C   UNL     1      -1.125  -4.279  -1.201  0.00  0.00    +0.030 C 
ATOM      3  C   UNL     1      -1.248  -5.705  -0.603  0.00  0.00    +0.021 C 
ATOM      4  C   UNL     1      -0.755  -5.478   0.848  0.00  0.00    +0.110 C 
ATOM      5  N   UNL     1      -1.276  -4.146   1.220  0.00  0.00    -0.277 N 
ATOM      6  C   UNL     1      -1.506  -3.712   2.475  0.00  0.00    +0.303 C 
ATOM      7  O   UNL     1      -1.937  -2.590   2.660  0.00  0.00    -0.253 OA
ATOM      8  N   UNL     1      -1.260  -4.521   3.524  0.00  0.00    -0.299 N 
ATOM      9  H   UNL     1      -0.917  -5.416   3.376  0.00  0.00    +0.150 HD
ENDROOT
BRANCH   1  13
ATOM     10  C   UNL     1      -0.018   1.503   0.010  0.00  0.00    +0.089 C 
ATOM     11  C   UNL     1       0.002  -0.004   0.002  0.00  0.00    +0.135 A 
ATOM     12  C   UNL     1      -1.077  -0.810   0.003  0.00  0.00    +0.072 A 
ATOM     13  C   UNL     1      -0.627  -2.143  -0.007  0.00  0.00    +0.104 A 
ATOM     14  N   UNL     1       0.676  -2.130  -0.013  0.00  0.00    -0.081 NA
ATOM     15  O   UNL     1       1.098  -0.778  -0.013  0.00  0.00    -0.360 OA
ENDBRANCH   1  13
BRANCH   8  16
ATOM     16  C   UNL     1      -1.511  -4.049   4.888  0.00  0.00    +0.109 C 
BRANCH  16  17
ATOM     17  C   UNL     1      -1.151  -5.153   5.884  0.00  0.00    +0.006 C 
ATOM     18  C   UNL     1      -2.307  -6.128   6.167  0.00  0.00    +0.005 C 
ATOM     19  C   UNL     1      -1.861  -6.105   7.639  0.00  0.00    +0.001 C 
ATOM     20  C   UNL     1      -1.263  -4.717   7.354  0.00  0.00    +0.005 C 
ENDBRANCH  16  17
ENDBRANCH   8  16
TORSDOF 3
