REMARK  Name = ZINC12887835
REMARK  7 active torsions:
REMARK  status: ('A' for Active; 'I' for Inactive)
REMARK    1  A    between atoms: C_1  and  C_2
REMARK    2  A    between atoms: C_5  and  N_8
REMARK    3  A    between atoms: C_9  and  C_11
REMARK    4  A    between atoms: C_11  and  N_12
REMARK    5  A    between atoms: N_12  and  C_13
REMARK    6  A    between atoms: C_14  and  C_16
REMARK    7  A    between atoms: C_16  and  C_17
REMARK                            x       y       z     vdW  Elec       q    Type
REMARK                         _______ _______ _______ _____ _____    ______ ____
ROOT
ATOM      1  N   UNL     1       0.011  -1.078  -4.231  0.00  0.00    -0.296 N 
ATOM      2  C   UNL     1       0.627  -0.088  -5.120  0.00  0.00    +0.132 C 
ATOM      3  C   UNL     1       0.348  -1.113  -2.927  0.00  0.00    +0.217 C 
ATOM      4  O   UNL     1      -0.162  -1.932  -2.192  0.00  0.00    -0.276 OA
ENDROOT
BRANCH   1   5
ATOM      5  C   UNL     1      -0.970  -2.028  -4.761  0.00  0.00    +0.203 C 
BRANCH   5   7
ATOM      6  N   UNL     1      -3.421  -2.139  -5.076  0.00  0.00    -0.284 N 
ATOM      7  C   UNL     1      -2.352  -1.438  -4.648  0.00  0.00    +0.235 C 
ATOM      8  O   UNL     1      -2.503  -0.333  -4.172  0.00  0.00    -0.274 OA
ATOM      9  H   UNL     1      -3.295  -2.993  -5.518  0.00  0.00    +0.155 HD
BRANCH   6  14
ATOM     10  C   UNL     1      -8.654  -0.091  -4.294  0.00  0.00    +0.044 C 
ATOM     11  C   UNL     1      -7.264  -0.635  -4.502  0.00  0.00    -0.050 A 
ATOM     12  C   UNL     1      -6.217   0.229  -4.768  0.00  0.00    +0.005 A 
ATOM     13  C   UNL     1      -4.942  -0.266  -4.959  0.00  0.00    +0.023 A 
ATOM     14  C   UNL     1      -4.712  -1.634  -4.883  0.00  0.00    +0.033 A 
ATOM     15  C   UNL     1      -5.765  -2.499  -4.621  0.00  0.00    +0.023 A 
ATOM     16  C   UNL     1      -7.037  -1.997  -4.426  0.00  0.00    +0.005 A 
ENDBRANCH   6  14
ENDBRANCH   5   7
ENDBRANCH   1   5
BRANCH   3  17
ATOM     17  C   UNL     1       1.357  -0.136  -2.382  0.00  0.00    +0.119 C 
BRANCH  17  18
ATOM     18  C   UNL     1       1.557  -0.390  -0.886  0.00  0.00    +0.146 C 
ATOM     19  C   UNL     1       2.636   0.516  -0.354  0.00  0.00    +0.231 C 
ATOM     20  O   UNL     1       3.757   0.068  -0.230  0.00  0.00    -0.274 OA
ATOM     21  N   UNL     1       2.420   1.783  -0.014  0.00  0.00    -0.284 N 
ATOM     22  C   UNL     1       1.191   2.435   0.021  0.00  0.00    +0.048 A 
ATOM     23  C   UNL     1       1.161   3.826   0.046  0.00  0.00    +0.044 A 
ATOM     24  C   UNL     1      -0.046   4.496   0.072  0.00  0.00    +0.043 A 
ATOM     25  C   UNL     1      -1.238   3.793   0.073  0.00  0.00    +0.021 A 
ATOM     26  C   UNL     1      -1.223   2.411   0.057  0.00  0.00    +0.018 A 
ATOM     27  C   UNL     1      -0.015   1.734   0.028  0.00  0.00    +0.030 A 
ATOM     28  S   UNL     1       0.013  -0.031   0.006  0.00  0.00    -0.110 S 
ATOM     29 CL   UNL     1      -0.069   6.232   0.104  0.00  0.00    -0.083 Cl
ATOM     30  H   UNL     1       3.199   2.307   0.234  0.00  0.00    +0.155 HD
ENDBRANCH  17  18
ENDBRANCH   3  17
TORSDOF 5
