REMARK  Name = ZINC24192957
REMARK  9 active torsions:
REMARK  status: ('A' for Active; 'I' for Inactive)
REMARK    1  A    between atoms: C_1  and  N_2
REMARK    2  A    between atoms: N_2  and  C_3
REMARK    3  A    between atoms: N_2  and  C_4
REMARK    4  A    between atoms: C_4  and  C_5
REMARK    5  A    between atoms: C_5  and  N_6
REMARK    6  A    between atoms: C_7  and  C_25
REMARK    7  A    between atoms: C_9  and  C_14
REMARK    8  A    between atoms: C_14  and  C_16
REMARK    9  A    between atoms: C_28  and  O_31
REMARK                            x       y       z     vdW  Elec       q    Type
REMARK                         _______ _______ _______ _____ _____    ______ ____
ROOT
ATOM      1  N   UNL     1       2.219   0.873  -0.071  0.00  0.00    -0.285 N 
ATOM      2  C   UNL     1       1.496  -0.403  -0.007  0.00  0.00    +0.145 C 
ATOM      3  C   UNL     1       0.027  -0.052   0.039  0.00  0.00    +0.079 C 
ATOM      4  C   UNL     1      -0.053   1.299   0.003  0.00  0.00    +0.249 C 
ATOM      5  C   UNL     1       1.310   1.864  -0.064  0.00  0.00    +0.288 C 
ATOM      6  O   UNL     1       1.571   3.050  -0.108  0.00  0.00    -0.266 OA
ATOM      7  O   UNL     1      -1.200   2.017   0.021  0.00  0.00    -0.282 OA
ENDROOT
BRANCH   2   8
ATOM      8  C   UNL     1       1.887  -1.159   1.237  0.00  0.00    -0.022 A 
ATOM      9  C   UNL     1       2.017  -0.489   2.439  0.00  0.00    +0.009 A 
ATOM     10  C   UNL     1       2.370  -1.181   3.582  0.00  0.00    +0.046 A 
ATOM     11  C   UNL     1       2.605  -2.547   3.520  0.00  0.00    +0.117 A 
ATOM     12  C   UNL     1       2.479  -3.215   2.311  0.00  0.00    +0.046 A 
ATOM     13  C   UNL     1       2.120  -2.520   1.172  0.00  0.00    +0.009 A 
BRANCH  11  14
ATOM     14  O   UNL     1       2.957  -3.228   4.641  0.00  0.00    -0.507 OA
ATOM     15  H   UNL     1       3.143  -4.311   4.591  0.00  0.00    +0.292 HD
ENDBRANCH  11  14
ENDBRANCH   2   8
BRANCH   3  16
ATOM     16  C   UNL     1      -1.096  -0.993   0.108  0.00  0.00    +0.230 C 
ATOM     17  O   UNL     1      -1.807  -1.021   1.097  0.00  0.00    -0.283 OA
BRANCH  16  18
ATOM     18  C   UNL     1      -1.363  -1.903  -1.014  0.00  0.00    +0.176 A 
ATOM     19  C   UNL     1      -2.427  -2.747  -1.103  0.00  0.00    +0.061 A 
ATOM     20  C   UNL     1      -2.282  -3.447  -2.377  0.00  0.00    +0.021 A 
ATOM     21  C   UNL     1      -3.030  -4.422  -3.043  0.00  0.00    +0.011 A 
ATOM     22  C   UNL     1      -2.611  -4.883  -4.259  0.00  0.00    +0.001 A 
ATOM     23  C   UNL     1      -1.449  -4.390  -4.836  0.00  0.00    +0.004 A 
ATOM     24  C   UNL     1      -0.697  -3.428  -4.196  0.00  0.00    +0.047 A 
ATOM     25  C   UNL     1      -1.103  -2.943  -2.958  0.00  0.00    +0.136 A 
ATOM     26  O   UNL     1      -0.593  -2.024  -2.115  0.00  0.00    -0.452 OA
ENDBRANCH  16  18
ENDBRANCH   3  16
BRANCH   1  27
ATOM     27  C   UNL     1       3.673   1.037  -0.131  0.00  0.00    +0.090 C 
BRANCH  27  28
ATOM     28  C   UNL     1       4.125   1.053  -1.592  0.00  0.00    -0.060 C 
BRANCH  28  30
ATOM     29  C   UNL     1       6.269   0.048  -1.087  0.00  0.00    -0.097 C 
ATOM     30  N   UNL     1       5.584   1.218  -1.652  0.00  0.00    +0.377 N 
ATOM     31  C   UNL     1       6.028   1.475  -3.028  0.00  0.00    -0.097 C 
ATOM     32  H   UNL     1       5.850   2.094  -1.042  0.00  0.00    -0.083 HD
ENDBRANCH  28  30
ENDBRANCH  27  28
ENDBRANCH   1  27
TORSDOF 7
