REMARK  Name = ZINC14898991
REMARK  7 active torsions:
REMARK  status: ('A' for Active; 'I' for Inactive)
REMARK    1  A    between atoms: C_1  and  C_2
REMARK    2  A    between atoms: N_10  and  N_14
REMARK    3  A    between atoms: C_15  and  C_17
REMARK    4  A    between atoms: C_17  and  C_18
REMARK    5  A    between atoms: C_18  and  C_19
REMARK    6  A    between atoms: C_19  and  N_20
REMARK    7  A    between atoms: N_23  and  C_24
REMARK                            x       y       z     vdW  Elec       q    Type
REMARK                         _______ _______ _______ _____ _____    ______ ____
ROOT
ATOM      1  N   UNL     1       4.360  -5.952  -0.071  0.00  0.00    -0.224 N 
ATOM      2  C   UNL     1       4.096  -4.630  -0.062  0.00  0.00    +0.230 C 
ATOM      3  O   UNL     1       5.006  -3.829  -0.066  0.00  0.00    -0.274 OA
ATOM      4  H   UNL     1       3.631  -6.592  -0.068  0.00  0.00    +0.174 HD
ENDROOT
BRANCH   1  14
ATOM      5  C   UNL     1      11.814  -8.635   0.402  0.00  0.00    +0.007 C 
ATOM      6  C   UNL     1      10.411  -8.301   0.913  0.00  0.00    -0.014 C 
ATOM      7  C   UNL     1      10.155  -6.801   0.756  0.00  0.00    +0.006 C 
ATOM      8  C   UNL     1       8.755  -6.466   1.279  0.00  0.00    +0.035 C 
ATOM      9  C   UNL     1       7.714  -7.261   0.499  0.00  0.00    +0.114 C 
ATOM     10  C   UNL     1       7.972  -8.758   0.625  0.00  0.00    +0.035 C 
ATOM     11  C   UNL     1       9.374  -9.084   0.105  0.00  0.00    +0.006 C 
ATOM     12  C   UNL     1       6.323  -6.923   0.982  0.00  0.00    +0.263 C 
ATOM     13  O   UNL     1       5.873  -7.087   2.096  0.00  0.00    -0.271 OA
ATOM     14  N   UNL     1       5.687  -6.401  -0.087  0.00  0.00    -0.137 N 
ATOM     15  C   UNL     1       6.479  -6.370  -1.165  0.00  0.00    +0.326 C 
ATOM     16  O   UNL     1       6.129  -5.947  -2.249  0.00  0.00    -0.251 OA
ATOM     17  N   UNL     1       7.709  -6.856  -0.913  0.00  0.00    -0.284 N 
ATOM     18  H   UNL     1       8.445  -6.930  -1.540  0.00  0.00    +0.151 HD
ENDBRANCH   1  14
BRANCH   2  19
ATOM     19  C   UNL     1       2.668  -4.147  -0.046  0.00  0.00    +0.099 C 
BRANCH  19  20
ATOM     20  C   UNL     1       2.647  -2.617  -0.037  0.00  0.00    +0.028 C 
BRANCH  20  21
ATOM     21  C   UNL     1       1.198  -2.127  -0.021  0.00  0.00    +0.106 C 
BRANCH  21  22
ATOM     22  N   UNL     1       1.178  -0.662  -0.013  0.00  0.00    -0.299 N 
ATOM     23  C   UNL     1       0.002  -0.004   0.002  0.00  0.00    +0.300 C 
ATOM     24  O   UNL     1      -1.042  -0.626   0.009  0.00  0.00    -0.253 OA
ATOM     25  N   UNL     1      -0.016   1.344   0.009  0.00  0.00    -0.297 N 
ATOM     26  H   UNL     1       2.012  -0.166  -0.018  0.00  0.00    +0.150 HD
ATOM     27  H   UNL     1       0.817   1.840   0.004  0.00  0.00    +0.151 HD
BRANCH  25  28
ATOM     28  C   UNL     1      -1.295   2.059   0.019  0.00  0.00    +0.074 C 
ATOM     29  C   UNL     1      -1.808   2.206  -1.414  0.00  0.00    +0.022 C 
ATOM     30  C   UNL     1      -3.143   2.953  -1.404  0.00  0.00    +0.002 C 
ATOM     31  C   UNL     1      -2.947   4.339  -0.788  0.00  0.00    +0.000 C 
ATOM     32  C   UNL     1      -2.434   4.192   0.646  0.00  0.00    +0.002 C 
ATOM     33  C   UNL     1      -1.099   3.445   0.636  0.00  0.00    +0.022 C 
ENDBRANCH  25  28
ENDBRANCH  21  22
ENDBRANCH  20  21
ENDBRANCH  19  20
ENDBRANCH   2  19
TORSDOF 6
