REMARK  Name = ZINC31532099
REMARK  3 active torsions:
REMARK  status: ('A' for Active; 'I' for Inactive)
REMARK    1  A    between atoms: N_9  and  C_10
REMARK    2  A    between atoms: C_15  and  N_16
REMARK    3  A    between atoms: C_17  and  C_19
REMARK                            x       y       z     vdW  Elec       q    Type
REMARK                         _______ _______ _______ _____ _____    ______ ____
ROOT
ATOM      1  C   UNL     1       2.406   0.916   0.158  0.00  0.00    +0.055 A 
ATOM      2  C   UNL     1       3.619   1.589   0.198  0.00  0.00    +0.025 A 
ATOM      3  C   UNL     1       3.647   2.969   0.132  0.00  0.00    +0.002 A 
ATOM      4  C   UNL     1       2.468   3.684   0.024  0.00  0.00    +0.002 A 
ATOM      5  C   UNL     1       1.255   3.022  -0.023  0.00  0.00    +0.025 A 
ATOM      6  C   UNL     1       1.217   1.638   0.049  0.00  0.00    +0.055 A 
ENDROOT
BRANCH   1  15
ATOM      7  C   UNL     1       2.507  -3.356  -2.784  0.00  0.00    +0.000 A 
ATOM      8  C   UNL     1       2.557  -2.031  -3.177  0.00  0.00    +0.002 A 
ATOM      9  C   UNL     1       2.517  -1.025  -2.235  0.00  0.00    +0.024 A 
ATOM     10  C   UNL     1       2.421  -1.336  -0.877  0.00  0.00    +0.037 A 
ATOM     11  C   UNL     1       2.378  -2.667  -0.493  0.00  0.00    -0.025 A 
ATOM     12  C   UNL     1       2.418  -3.672  -1.441  0.00  0.00    +0.005 A 
ATOM     13  C   UNL     1       2.284  -2.730   1.015  0.00  0.00    +0.056 C 
ATOM     14  C   UNL     1       2.284  -1.259   1.463  0.00  0.00    +0.116 C 
ATOM     15  N   UNL     1       2.375  -0.481   0.225  0.00  0.00    -0.298 N 
ENDBRANCH   1  15
BRANCH   6  16
ATOM     16  N   UNL     1      -0.011   0.966   0.007  0.00  0.00    -0.280 N 
ATOM     17  C   UNL     1      -1.076   1.544  -0.582  0.00  0.00    +0.251 C 
ATOM     18  O   UNL     1      -0.948   2.604  -1.164  0.00  0.00    -0.270 OA
ATOM     19  H   UNL     1      -0.106  -0.034   0.456  0.00  0.00    +0.155 HD
BRANCH  17  20
ATOM     20  C   UNL     1      -2.399   0.891  -0.522  0.00  0.00    +0.072 A 
ATOM     21  C   UNL     1      -2.549  -0.330   0.140  0.00  0.00    +0.016 A 
ATOM     22  C   UNL     1      -3.788  -0.933   0.197  0.00  0.00    +0.001 A 
ATOM     23  C   UNL     1      -4.881  -0.337  -0.409  0.00  0.00    +0.003 A 
ATOM     24  C   UNL     1      -4.741   0.868  -1.071  0.00  0.00    +0.039 A 
ATOM     25  C   UNL     1      -3.506   1.488  -1.133  0.00  0.00    +0.135 A 
ATOM     26  F   UNL     1      -3.370   2.665  -1.781  0.00  0.00    -0.205 F 
ENDBRANCH  17  20
ENDBRANCH   6  16
TORSDOF 3
