REMARK  Name = ZINC19014962
REMARK  1 active torsions:
REMARK  status: ('A' for Active; 'I' for Inactive)
REMARK    1  A    between atoms: C_11  and  C_13
REMARK                            x       y       z     vdW  Elec       q    Type
REMARK                         _______ _______ _______ _____ _____    ______ ____
ROOT
ATOM      1  C   UNL     1       0.191   6.579  -6.597  0.00  0.00    +0.000 C 
ATOM      2  C   UNL     1       1.269   7.145  -7.504  0.00  0.00    +0.000 C 
ATOM      3  C   UNL     1       2.580   7.358  -6.759  0.00  0.00    +0.005 C 
ATOM      4  C   UNL     1       3.038   6.023  -6.169  0.00  0.00    +0.044 C 
ATOM      5  C   UNL     1       2.356   5.739  -4.865  0.00  0.00    +0.014 A 
ATOM      6  C   UNL     1       1.450   6.411  -4.137  0.00  0.00    +0.054 A 
ATOM      7  N   UNL     1       1.053   5.813  -2.999  0.00  0.00    -0.229 NA
ATOM      8  C   UNL     1       1.523   4.655  -2.607  0.00  0.00    +0.165 A 
ATOM      9  S   UNL     1       2.637   4.274  -3.882  0.00  0.00    -0.057 S 
ATOM     10  N   UNL     1       1.216   3.925  -1.465  0.00  0.00    -0.264 N 
ATOM     11  C   UNL     1       1.816   2.740  -1.240  0.00  0.00    +0.222 C 
ATOM     12  O   UNL     1       2.626   2.310  -2.034  0.00  0.00    -0.275 OA
ATOM     13  C   UNL     1       0.876   7.766  -4.497  0.00  0.00    +0.056 C 
ATOM     14  C   UNL     1      -0.181   7.661  -5.583  0.00  0.00    +0.006 C 
ATOM     15  H   UNL     1       0.568   4.269  -0.829  0.00  0.00    +0.157 HD
ENDROOT
BRANCH  11  16
ATOM     16  C   UNL     1       1.483   1.949  -0.002  0.00  0.00    +0.083 C 
ATOM     17  C   UNL     1      -0.019   1.563   0.011  0.00  0.00    +0.021 C 
ATOM     18  C   UNL     1       0.002  -0.004   0.002  0.00  0.00    +0.019 C 
ATOM     19  C   UNL     1       0.576  -0.337  -1.387  0.00  0.00    -0.027 C 
ATOM     20  C   UNL     1       1.856  -0.008  -1.397  0.00  0.00    -0.026 C 
ATOM     21  C   UNL     1       2.219   0.566  -0.016  0.00  0.00    +0.030 C 
ATOM     22  C   UNL     1       1.258  -0.266   0.866  0.00  0.00    -0.016 C 
ATOM     23  C   UNL     1       1.598  -1.565   1.528  0.00  0.00    +0.008 C 
ATOM     24  C   UNL     1       1.283  -0.313   2.363  0.00  0.00    +0.008 C 
ENDBRANCH  11  16
TORSDOF 1
