REMARK  Name = ZINC58118468
REMARK  8 active torsions:
REMARK  status: ('A' for Active; 'I' for Inactive)
REMARK    1  A    between atoms: C_1  and  C_2
REMARK    2  A    between atoms: C_2  and  C_3
REMARK    3  A    between atoms: C_2  and  C_4
REMARK    4  A    between atoms: C_2  and  C_5
REMARK    5  A    between atoms: C_5  and  C_7
REMARK    6  A    between atoms: C_5  and  O_20
REMARK    7  A    between atoms: N_14  and  C_19
REMARK    8  A    between atoms: N_17  and  C_18
REMARK                            x       y       z     vdW  Elec       q    Type
REMARK                         _______ _______ _______ _____ _____    ______ ____
ROOT
ATOM      1  C   UNL     1       2.132   0.024  -1.268  0.00  0.00    +0.002 A 
ATOM      2  C   UNL     1       3.159  -0.761  -0.780  0.00  0.00    +0.035 A 
ATOM      3  C   UNL     1       4.459  -0.282  -0.791  0.00  0.00    +0.070 A 
ATOM      4  C   UNL     1       4.727   0.994  -1.293  0.00  0.00    +0.071 A 
ATOM      5  C   UNL     1       3.691   1.775  -1.780  0.00  0.00    +0.048 A 
ATOM      6  C   UNL     1       2.397   1.287  -1.771  0.00  0.00    +0.049 A 
ATOM      7 CL   UNL     1       1.100   2.262  -2.387  0.00  0.00    -0.083 Cl
ATOM      8  N   UNL     1       6.100   1.193  -1.174  0.00  0.00    -0.295 N 
ATOM      9  C   UNL     1       6.643   0.091  -0.625  0.00  0.00    +0.330 A 
ATOM     10  O   UNL     1       7.826  -0.062  -0.384  0.00  0.00    -0.246 OA
ATOM     11  N   UNL     1       5.679  -0.817  -0.382  0.00  0.00    -0.295 N 
ATOM     12  C   UNL     1       5.878  -2.142   0.211  0.00  0.00    +0.154 C 
ATOM     13  C   UNL     1       6.830   2.398  -1.578  0.00  0.00    +0.154 C 
ENDROOT
BRANCH   1  14
ATOM     14  C   UNL     1       0.718  -0.497  -1.257  0.00  0.00    +0.151 C 
BRANCH  14  16
ATOM     15  C   UNL     1      -0.019   1.526   0.010  0.00  0.00    +0.013 C 
ATOM     16  C   UNL     1       0.002  -0.004   0.002  0.00  0.00    -0.008 C 
ATOM     17  C   UNL     1       0.742  -0.511   1.242  0.00  0.00    +0.013 C 
ATOM     18  C   UNL     1      -1.433  -0.534   0.013  0.00  0.00    +0.013 C 
ENDBRANCH  14  16
BRANCH  14  19
ATOM     19  O   UNL     1       0.738  -1.926  -1.265  0.00  0.00    -0.387 OA
ATOM     20  H   UNL     1       1.192  -2.318  -0.506  0.00  0.00    +0.210 HD
ENDBRANCH  14  19
ENDBRANCH   1  14
TORSDOF 3
