REMARK  Name = ZINC39930694
REMARK  4 active torsions:
REMARK  status: ('A' for Active; 'I' for Inactive)
REMARK    1  A    between atoms: C_1  and  C_2
REMARK    2  A    between atoms: C_2  and  C_4
REMARK    3  A    between atoms: C_4  and  O_6
REMARK    4  A    between atoms: O_6  and  C_7
REMARK                            x       y       z     vdW  Elec       q    Type
REMARK                         _______ _______ _______ _____ _____    ______ ____
ROOT
ATOM      1  C   UNL     1       0.021  -2.624  -2.545  0.00  0.00    +0.144 A 
ATOM      2  C   UNL     1       0.064  -1.796  -3.664  0.00  0.00    +0.047 A 
ATOM      3  C   UNL     1       0.068  -2.336  -4.933  0.00  0.00    +0.004 A 
ATOM      4  C   UNL     1       0.028  -3.710  -5.115  0.00  0.00    +0.012 A 
ATOM      5  C   UNL     1      -0.015  -4.555  -4.012  0.00  0.00    +0.037 A 
ATOM      6  C   UNL     1      -0.013  -4.010  -2.713  0.00  0.00    +0.075 A 
ATOM      7  C   UNL     1      -0.052  -4.909  -1.543  0.00  0.00    +0.198 C 
ATOM      8  O   UNL     1      -0.305  -4.469  -0.439  0.00  0.00    -0.286 OA
ATOM      9  C   UNL     1       0.220  -6.351  -1.730  0.00  0.00    +0.033 A 
ATOM     10  C   UNL     1       0.473  -7.171  -0.636  0.00  0.00    +0.012 A 
ATOM     11  C   UNL     1       0.726  -8.518  -0.829  0.00  0.00    +0.001 A 
ATOM     12  C   UNL     1       0.727  -9.055  -2.104  0.00  0.00    +0.001 A 
ATOM     13  C   UNL     1       0.477  -8.253  -3.204  0.00  0.00    +0.012 A 
ATOM     14  C   UNL     1       0.222  -6.897  -3.027  0.00  0.00    +0.033 A 
ATOM     15  C   UNL     1      -0.057  -6.023  -4.190  0.00  0.00    +0.195 C 
ATOM     16  O   UNL     1      -0.304  -6.504  -5.278  0.00  0.00    -0.287 OA
ENDROOT
BRANCH   1  17
ATOM     17  O   UNL     1       0.018  -2.088  -1.300  0.00  0.00    -0.420 OA
BRANCH  17  18
ATOM     18  C   UNL     1       1.200  -1.943  -0.671  0.00  0.00    +0.380 C 
ATOM     19  O   UNL     1       2.214  -2.371  -1.181  0.00  0.00    -0.241 OA
BRANCH  18  21
ATOM     20  C   UNL     1       2.584  -1.095   1.354  0.00  0.00    +0.099 C 
ATOM     21  C   UNL     1       1.262  -1.257   0.650  0.00  0.00    +0.237 C 
ATOM     22  O   UNL     1       0.252  -0.832   1.157  0.00  0.00    -0.285 OA
ENDBRANCH  18  21
ENDBRANCH  17  18
ENDBRANCH   1  17
TORSDOF 3
