REMARK  Name = ZINC18357798
REMARK  6 active torsions:
REMARK  status: ('A' for Active; 'I' for Inactive)
REMARK    1  A    between atoms: C_1  and  C_2
REMARK    2  A    between atoms: C_4  and  C_23
REMARK    3  A    between atoms: C_6  and  S_10
REMARK    4  A    between atoms: C_7  and  C_8
REMARK    5  A    between atoms: S_10  and  C_11
REMARK    6  A    between atoms: C_11  and  C_12
REMARK                            x       y       z     vdW  Elec       q    Type
REMARK                         _______ _______ _______ _____ _____    ______ ____
ROOT
ATOM      1  C   UNL     1       0.078  -4.794   2.067  0.00  0.00    +0.131 C 
ENDROOT
BRANCH   1   2
ATOM      2  C   UNL     1       0.096  -5.715   3.259  0.00  0.00    +0.059 A 
ATOM      3  C   UNL     1      -1.048  -6.402   3.618  0.00  0.00    +0.094 A 
ATOM      4  C   UNL     1      -1.006  -7.251   4.730  0.00  0.00    +0.259 A 
ATOM      5  O   UNL     1      -2.000  -7.872   5.073  0.00  0.00    -0.267 OA
ATOM      6  N   UNL     1       0.149  -7.373   5.417  0.00  0.00    -0.268 N 
ATOM      7  C   UNL     1       0.206  -8.195   6.501  0.00  0.00    +0.096 A 
ATOM      8  C   UNL     1       1.352  -8.334   7.205  0.00  0.00    +0.018 A 
ATOM      9  C   UNL     1       2.501  -7.627   6.825  0.00  0.00    +0.005 A 
ATOM     10  C   UNL     1       2.456  -6.802   5.741  0.00  0.00    +0.047 A 
ATOM     11  C   UNL     1       1.254  -6.672   5.021  0.00  0.00    +0.140 A 
ATOM     12  N   UNL     1       1.209  -5.869   3.959  0.00  0.00    -0.233 NA
ENDBRANCH   1   2
BRANCH   1  13
ATOM     13  S   UNL     1       0.057  -3.071   2.633  0.00  0.00    -0.098 S 
BRANCH  13  19
ATOM     14  C   UNL     1      -0.018   1.503   0.010  0.00  0.00    +0.045 C 
ATOM     15  C   UNL     1       0.002  -0.004   0.002  0.00  0.00    -0.029 A 
ATOM     16  C   UNL     1       0.006  -0.707  -1.191  0.00  0.00    +0.027 A 
ATOM     17  C   UNL     1       0.025  -2.089  -1.167  0.00  0.00    +0.040 A 
ATOM     18  N   UNL     1       0.040  -2.754  -0.028  0.00  0.00    -0.244 NA
ATOM     19  C   UNL     1       0.037  -2.133   1.142  0.00  0.00    +0.115 A 
ATOM     20  C   UNL     1       0.023  -0.727   1.200  0.00  0.00    +0.086 A 
ATOM     21  C   UNL     1       0.029  -2.851  -2.467  0.00  0.00    +0.065 C 
BRANCH  20  22
ATOM     22  C   UNL     1       0.026  -0.049   2.461  0.00  0.00    +0.102 C 
ATOM     23  N   UNL     1       0.028   0.489   3.462  0.00  0.00    -0.191 NA
ENDBRANCH  20  22
ENDBRANCH  13  19
ENDBRANCH   1  13
TORSDOF 4
