REMARK  Name = ZINC13139703
REMARK  7 active torsions:
REMARK  status: ('A' for Active; 'I' for Inactive)
REMARK    1  A    between atoms: C_1  and  C_2
REMARK    2  A    between atoms: N_5  and  S_11
REMARK    3  A    between atoms: C_7  and  C_10
REMARK    4  A    between atoms: S_11  and  C_14
REMARK    5  A    between atoms: C_17  and  C_20
REMARK    6  A    between atoms: N_22  and  C_23
REMARK    7  A    between atoms: C_24  and  C_33
REMARK                            x       y       z     vdW  Elec       q    Type
REMARK                         _______ _______ _______ _____ _____    ______ ____
ROOT
ATOM      1  C   UNL     1       1.806  -1.832  -6.340  0.00  0.00    +0.249 C 
ATOM      2  O   UNL     1       1.075  -2.142  -7.260  0.00  0.00    -0.270 OA
ATOM      3  N   UNL     1       3.008  -2.427  -6.204  0.00  0.00    -0.275 N 
ATOM      4  H   UNL     1       3.669  -2.147  -5.371  0.00  0.00    +0.156 HD
ENDROOT
BRANCH   3   5
ATOM      5  C   UNL     1       3.409  -3.393  -7.113  0.00  0.00    +0.085 A 
ATOM      6  C   UNL     1       4.597  -4.106  -7.144  0.00  0.00    +0.068 A 
ATOM      7  C   UNL     1       4.775  -5.081  -8.211  0.00  0.00    -0.023 A 
ATOM      8  C   UNL     1       3.745  -5.168  -9.080  0.00  0.00    -0.004 A 
ATOM      9  S   UNL     1       2.552  -3.996  -8.492  0.00  0.00    -0.077 S 
ATOM     10  C   UNL     1       3.636  -6.047 -10.286  0.00  0.00    +0.043 C 
ATOM     11  C   UNL     1       4.017  -7.483  -9.902  0.00  0.00    +0.005 C 
ATOM     12  C   UNL     1       5.521  -7.652 -10.096  0.00  0.00    +0.001 C 
ATOM     13  C   UNL     1       6.240  -6.338  -9.794  0.00  0.00    +0.005 C 
ATOM     14  C   UNL     1       6.028  -5.938  -8.338  0.00  0.00    +0.037 C 
BRANCH   6  15
ATOM     15  C   UNL     1       5.638  -3.890  -6.134  0.00  0.00    +0.244 C 
ATOM     16  O   UNL     1       5.637  -4.547  -5.109  0.00  0.00    -0.270 OA
ATOM     17  N   UNL     1       6.595  -2.964  -6.340  0.00  0.00    -0.325 N 
ATOM     18  H   UNL     1       7.376  -2.801  -5.582  0.00  0.00    +0.145 HD
ATOM     19  H   UNL     1       6.595  -2.370  -7.266  0.00  0.00    +0.145 HD
ENDBRANCH   6  15
ENDBRANCH   3   5
BRANCH   1  23
ATOM     20  C   UNL     1       0.576   1.129  -3.554  0.00  0.00    +0.106 A 
ATOM     21  C   UNL     1       1.812   0.523  -3.414  0.00  0.00    +0.029 A 
ATOM     22  C   UNL     1       2.215  -0.444  -4.312  0.00  0.00    +0.015 A 
ATOM     23  C   UNL     1       1.378  -0.802  -5.370  0.00  0.00    +0.037 A 
ATOM     24  C   UNL     1       0.134  -0.183  -5.508  0.00  0.00    +0.015 A 
ATOM     25  C   UNL     1      -0.260   0.777  -4.600  0.00  0.00    +0.029 A 
BRANCH  20  26
ATOM     26  S   UNL     1       0.066   2.357  -2.399  0.00  0.00    +0.061 S 
ATOM     27  O   UNL     1      -0.896   3.165  -3.063  0.00  0.00    -0.153 OA
ATOM     28  O   UNL     1       1.251   2.897  -1.830  0.00  0.00    -0.153 OA
BRANCH  26  32
ATOM     29  C   UNL     1      -4.289   1.452   0.112  0.00  0.00    +0.039 C 
ATOM     30  C   UNL     1      -2.811   1.844   0.072  0.00  0.00    +0.131 C 
ATOM     31  C   UNL     1      -2.188   1.357  -1.242  0.00  0.00    +0.140 C 
ATOM     32  N   UNL     1      -0.734   1.578  -1.176  0.00  0.00    -0.172 NA
ATOM     33  C   UNL     1      -0.013   1.086   0.008  0.00  0.00    +0.140 C 
ATOM     34  C   UNL     1      -0.741   1.585   1.261  0.00  0.00    +0.131 C 
ATOM     35  O   UNL     1      -2.125   1.238   1.170  0.00  0.00    -0.371 OA
ATOM     36  C   UNL     1      -0.129   0.932   2.502  0.00  0.00    +0.039 C 
ENDBRANCH  26  32
ENDBRANCH  20  26
ENDBRANCH   1  23
TORSDOF 5
