REMARK  Name = ZINC43746471
REMARK  7 active torsions:
REMARK  status: ('A' for Active; 'I' for Inactive)
REMARK    1  A    between atoms: C_1  and  C_2
REMARK    2  A    between atoms: C_18  and  C_20
REMARK    3  A    between atoms: C_20  and  N_21
REMARK    4  A    between atoms: C_26  and  O_33
REMARK    5  A    between atoms: C_27  and  O_31
REMARK    6  A    between atoms: O_31  and  C_32
REMARK    7  A    between atoms: O_33  and  C_34
REMARK                            x       y       z     vdW  Elec       q    Type
REMARK                         _______ _______ _______ _____ _____    ______ ____
ROOT
ATOM      1  C   UNL     1      -0.019   1.526   0.010  0.00  0.00    +0.011 C 
ATOM      2  C   UNL     1       0.002  -0.004   0.002  0.00  0.00    -0.023 C 
ATOM      3  C   UNL     1       0.715  -0.501  -1.255  0.00  0.00    +0.007 C 
ATOM      4  C   UNL     1       2.128   0.081  -1.315  0.00  0.00    +0.003 C 
ATOM      5  C   UNL     1       2.939  -0.425  -0.117  0.00  0.00    +0.037 C 
ATOM      6  C   UNL     1       2.201  -0.057   1.173  0.00  0.00    +0.096 C 
ATOM      7  C   UNL     1       0.744  -0.517   1.245  0.00  0.00    +0.030 C 
ATOM      8  C   UNL     1       0.082   0.104   2.474  0.00  0.00    +0.014 C 
ATOM      9  C   UNL     1      -1.378  -0.263   2.566  0.00  0.00    +0.042 C 
ATOM     10  C   UNL     1      -2.168  -0.009   1.267  0.00  0.00    +0.181 C 
ATOM     11  C   UNL     1      -1.427  -0.537   0.050  0.00  0.00    +0.052 C 
ATOM     12  O   UNL     1      -3.319  -0.878   1.462  0.00  0.00    -0.461 OA
ATOM     13  C   UNL     1      -2.867  -2.045   1.968  0.00  0.00    +0.309 C 
ATOM     14  O   UNL     1      -3.381  -3.127   1.810  0.00  0.00    -0.251 OA
ATOM     15  C   UNL     1      -1.605  -1.774   2.756  0.00  0.00    +0.088 C 
ATOM     16  C   UNL     1       3.006  -0.019   2.471  0.00  0.00    +0.196 C 
ATOM     17  O   UNL     1       2.550   1.167   1.816  0.00  0.00    -0.368 OA
ENDROOT
BRANCH  15  18
ATOM     18  C   UNL     1      -1.823  -2.107   4.233  0.00  0.00    -0.063 C 
BRANCH  18  19
ATOM     19  N   UNL     1      -1.917  -3.564   4.398  0.00  0.00    +0.383 N 
ATOM     20  C   UNL     1      -2.234  -3.881   5.799  0.00  0.00    -0.074 C 
ATOM     21  C   UNL     1      -2.628  -5.356   5.888  0.00  0.00    +0.017 C 
ATOM     22  C   UNL     1      -1.581  -6.205   5.214  0.00  0.00    -0.044 A 
ATOM     23  C   UNL     1      -1.562  -7.567   5.477  0.00  0.00    +0.053 A 
ATOM     24  C   UNL     1      -0.619  -8.381   4.876  0.00  0.00    +0.162 A 
ATOM     25  C   UNL     1       0.314  -7.828   4.004  0.00  0.00    +0.162 A 
ATOM     26  C   UNL     1       0.292  -6.469   3.746  0.00  0.00    +0.051 A 
ATOM     27  C   UNL     1      -0.655  -5.656   4.353  0.00  0.00    -0.057 A 
ATOM     28  C   UNL     1      -0.634  -4.181   4.048  0.00  0.00    -0.043 C 
ATOM     29  H   UNL     1      -2.641  -3.926   3.796  0.00  0.00    -0.081 HD
BRANCH  25  30
ATOM     30  O   UNL     1       1.245  -8.620   3.407  0.00  0.00    -0.491 OA
ATOM     31  C   UNL     1       2.170  -7.983   2.524  0.00  0.00    +0.277 C 
ENDBRANCH  25  30
BRANCH  24  32
ATOM     32  O   UNL     1      -0.603  -9.716   5.136  0.00  0.00    -0.491 OA
ATOM     33  C   UNL     1      -1.592 -10.212   6.041  0.00  0.00    +0.277 C 
ENDBRANCH  24  32
ENDBRANCH  18  19
ENDBRANCH  15  18
TORSDOF 4
