REMARK  Name = ZINC24928109
REMARK  8 active torsions:
REMARK  status: ('A' for Active; 'I' for Inactive)
REMARK    1  A    between atoms: C_1  and  C_2
REMARK    2  A    between atoms: C_3  and  C_16
REMARK    3  A    between atoms: C_4  and  C_15
REMARK    4  A    between atoms: C_9  and  C_11
REMARK    5  A    between atoms: C_16  and  C_17
REMARK    6  A    between atoms: N_19  and  C_20
REMARK    7  A    between atoms: C_25  and  C_30
REMARK    8  A    between atoms: C_27  and  C_29
REMARK                            x       y       z     vdW  Elec       q    Type
REMARK                         _______ _______ _______ _____ _____    ______ ____
ROOT
ATOM      1  C   UNL     1       0.056   2.519   4.802  0.00  0.00    +0.066 C 
ATOM      2  C   UNL     1      -0.704   2.256   3.527  0.00  0.00    +0.047 A 
ATOM      3  C   UNL     1      -0.022   1.805   2.390  0.00  0.00    +0.004 A 
ATOM      4  C   UNL     1      -0.718   1.572   1.248  0.00  0.00    +0.049 A 
ATOM      5  N   UNL     1      -2.060   1.789   1.238  0.00  0.00    -0.200 N 
ATOM      6  C   UNL     1      -2.696   2.224   2.366  0.00  0.00    +0.254 A 
ATOM      7  N   UNL     1      -2.002   2.451   3.487  0.00  0.00    -0.216 NA
ATOM      8  N   UNL     1      -3.986   2.341   2.070  0.00  0.00    -0.186 NA
ATOM      9  C   UNL     1      -4.187   2.009   0.802  0.00  0.00    +0.257 A 
ATOM     10  N   UNL     1      -3.048   1.658   0.253  0.00  0.00    -0.139 NA
ATOM     11  C   UNL     1      -0.013   1.086   0.008  0.00  0.00    +0.066 C 
ENDROOT
BRANCH   9  12
ATOM     12  C   UNL     1      -5.521   2.020   0.102  0.00  0.00    +0.454 C 
ATOM     13  F   UNL     1      -6.282   0.927   0.531  0.00  0.00    -0.163 F 
ATOM     14  F   UNL     1      -6.197   3.207   0.406  0.00  0.00    -0.163 F 
ATOM     15  F   UNL     1      -5.324   1.936  -1.280  0.00  0.00    -0.163 F 
ENDBRANCH   9  12
BRANCH   3  16
ATOM     16  C   UNL     1       1.468   1.581   2.434  0.00  0.00    +0.134 C 
BRANCH  16  17
ATOM     17  C   UNL     1       2.179   2.851   2.043  0.00  0.00    +0.218 C 
ATOM     18  O   UNL     1       1.538   3.841   1.758  0.00  0.00    -0.275 OA
ATOM     19  N   UNL     1       3.525   2.887   2.012  0.00  0.00    -0.312 N 
ATOM     20  H   UNL     1       4.106   1.989   2.271  0.00  0.00    +0.149 HD
BRANCH  19  21
ATOM     21  C   UNL     1       4.216   4.122   1.632  0.00  0.00    +0.076 C 
ATOM     22  C   UNL     1       4.324   4.198   0.108  0.00  0.00    +0.022 C 
ATOM     23  C   UNL     1       5.046   5.488  -0.288  0.00  0.00    +0.002 C 
ATOM     24  C   UNL     1       6.448   5.496   0.324  0.00  0.00    +0.003 C 
ATOM     25  C   UNL     1       6.340   5.420   1.848  0.00  0.00    -0.009 C 
ATOM     26  C   UNL     1       5.619   4.130   2.244  0.00  0.00    +0.009 C 
ATOM     27  C   UNL     1       5.511   4.054   3.768  0.00  0.00    +0.009 C 
ATOM     28  C   UNL     1       7.742   5.428   2.460  0.00  0.00    +0.008 C 
ENDBRANCH  19  21
ENDBRANCH  16  17
ENDBRANCH   3  16
TORSDOF 4
