REMARK  Name = ZINC06756245
REMARK  3 active torsions:
REMARK  status: ('A' for Active; 'I' for Inactive)
REMARK    1  A    between atoms: C_1  and  C_2
REMARK    2  A    between atoms: C_2  and  C_3
REMARK    3  A    between atoms: C_17  and  N_37
REMARK                            x       y       z     vdW  Elec       q    Type
REMARK                         _______ _______ _______ _____ _____    ______ ____
ROOT
ATOM      1  C   UNL     1      -0.818   0.753   4.905  0.00  0.00    -0.030 A 
ATOM      2  C   UNL     1       0.075  -0.271   4.905  0.00  0.00    +0.096 A 
ATOM      3  C   UNL     1       0.685  -0.662   3.698  0.00  0.00    +0.337 A 
ATOM      4  O   UNL     1       1.483  -1.582   3.720  0.00  0.00    -0.245 OA
ATOM      5  O   UNL     1       0.427  -0.068   2.529  0.00  0.00    -0.422 OA
ATOM      6  C   UNL     1      -0.450   0.954   2.466  0.00  0.00    +0.144 A 
ATOM      7  C   UNL     1      -1.104   1.407   3.626  0.00  0.00    +0.021 A 
ATOM      8  C   UNL     1      -2.012   2.469   3.550  0.00  0.00    +0.015 A 
ATOM      9  C   UNL     1      -2.262   3.062   2.347  0.00  0.00    +0.046 A 
ATOM     10  C   UNL     1      -1.619   2.619   1.190  0.00  0.00    +0.123 A 
ATOM     11  C   UNL     1      -0.717   1.571   1.249  0.00  0.00    +0.021 A 
ATOM     12  C   UNL     1      -0.013   1.086   0.008  0.00  0.00    -0.030 C 
ATOM     13  C   UNL     1      -0.978   3.017  -1.066  0.00  0.00    +0.158 C 
ATOM     14  O   UNL     1      -1.894   3.232   0.009  0.00  0.00    -0.509 OA
ATOM     15  N   UNL     1      -0.744   1.564  -1.181  0.00  0.00    +0.407 N 
ATOM     16  H   UNL     1      -1.649   1.082  -1.234  0.00  0.00    -0.076 HD
ENDROOT
BRANCH  15  17
ATOM     17  C   UNL     1       0.032   1.268  -2.406  0.00  0.00    -0.064 C 
ATOM     18  C   UNL     1       0.544   2.450  -3.233  0.00  0.00    -0.017 C 
ATOM     19  C   UNL     1      -0.626   1.607  -3.745  0.00  0.00    -0.017 C 
ENDBRANCH  15  17
BRANCH   1  21
ATOM     20  C   UNL     1      -2.850   0.509   6.305  0.00  0.00    +0.009 C 
ATOM     21  C   UNL     1      -1.492   1.201   6.177  0.00  0.00    +0.033 C 
ENDBRANCH   1  21
TORSDOF 2
