REMARK  Name = ZINC38752185
REMARK  5 active torsions:
REMARK  status: ('A' for Active; 'I' for Inactive)
REMARK    1  A    between atoms: N_9  and  C_14
REMARK    2  A    between atoms: C_14  and  C_15
REMARK    3  A    between atoms: C_15  and  C_16
REMARK    4  A    between atoms: C_16  and  C_17
REMARK    5  A    between atoms: N_19  and  C_20
REMARK                            x       y       z     vdW  Elec       q    Type
REMARK                         _______ _______ _______ _____ _____    ______ ____
ROOT
ATOM      1  C   UNL     1       2.650  -4.685  -1.489  0.00  0.00    +0.031 C 
ENDROOT
BRANCH   1   2
ATOM      2  C   UNL     1       2.627  -4.183  -0.044  0.00  0.00    +0.130 C 
BRANCH   2  11
ATOM      3  C   UNL     1      -0.017   1.375   0.010  0.00  0.00    +0.001 A 
ATOM      4  C   UNL     1       1.169   2.093   0.002  0.00  0.00    +0.002 A 
ATOM      5  C   UNL     1       2.386   1.442  -0.013  0.00  0.00    +0.026 A 
ATOM      6  C   UNL     1       2.425   0.056  -0.021  0.00  0.00    +0.056 A 
ATOM      7  C   UNL     1       1.223  -0.673  -0.013  0.00  0.00    +0.063 A 
ATOM      8  C   UNL     1       0.002  -0.004   0.002  0.00  0.00    +0.015 A 
ATOM      9  C   UNL     1       1.301  -2.145  -0.021  0.00  0.00    +0.264 A 
ATOM     10  O   UNL     1       0.291  -2.823  -0.016  0.00  0.00    -0.267 OA
ATOM     11  N   UNL     1       2.522  -2.722  -0.036  0.00  0.00    -0.261 N 
ATOM     12  C   UNL     1       3.642  -1.982  -0.043  0.00  0.00    +0.330 A 
ATOM     13  O   UNL     1       4.716  -2.551  -0.056  0.00  0.00    -0.246 OA
ATOM     14  N   UNL     1       3.627  -0.638  -0.036  0.00  0.00    -0.307 N 
ATOM     15  H   UNL     1       4.464  -0.148  -0.041  0.00  0.00    +0.170 HD
ENDBRANCH   2  11
ENDBRANCH   1   2
BRANCH   1  16
ATOM     16  C   UNL     1       2.759  -6.211  -1.497  0.00  0.00    +0.097 C 
BRANCH  16  17
ATOM     17  C   UNL     1       2.781  -6.705  -2.920  0.00  0.00    +0.215 C 
ATOM     18  O   UNL     1       2.716  -5.915  -3.838  0.00  0.00    -0.276 OA
ATOM     19  N   UNL     1       2.873  -8.026  -3.174  0.00  0.00    -0.288 N 
ATOM     20  H   UNL     1       2.925  -8.658  -2.440  0.00  0.00    +0.151 HD
BRANCH  19  21
ATOM     21  C   UNL     1       2.895  -8.507  -4.558  0.00  0.00    +0.224 C 
ATOM     22  N   UNL     1       3.273  -9.925  -4.619  0.00  0.00    -0.316 N 
ATOM     23  C   UNL     1       2.339 -10.819  -5.141  0.00  0.00    +0.043 A 
ATOM     24  C   UNL     1       2.522 -12.206  -5.278  0.00  0.00    +0.024 A 
ATOM     25  C   UNL     1       1.536 -13.006  -5.808  0.00  0.00    +0.002 A 
ATOM     26  C   UNL     1       0.330 -12.472  -6.224  0.00  0.00    +0.001 A 
ATOM     27  C   UNL     1       0.122 -11.108  -6.101  0.00  0.00    +0.016 A 
ATOM     28  C   UNL     1       1.110 -10.309  -5.571  0.00  0.00    +0.032 A 
ATOM     29  S   UNL     1       1.200  -8.558  -5.266  0.00  0.00    -0.082 S 
ATOM     30  H   UNL     1       4.140 -10.229  -4.307  0.00  0.00    +0.149 HD
ENDBRANCH  19  21
ENDBRANCH  16  17
ENDBRANCH   1  16
TORSDOF 5
