REMARK  Name = ZINC62960599
REMARK  2 active torsions:
REMARK  status: ('A' for Active; 'I' for Inactive)
REMARK    1  A    between atoms: C_8  and  S_9
REMARK    2  A    between atoms: S_9  and  N_12
REMARK                            x       y       z     vdW  Elec       q    Type
REMARK                         _______ _______ _______ _____ _____    ______ ____
ROOT
ATOM      1  S   UNL     1      -1.511  -0.906   0.011  0.00  0.00    +0.062 S 
ATOM      2  O   UNL     1      -1.169  -2.271   0.210  0.00  0.00    -0.153 OA
ATOM      3  O   UNL     1      -2.395  -0.208   0.877  0.00  0.00    -0.153 OA
ENDROOT
BRANCH   1   4
ATOM      4  N   UNL     1      -2.155  -0.797  -1.511  0.00  0.00    -0.177 NA
ATOM      5  C   UNL     1      -3.064   0.303  -1.861  0.00  0.00    +0.110 C 
ATOM      6  C   UNL     1      -4.359  -0.290  -2.427  0.00  0.00    +0.024 C 
ATOM      7  C   UNL     1      -4.025  -1.232  -3.580  0.00  0.00    -0.027 C 
ATOM      8  C   UNL     1      -3.320  -0.458  -4.704  0.00  0.00    +0.007 C 
ATOM      9  C   UNL     1      -4.216  -0.585  -5.954  0.00  0.00    +0.001 C 
ATOM     10  C   UNL     1      -5.626  -0.876  -5.382  0.00  0.00    +0.001 C 
ATOM     11  C   UNL     1      -5.324  -1.804  -4.179  0.00  0.00    +0.007 C 
ATOM     12  C   UNL     1      -3.134  -2.374  -3.095  0.00  0.00    +0.024 C 
ATOM     13  C   UNL     1      -1.824  -1.795  -2.537  0.00  0.00    +0.110 C 
ENDBRANCH   1   4
BRANCH   1  21
ATOM     14  C   UNL     1      -0.017   1.398   0.010  0.00  0.00    +0.035 A 
ATOM     15  C   UNL     1       1.164   2.081   0.002  0.00  0.00    +0.072 A 
ATOM     16  C   UNL     1       2.373   1.364  -0.013  0.00  0.00    +0.249 A 
ATOM     17  O   UNL     1       3.437   1.963  -0.020  0.00  0.00    -0.268 OA
ATOM     18  N   UNL     1       2.358   0.018  -0.020  0.00  0.00    -0.327 N 
ATOM     19  H   UNL     1       3.196  -0.471  -0.031  0.00  0.00    +0.168 HD
ATOM     20  C   UNL     1       1.184  -0.664  -0.013  0.00  0.00    +0.114 A 
ATOM     21  C   UNL     1       0.002  -0.004   0.002  0.00  0.00    +0.122 A 
ENDBRANCH   1  21
TORSDOF 2
