REMARK  Name = ZINC20004052
REMARK  6 active torsions:
REMARK  status: ('A' for Active; 'I' for Inactive)
REMARK    1  A    between atoms: C_1  and  C_2
REMARK    2  A    between atoms: C_4  and  S_10
REMARK    3  A    between atoms: C_6  and  N_9
REMARK    4  A    between atoms: C_7  and  C_8
REMARK    5  A    between atoms: S_10  and  N_13
REMARK    6  A    between atoms: N_13  and  C_14
REMARK                            x       y       z     vdW  Elec       q    Type
REMARK                         _______ _______ _______ _____ _____    ______ ____
ROOT
ATOM      1  S   UNL     1       1.233  -2.438  -0.023  0.00  0.00    +0.059 S 
ATOM      2  O   UNL     1       2.490  -2.830   0.513  0.00  0.00    -0.153 OA
ATOM      3  O   UNL     1      -0.001  -2.865   0.537  0.00  0.00    -0.153 OA
ENDROOT
BRANCH   1   7
ATOM      4  C   UNL     1       3.678   2.181  -0.022  0.00  0.00    +0.044 C 
ATOM      5  C   UNL     1       2.381   1.414  -0.013  0.00  0.00    -0.044 A 
ATOM      6  C   UNL     1       2.396   0.031  -0.021  0.00  0.00    +0.032 A 
ATOM      7  C   UNL     1       1.208  -0.677  -0.013  0.00  0.00    +0.107 A 
ATOM      8  C   UNL     1       0.002  -0.004   0.002  0.00  0.00    +0.051 A 
ATOM      9  C   UNL     1      -0.017   1.385   0.010  0.00  0.00    +0.030 A 
ATOM     10  C   UNL     1       1.179   2.092   0.002  0.00  0.00    -0.027 A 
ATOM     11  C   UNL     1       1.163   3.599   0.010  0.00  0.00    +0.046 C 
BRANCH   9  12
ATOM     12  N   UNL     1      -1.235   2.068   0.019  0.00  0.00    -0.358 N 
ATOM     13  H   UNL     1      -1.248   3.168   0.025  0.00  0.00    +0.142 HD
ATOM     14  H   UNL     1      -2.181   1.506   0.021  0.00  0.00    +0.142 HD
ENDBRANCH   9  12
ENDBRANCH   1   7
BRANCH   1  15
ATOM     15  N   UNL     1       1.226  -2.919  -1.608  0.00  0.00    -0.188 NA
ATOM     16  H   UNL     1       0.300  -3.327  -2.041  0.00  0.00    +0.148 HD
BRANCH  15  17
ATOM     17  C   UNL     1       2.363  -2.602  -2.475  0.00  0.00    +0.063 C 
ATOM     18  C   UNL     1       2.076  -1.311  -3.247  0.00  0.00    -0.058 C 
ATOM     19  N   UNL     1       2.100  -1.590  -4.689  0.00  0.00    +0.381 N 
ATOM     20  C   UNL     1       1.056  -2.556  -5.058  0.00  0.00    -0.078 C 
ATOM     21  C   UNL     1       1.314  -3.882  -4.337  0.00  0.00    -0.014 C 
ATOM     22  C   UNL     1       2.577  -3.742  -3.479  0.00  0.00    +0.002 C 
ATOM     23  C   UNL     1       3.752  -3.373  -4.394  0.00  0.00    -0.014 C 
ATOM     24  C   UNL     1       3.426  -2.062  -5.113  0.00  0.00    -0.078 C 
ATOM     25  H   UNL     1       1.892  -0.648  -5.218  0.00  0.00    -0.082 HD
ENDBRANCH  15  17
ENDBRANCH   1  15
TORSDOF 4
