REMARK  Name = ZINC64623150
REMARK  6 active torsions:
REMARK  status: ('A' for Active; 'I' for Inactive)
REMARK    1  A    between atoms: C_1  and  O_2
REMARK    2  A    between atoms: O_2  and  C_3
REMARK    3  A    between atoms: C_7  and  N_9
REMARK    4  A    between atoms: C_18  and  O_34
REMARK    5  A    between atoms: C_25  and  C_27
REMARK    6  A    between atoms: O_34  and  C_35
REMARK                            x       y       z     vdW  Elec       q    Type
REMARK                         _______ _______ _______ _____ _____    ______ ____
ROOT
ATOM      1  N   UNL     1       0.036  -4.546   3.355  0.00  0.00    -0.269 N 
ATOM      2  C   UNL     1       1.188  -4.949   3.926  0.00  0.00    +0.307 C 
ATOM      3  O   UNL     1       1.754  -4.230   4.727  0.00  0.00    -0.252 OA
ATOM      4  N   UNL     1       1.715  -6.148   3.608  0.00  0.00    -0.276 N 
ATOM      5  C   UNL     1       1.091  -6.959   2.557  0.00  0.00    +0.114 C 
ATOM      6  C   UNL     1       2.127  -7.257   1.457  0.00  0.00    +0.052 C 
ATOM      7  C   UNL     1       3.394  -7.677   2.159  0.00  0.00    -0.035 C 
ATOM      8  C   UNL     1       4.172  -8.741   2.006  0.00  0.00    +0.003 A 
ATOM      9  C   UNL     1       4.149  -9.842   1.030  0.00  0.00    +0.055 A 
ATOM     10  C   UNL     1       5.102 -10.803   1.172  0.00  0.00    +0.121 A 
ATOM     11  C   UNL     1       6.080 -10.796   2.178  0.00  0.00    +0.047 A 
ATOM     12  C   UNL     1       6.197  -9.828   3.122  0.00  0.00    +0.029 A 
ATOM     13  C   UNL     1       5.226  -8.727   3.067  0.00  0.00    +0.043 A 
ATOM     14  N   UNL     1       5.109  -7.669   3.811  0.00  0.00    -0.375 N 
ATOM     15  C   UNL     1       4.014  -6.853   3.282  0.00  0.00    +0.131 C 
ATOM     16  C   UNL     1       2.913  -6.628   4.316  0.00  0.00    +0.134 C 
ATOM     17  H   UNL     1      -0.448  -5.145   2.765  0.00  0.00    +0.156 HD
ATOM     18  H   UNL     1       5.653  -7.455   4.585  0.00  0.00    +0.160 HD
ENDROOT
BRANCH  16  19
ATOM     19  C   UNL     1       3.360  -5.596   5.319  0.00  0.00    -0.025 A 
ATOM     20  C   UNL     1       3.979  -4.438   4.888  0.00  0.00    +0.008 A 
ATOM     21  C   UNL     1       4.390  -3.491   5.807  0.00  0.00    +0.038 A 
ATOM     22  C   UNL     1       4.181  -3.703   7.160  0.00  0.00    +0.123 A 
ATOM     23  C   UNL     1       3.561  -4.864   7.589  0.00  0.00    +0.038 A 
ATOM     24  C   UNL     1       3.147  -5.807   6.668  0.00  0.00    +0.008 A 
ATOM     25  F   UNL     1       4.582  -2.778   8.059  0.00  0.00    -0.205 F 
ENDBRANCH  16  19
BRANCH   1  30
ATOM     26  C   UNL     1      -1.581  -1.277   2.866  0.00  0.00    +0.122 A 
ATOM     27  C   UNL     1      -1.449  -0.729   4.135  0.00  0.00    +0.046 A 
ATOM     28  C   UNL     1      -0.826  -1.447   5.138  0.00  0.00    +0.005 A 
ATOM     29  C   UNL     1      -0.334  -2.712   4.882  0.00  0.00    +0.023 A 
ATOM     30  C   UNL     1      -0.463  -3.265   3.615  0.00  0.00    +0.038 A 
ATOM     31  C   UNL     1      -1.093  -2.548   2.607  0.00  0.00    +0.069 A 
BRANCH  26  33
ATOM     32  C   UNL     1      -2.672   0.734   2.219  0.00  0.00    +0.277 C 
ATOM     33  O   UNL     1      -2.194  -0.570   1.881  0.00  0.00    -0.495 OA
ENDBRANCH  26  33
ENDBRANCH   1  30
BRANCH  10  34
ATOM     34  O   UNL     1       5.107 -11.834   0.285  0.00  0.00    -0.495 OA
ATOM     35  C   UNL     1       6.116 -12.831   0.454  0.00  0.00    +0.277 C 
ENDBRANCH  10  34
TORSDOF 4
