REMARK  Name = ZINC22624240
REMARK  8 active torsions:
REMARK  status: ('A' for Active; 'I' for Inactive)
REMARK    1  A    between atoms: C_1  and  C_2
REMARK    2  A    between atoms: C_5  and  C_8
REMARK    3  A    between atoms: C_19  and  C_21
REMARK    4  A    between atoms: C_21  and  C_22
REMARK    5  A    between atoms: C_21  and  C_23
REMARK    6  A    between atoms: C_21  and  O_24
REMARK    7  A    between atoms: O_24  and  C_25
REMARK    8  A    between atoms: C_25  and  C_27
REMARK                            x       y       z     vdW  Elec       q    Type
REMARK                         _______ _______ _______ _____ _____    ______ ____
ROOT
ATOM      1  C   UNL     1      -1.194   3.987   0.476  0.00  0.00    +0.137 C 
ATOM      2  C   UNL     1      -0.948   3.023   1.609  0.00  0.00    -0.019 A 
ATOM      3  C   UNL     1      -1.183   3.470   2.902  0.00  0.00    +0.006 A 
ATOM      4  C   UNL     1      -0.985   2.632   3.980  0.00  0.00    +0.000 A 
ATOM      5  C   UNL     1      -0.551   1.337   3.770  0.00  0.00    +0.000 A 
ATOM      6  C   UNL     1      -0.313   0.892   2.486  0.00  0.00    +0.004 A 
ATOM      7  C   UNL     1      -0.508   1.736   1.399  0.00  0.00    -0.041 A 
ATOM      8  C   UNL     1      -0.217   1.185   0.028  0.00  0.00    +0.054 C 
ATOM      9  C   UNL     1      -0.913   2.014  -1.050  0.00  0.00    +0.113 C 
ATOM     10  N   UNL     1      -0.649   3.435  -0.769  0.00  0.00    -0.287 N 
ATOM     11  C   UNL     1       0.065   4.198  -1.621  0.00  0.00    +0.260 C 
ATOM     12  O   UNL     1       0.221   5.379  -1.393  0.00  0.00    -0.271 OA
ENDROOT
BRANCH   1  17
ATOM     13  C   UNL     1      -6.877   4.841  -0.122  0.00  0.00    +0.044 C 
ATOM     14  C   UNL     1      -5.395   4.619   0.034  0.00  0.00    -0.050 A 
ATOM     15  C   UNL     1      -4.883   3.335   0.013  0.00  0.00    +0.004 A 
ATOM     16  C   UNL     1      -3.523   3.131   0.157  0.00  0.00    +0.006 A 
ATOM     17  C   UNL     1      -2.676   4.210   0.320  0.00  0.00    -0.023 A 
ATOM     18  C   UNL     1      -3.188   5.494   0.345  0.00  0.00    +0.006 A 
ATOM     19  C   UNL     1      -4.547   5.698   0.197  0.00  0.00    +0.004 A 
ENDBRANCH   1  17
BRANCH  11  20
ATOM     20  C   UNL     1       0.668   3.583  -2.858  0.00  0.00    +0.183 C 
ATOM     21  C   UNL     1       1.181   4.691  -3.780  0.00  0.00    +0.065 C 
ATOM     22  C   UNL     1       1.831   2.673  -2.459  0.00  0.00    +0.065 C 
BRANCH  20  23
ATOM     23  O   UNL     1      -0.341   2.803  -3.552  0.00  0.00    -0.449 OA
BRANCH  23  24
ATOM     24  C   UNL     1       0.038   2.186  -4.682  0.00  0.00    +0.305 C 
ATOM     25  O   UNL     1       1.174   2.293  -5.078  0.00  0.00    -0.251 OA
ATOM     26  C   UNL     1      -0.955   1.358  -5.457  0.00  0.00    +0.136 C 
ENDBRANCH  23  24
ENDBRANCH  20  23
ENDBRANCH  11  20
TORSDOF 4
