REMARK  Name = ZINC12074053
REMARK  12 active torsions:
REMARK  status: ('A' for Active; 'I' for Inactive)
REMARK    1  A    between atoms: C_1  and  C_2
REMARK    2  A    between atoms: C_4  and  C_10
REMARK    3  A    between atoms: C_7  and  O_8
REMARK    4  A    between atoms: O_8  and  C_9
REMARK    5  A    between atoms: C_12  and  C_16
REMARK    6  A    between atoms: C_13  and  C_15
REMARK    7  A    between atoms: C_16  and  N_59
REMARK    8  A    between atoms: N_19  and  C_25
REMARK    9  A    between atoms: C_22  and  C_24
REMARK   10  A    between atoms: C_25  and  C_26
REMARK   11  A    between atoms: C_26  and  C_27
REMARK   12  A    between atoms: C_26  and  C_28
REMARK                            x       y       z     vdW  Elec       q    Type
REMARK                         _______ _______ _______ _____ _____    ______ ____
ROOT
ATOM      1  C   UNL     1       2.477   1.073  -0.015  0.00  0.00    +0.228 A 
ATOM      2  N   UNL     1       3.665   1.631  -0.023  0.00  0.00    -0.216 NA
ATOM      3  C   UNL     1       4.594   0.663  -0.036  0.00  0.00    +0.066 A 
ATOM      4  C   UNL     1       3.956  -0.521  -0.035  0.00  0.00    +0.124 A 
ATOM      5  O   UNL     1       2.633  -0.262  -0.017  0.00  0.00    -0.440 OA
ATOM      6  C   UNL     1       4.600  -1.883  -0.047  0.00  0.00    +0.088 C 
ENDROOT
BRANCH   1  10
ATOM      7  C   UNL     1      -2.510   0.979   0.019  0.00  0.00    +0.047 C 
ATOM      8  C   UNL     1      -1.215   1.750   0.017  0.00  0.00    -0.008 A 
ATOM      9  C   UNL     1      -0.013   1.076   0.008  0.00  0.00    +0.020 A 
ATOM     10  C   UNL     1       1.186   1.791   0.000  0.00  0.00    +0.037 A 
ATOM     11  C   UNL     1       1.162   3.188   0.008  0.00  0.00    +0.017 A 
ATOM     12  C   UNL     1      -0.044   3.854   0.022  0.00  0.00    +0.046 A 
ATOM     13  C   UNL     1      -1.235   3.138   0.030  0.00  0.00    +0.123 A 
BRANCH  13  14
ATOM     14  O   UNL     1      -2.422   3.799   0.045  0.00  0.00    -0.495 OA
ATOM     15  C   UNL     1      -2.370   5.227   0.051  0.00  0.00    +0.277 C 
ENDBRANCH  13  14
ENDBRANCH   1  10
BRANCH   3  16
ATOM     16  C   UNL     1       6.088   0.866  -0.049  0.00  0.00    -0.018 C 
BRANCH  16  24
ATOM     17  C   UNL     1       6.414  -0.369   2.011  0.00  0.00    -0.058 C 
ATOM     18  C   UNL     1       6.653  -0.173   3.509  0.00  0.00    +0.089 C 
ATOM     19  N   UNL     1       7.911   0.535   3.727  0.00  0.00    -0.304 N 
ATOM     20  C   UNL     1       8.525   1.237   2.769  0.00  0.00    +0.202 C 
ATOM     21  O   UNL     1       9.552   1.821   3.044  0.00  0.00    -0.277 OA
ATOM     22  C   UNL     1       7.997   1.332   1.365  0.00  0.00    +0.017 C 
ATOM     23  C   UNL     1       8.121   2.776   0.873  0.00  0.00    -0.004 C 
ATOM     24  N   UNL     1       6.575   0.941   1.347  0.00  0.00    +0.392 N 
ATOM     25  H   UNL     1       6.027   1.644   1.856  0.00  0.00    -0.080 HD
BRANCH  19  26
ATOM     26  C   UNL     1       8.528   0.475   5.055  0.00  0.00    +0.110 C 
BRANCH  26  27
ATOM     27  C   UNL     1       9.475  -0.725   5.123  0.00  0.00    +0.000 C 
ATOM     28  C   UNL     1      10.634  -0.516   4.147  0.00  0.00    +0.009 C 
ATOM     29  C   UNL     1      10.023  -0.862   6.545  0.00  0.00    +0.009 C 
ENDBRANCH  26  27
ENDBRANCH  19  26
ENDBRANCH  16  24
ENDBRANCH   3  16
TORSDOF 6
