REMARK  Name = ZINC64481875
REMARK  4 active torsions:
REMARK  status: ('A' for Active; 'I' for Inactive)
REMARK    1  A    between atoms: C_1  and  C_2
REMARK    2  A    between atoms: C_5  and  C_21
REMARK    3  A    between atoms: C_6  and  C_8
REMARK    4  A    between atoms: C_17  and  C_20
REMARK                            x       y       z     vdW  Elec       q    Type
REMARK                         _______ _______ _______ _____ _____    ______ ____
ROOT
ATOM      1  C   UNL     1       0.054  -2.845   2.489  0.00  0.00    +0.059 C 
ATOM      2  C   UNL     1      -1.175  -2.473   3.335  0.00  0.00    +0.108 C 
ATOM      3  C   UNL     1      -0.961  -1.215   4.112  0.00  0.00    +0.216 C 
ATOM      4  O   UNL     1      -1.962  -0.673   4.532  0.00  0.00    -0.276 OA
ATOM      5  N   UNL     1       0.195  -0.614   4.401  0.00  0.00    -0.289 N 
ATOM      6  C   UNL     1       1.449  -1.010   3.775  0.00  0.00    +0.243 C 
ATOM      7  C   UNL     1       1.253  -2.450   3.303  0.00  0.00    +0.004 C 
ATOM      8  C   UNL     1       2.283  -3.103   3.786  0.00  0.00    +0.064 C 
ATOM      9  N   UNL     1       3.005  -2.299   4.609  0.00  0.00    -0.157 NA
ATOM     10  N   UNL     1       2.583  -1.117   4.688  0.00  0.00    -0.160 NA
ATOM     11  C   UNL     1       2.618  -4.538   3.472  0.00  0.00    +0.067 C 
ATOM     12  H   UNL     1       0.201   0.109   5.049  0.00  0.00    +0.151 HD
ENDROOT
BRANCH   1  18
ATOM     13  C   UNL     1      -0.018   1.503   0.010  0.00  0.00    +0.044 C 
ATOM     14  C   UNL     1       0.002  -0.004   0.002  0.00  0.00    -0.050 A 
ATOM     15  C   UNL     1       0.006  -0.689  -1.199  0.00  0.00    +0.003 A 
ATOM     16  C   UNL     1       0.025  -2.071  -1.207  0.00  0.00    +0.004 A 
ATOM     17  C   UNL     1       0.040  -2.768  -0.013  0.00  0.00    -0.047 A 
ATOM     18  C   UNL     1       0.037  -2.084   1.188  0.00  0.00    -0.036 A 
ATOM     19  C   UNL     1       0.023  -0.702   1.195  0.00  0.00    +0.008 A 
ATOM     20  C   UNL     1       0.059  -4.275  -0.021  0.00  0.00    +0.044 C 
ENDBRANCH   1  18
TORSDOF 1
