REMARK  Name = ZINC00222243
REMARK  2 active torsions:
REMARK  status: ('A' for Active; 'I' for Inactive)
REMARK    1  A    between atoms: C_3  and  C_8
REMARK    2  A    between atoms: C_11  and  C_19
REMARK                            x       y       z     vdW  Elec       q    Type
REMARK                         _______ _______ _______ _____ _____    ______ ____
ROOT
ATOM      1  C   UNL     1       3.672   2.186  -0.021  0.00  0.00    +0.144 C 
ATOM      2  C   UNL     1       4.499   1.817   1.217  0.00  0.00    +0.059 C 
ATOM      3  C   UNL     1       5.919   2.377   1.077  0.00  0.00    +0.106 C 
ATOM      4  N   UNL     1       6.561   1.749  -0.094  0.00  0.00    -0.305 N 
ATOM      5  C   UNL     1       5.780   1.643  -1.236  0.00  0.00    +0.236 A 
ATOM      6  N   UNL     1       4.436   1.848  -1.218  0.00  0.00    -0.206 N 
ATOM      7  N   UNL     1       4.010   1.662  -2.534  0.00  0.00    -0.042 NA
ATOM      8  N   UNL     1       5.064   1.373  -3.225  0.00  0.00    -0.021 NA
ATOM      9  N   UNL     1       6.111   1.356  -2.464  0.00  0.00    -0.092 NA
ATOM     10  H   UNL     1       7.477   1.430  -0.068  0.00  0.00    +0.150 HD
ENDROOT
BRANCH   1  13
ATOM     11  C   UNL     1      -0.017   1.377   0.010  0.00  0.00    +0.003 A 
ATOM     12  C   UNL     1       1.171   2.086   0.002  0.00  0.00    +0.006 A 
ATOM     13  C   UNL     1       2.378   1.413  -0.013  0.00  0.00    -0.020 A 
ATOM     14  C   UNL     1       2.399   0.030  -0.021  0.00  0.00    +0.044 A 
ATOM     15  C   UNL     1       1.211  -0.679  -0.013  0.00  0.00    +0.124 A 
ATOM     16  C   UNL     1       0.002  -0.004   0.002  0.00  0.00    +0.038 A 
ATOM     17  F   UNL     1       1.230  -2.030  -0.022  0.00  0.00    -0.205 F 
ENDBRANCH   1  13
BRANCH   3  18
ATOM     18  C   UNL     1       6.711   2.062   2.321  0.00  0.00    -0.027 A 
ATOM     19  C   UNL     1       7.266   0.807   2.487  0.00  0.00    +0.007 A 
ATOM     20  C   UNL     1       7.992   0.518   3.627  0.00  0.00    +0.020 A 
ATOM     21  C   UNL     1       8.164   1.485   4.601  0.00  0.00    +0.041 A 
ATOM     22  C   UNL     1       7.608   2.741   4.434  0.00  0.00    +0.020 A 
ATOM     23  C   UNL     1       6.886   3.031   3.291  0.00  0.00    +0.007 A 
ATOM     24 CL   UNL     1       9.075   1.123   6.034  0.00  0.00    -0.084 Cl
ENDBRANCH   3  18
TORSDOF 2
