REMARK  Name = ZINC39358604
REMARK  5 active torsions:
REMARK  status: ('A' for Active; 'I' for Inactive)
REMARK    1  A    between atoms: C_1  and  O_2
REMARK    2  A    between atoms: O_2  and  C_3
REMARK    3  A    between atoms: C_5  and  C_10
REMARK    4  A    between atoms: C_8  and  O_9
REMARK    5  A    between atoms: C_13  and  O_26
REMARK                            x       y       z     vdW  Elec       q    Type
REMARK                         _______ _______ _______ _____ _____    ______ ____
ROOT
ATOM      1  C   UNL     1       2.403   0.379  -4.230  0.00  0.00    +0.089 C 
ATOM      2  C   UNL     1       1.766   0.049  -5.546  0.00  0.00    +0.048 C 
ATOM      3  C   UNL     1       0.850   0.620  -6.297  0.00  0.00    +0.235 C 
ATOM      4  N   UNL     1       0.732  -0.043  -7.480  0.00  0.00    -0.114 NA
ATOM      5  N   UNL     1       1.456  -1.041  -7.583  0.00  0.00    -0.157 NA
ATOM      6  C   UNL     1       2.186  -1.202  -6.324  0.00  0.00    +0.245 C 
ATOM      7  N   UNL     1       3.634  -1.050  -6.482  0.00  0.00    -0.321 N 
ATOM      8  C   UNL     1       4.387  -0.605  -5.424  0.00  0.00    +0.013 C 
ATOM      9  C   UNL     1       3.884   0.057  -4.358  0.00  0.00    +0.023 C 
ATOM     10  C   UNL     1       4.709   0.482  -3.302  0.00  0.00    +0.162 C 
ATOM     11  O   UNL     1       4.215   1.084  -2.369  0.00  0.00    -0.292 OA
ATOM     12  C   UNL     1       6.187   0.209  -3.302  0.00  0.00    +0.080 C 
ATOM     13  C   UNL     1       6.449  -1.071  -4.102  0.00  0.00    +0.014 C 
ATOM     14  C   UNL     1       5.873  -0.888  -5.510  0.00  0.00    +0.051 C 
ATOM     15  H   UNL     1       4.058  -1.261  -7.329  0.00  0.00    +0.148 HD
ENDROOT
BRANCH   1  18
ATOM     16  C   UNL     1       0.606  -0.608  -1.056  0.00  0.00    +0.162 A 
ATOM     17  C   UNL     1       1.173   0.159  -2.062  0.00  0.00    +0.054 A 
ATOM     18  C   UNL     1       1.787  -0.456  -3.137  0.00  0.00    -0.032 A 
ATOM     19  C   UNL     1       1.837  -1.836  -3.212  0.00  0.00    +0.008 A 
ATOM     20  C   UNL     1       1.273  -2.606  -2.212  0.00  0.00    +0.049 A 
ATOM     21  C   UNL     1       0.662  -1.996  -1.129  0.00  0.00    +0.158 A 
BRANCH  16  23
ATOM     22  C   UNL     1      -0.017   1.425   0.010  0.00  0.00    +0.277 C 
ATOM     23  O   UNL     1       0.002  -0.004   0.002  0.00  0.00    -0.491 OA
ENDBRANCH  16  23
BRANCH  21  24
ATOM     24  O   UNL     1       0.112  -2.753  -0.142  0.00  0.00    -0.503 OA
ATOM     25  H   UNL     1      -0.816  -2.979  -0.291  0.00  0.00    +0.292 HD
ENDBRANCH  21  24
ENDBRANCH   1  18
BRANCH   3  26
ATOM     26  O   UNL     1       0.124   1.713  -5.942  0.00  0.00    -0.491 OA
ATOM     27  H   UNL     1      -0.508   2.001  -6.615  0.00  0.00    +0.294 HD
ENDBRANCH   3  26
TORSDOF 4
