REMARK  Name = ZINC40780939
REMARK  3 active torsions:
REMARK  status: ('A' for Active; 'I' for Inactive)
REMARK    1  A    between atoms: C_6  and  N_7
REMARK    2  A    between atoms: C_14  and  N_25
REMARK    3  A    between atoms: C_15  and  N_19
REMARK                            x       y       z     vdW  Elec       q    Type
REMARK                         _______ _______ _______ _____ _____    ______ ____
ROOT
ATOM      1  N   UNL     1      -1.201  -0.717   0.010  0.00  0.00    -0.327 N 
ATOM      2  C   UNL     1      -2.488  -0.019   0.129  0.00  0.00    +0.124 C 
ATOM      3  C   UNL     1      -3.376  -0.423  -1.054  0.00  0.00    +0.125 C 
ATOM      4  N   UNL     1      -3.373  -1.888  -1.165  0.00  0.00    -0.311 N 
ATOM      5  C   UNL     1      -2.085  -2.587  -1.284  0.00  0.00    +0.125 C 
ATOM      6  C   UNL     1      -1.197  -2.182  -0.106  0.00  0.00    +0.124 C 
ATOM      7  C   UNL     1      -4.566  -2.601  -1.157  0.00  0.00    +0.147 A 
ATOM      8  C   UNL     1      -5.183  -2.963  -2.356  0.00  0.00    +0.106 A 
ATOM      9  C   UNL     1      -6.380  -3.679  -2.291  0.00  0.00    +0.150 A 
ATOM     10  N   UNL     1      -6.883  -3.987  -1.098  0.00  0.00    -0.219 NA
ATOM     11  C   UNL     1      -6.268  -3.626   0.010  0.00  0.00    +0.225 A 
ATOM     12  N   UNL     1      -5.134  -2.954  -0.007  0.00  0.00    -0.219 NA
ENDROOT
BRANCH   1  18
ATOM     13  C   UNL     1       1.213  -0.675   0.005  0.00  0.00    +0.026 A 
ATOM     14  C   UNL     1       2.398   0.035  -0.003  0.00  0.00    +0.040 A 
ATOM     15  C   UNL     1       2.376   1.420  -0.015  0.00  0.00    +0.124 A 
ATOM     16  C   UNL     1       1.167   2.095  -0.017  0.00  0.00    +0.040 A 
ATOM     17  C   UNL     1      -0.020   1.389  -0.008  0.00  0.00    +0.026 A 
ATOM     18  C   UNL     1      -0.000   0.000   0.002  0.00  0.00    +0.030 A 
ATOM     19  F   UNL     1       3.535   2.112  -0.023  0.00  0.00    -0.205 F 
ENDBRANCH   1  18
BRANCH   9  20
ATOM     20  N   UNL     1      -7.037  -4.064  -3.455  0.00  0.00    -0.277 N 
ATOM     21  C   UNL     1      -8.225  -4.775  -3.378  0.00  0.00    +0.163 A 
ATOM     22  N   UNL     1      -8.877  -5.165  -2.303  0.00  0.00    -0.233 NA
ATOM     23  C   UNL     1     -10.008  -5.841  -2.399  0.00  0.00    +0.120 A 
ATOM     24  C   UNL     1     -10.460  -6.111  -3.647  0.00  0.00    +0.068 A 
ATOM     25  S   UNL     1      -9.188  -5.343  -4.636  0.00  0.00    -0.061 S 
ATOM     26  H   UNL     1      -6.663  -3.836  -4.321  0.00  0.00    +0.156 HD
ENDBRANCH   9  20
BRANCH   8  27
ATOM     27  N   UNL     1      -4.617  -2.616  -3.593  0.00  0.00    -0.353 N 
ATOM     28  H   UNL     1      -3.749  -2.183  -3.625  0.00  0.00    +0.143 HD
ATOM     29  H   UNL     1      -5.092  -2.810  -4.416  0.00  0.00    +0.143 HD
ENDBRANCH   8  27
TORSDOF 3
