REMARK  Name = ZINC04686683
REMARK  6 active torsions:
REMARK  status: ('A' for Active; 'I' for Inactive)
REMARK    1  A    between atoms: C_1  and  C_2
REMARK    2  A    between atoms: C_4  and  C_21
REMARK    3  A    between atoms: C_6  and  O_8
REMARK    4  A    between atoms: O_8  and  C_9
REMARK    5  A    between atoms: C_9  and  C_10
REMARK    6  A    between atoms: C_12  and  C_15
REMARK                            x       y       z     vdW  Elec       q    Type
REMARK                         _______ _______ _______ _____ _____    ______ ____
ROOT
ATOM      1  C   UNL     1       1.600   5.345   0.015  0.00  0.00    +0.265 A 
ATOM      2  N   UNL     1       0.820   4.294   0.017  0.00  0.00    -0.186 NA
ATOM      3  C   UNL     1       1.649   3.224   0.003  0.00  0.00    +0.238 A 
ATOM      4  N   UNL     1       2.875   3.688  -0.001  0.00  0.00    -0.053 NA
ATOM      5  O   UNL     1       2.861   4.901  -0.000  0.00  0.00    -0.334 OA
ENDROOT
BRANCH   3   6
ATOM      6  C   UNL     1       1.249   1.803  -0.000  0.00  0.00    +0.177 A 
ATOM      7  C   UNL     1       2.092   0.736  -0.014  0.00  0.00    +0.054 A 
ATOM      8  C   UNL     1       1.286  -0.418  -0.013  0.00  0.00    +0.057 A 
ATOM      9  C   UNL     1       0.002  -0.004   0.002  0.00  0.00    +0.171 A 
ATOM     10  O   UNL     1      -0.016   1.338   0.009  0.00  0.00    -0.445 OA
ATOM     11 BR   UNL     1      -1.519  -1.127   0.011  0.00  0.00    -0.008 Br
ENDBRANCH   3   6
BRANCH   1  12
ATOM     12  C   UNL     1       1.160   6.786   0.026  0.00  0.00    +0.327 C 
BRANCH  12  13
ATOM     13  O   UNL     1       1.034   7.235   1.377  0.00  0.00    -0.483 OA
BRANCH  13  19
ATOM     14  C   UNL     1      -0.295  11.531  -0.519  0.00  0.00    +0.044 C 
ATOM     15  C   UNL     1      -0.014  10.646   0.667  0.00  0.00    -0.047 A 
ATOM     16  C   UNL     1      -0.155  11.143   1.950  0.00  0.00    +0.007 A 
ATOM     17  C   UNL     1       0.102  10.333   3.040  0.00  0.00    -0.047 A 
ATOM     18  C   UNL     1       0.500   9.024   2.851  0.00  0.00    +0.049 A 
ATOM     19  C   UNL     1       0.643   8.523   1.566  0.00  0.00    +0.122 A 
ATOM     20  C   UNL     1       0.390   9.339   0.473  0.00  0.00    +0.049 A 
ATOM     21  C   UNL     1      -0.054  10.879   4.436  0.00  0.00    +0.044 C 
ENDBRANCH  13  19
ENDBRANCH  12  13
ENDBRANCH   1  12
TORSDOF 4
