REMARK  Name = ZINC41964404
REMARK  12 active torsions:
REMARK  status: ('A' for Active; 'I' for Inactive)
REMARK    1  A    between atoms: C_1  and  C_2
REMARK    2  A    between atoms: C_2  and  C_3
REMARK    3  A    between atoms: C_2  and  C_4
REMARK    4  A    between atoms: N_6  and  C_7
REMARK    5  A    between atoms: C_10  and  N_13
REMARK    6  A    between atoms: C_14  and  C_16
REMARK    7  A    between atoms: N_18  and  C_19
REMARK    8  A    between atoms: C_19  and  C_20
REMARK    9  A    between atoms: C_20  and  C_22
REMARK   10  A    between atoms: C_20  and  O_30
REMARK   11  A    between atoms: C_25  and  O_28
REMARK   12  A    between atoms: O_28  and  C_29
REMARK                            x       y       z     vdW  Elec       q    Type
REMARK                         _______ _______ _______ _____ _____    ______ ____
ROOT
ATOM      1  N   UNL     1      -7.471  -2.117  -1.369  0.00  0.00    -0.278 N 
ATOM      2  C   UNL     1      -8.188  -1.900  -2.490  0.00  0.00    +0.303 C 
ATOM      3  O   UNL     1      -7.732  -1.211  -3.378  0.00  0.00    -0.265 OA
ATOM      4  H   UNL     1      -7.862  -2.611  -0.632  0.00  0.00    +0.155 HD
ENDROOT
BRANCH   1   8
ATOM      5  C   UNL     1      -3.576  -0.665  -1.073  0.00  0.00    +0.034 A 
ATOM      6  C   UNL     1      -4.539   0.065  -1.759  0.00  0.00    +0.025 A 
ATOM      7  C   UNL     1      -5.829  -0.416  -1.857  0.00  0.00    +0.025 A 
ATOM      8  C   UNL     1      -6.164  -1.630  -1.270  0.00  0.00    +0.034 A 
ATOM      9  C   UNL     1      -5.201  -2.360  -0.585  0.00  0.00    +0.025 A 
ATOM     10  C   UNL     1      -3.910  -1.881  -0.492  0.00  0.00    +0.025 A 
BRANCH   5  13
ATOM     11  C   UNL     1      -1.226  -1.032  -0.994  0.00  0.00    +0.220 C 
ATOM     12  O   UNL     1      -1.424  -2.228  -1.014  0.00  0.00    -0.275 OA
ATOM     13  N   UNL     1      -2.267  -0.176  -0.974  0.00  0.00    -0.285 N 
ATOM     14  H   UNL     1      -2.111   0.777  -0.890  0.00  0.00    +0.155 HD
BRANCH  11  16
ATOM     15  C   UNL     1       0.414   0.331   0.271  0.00  0.00    +0.017 C 
ATOM     16  C   UNL     1       0.185  -0.501  -0.992  0.00  0.00    +0.069 C 
ATOM     17  C   UNL     1       1.170  -1.672  -1.017  0.00  0.00    +0.017 C 
ENDBRANCH  11  16
ENDBRANCH   5  13
ENDBRANCH   1   8
BRANCH   2  18
ATOM     18  C   UNL     1      -9.545  -2.507  -2.637  0.00  0.00    +0.299 C 
ATOM     19  O   UNL     1     -10.001  -3.196  -1.749  0.00  0.00    -0.265 OA
ATOM     20  N   UNL     1     -10.262  -2.290  -3.758  0.00  0.00    -0.305 N 
ATOM     21  H   UNL     1      -9.897  -1.739  -4.468  0.00  0.00    +0.149 HD
BRANCH  20  22
ATOM     22  C   UNL     1     -11.592  -2.885  -3.903  0.00  0.00    +0.140 C 
BRANCH  22  23
ATOM     23  C   UNL     1     -12.185  -2.486  -5.255  0.00  0.00    +0.162 C 
BRANCH  23  24
ATOM     24  C   UNL     1     -13.600  -2.995  -5.354  0.00  0.00    -0.017 A 
ATOM     25  C   UNL     1     -13.836  -4.319  -5.674  0.00  0.00    +0.010 A 
ATOM     26  C   UNL     1     -15.133  -4.788  -5.765  0.00  0.00    +0.046 A 
ATOM     27  C   UNL     1     -16.198  -3.930  -5.535  0.00  0.00    +0.120 A 
ATOM     28  C   UNL     1     -15.958  -2.602  -5.213  0.00  0.00    +0.046 A 
ATOM     29  C   UNL     1     -14.660  -2.139  -5.118  0.00  0.00    +0.010 A 
BRANCH  27  30
ATOM     30  O   UNL     1     -17.474  -4.389  -5.624  0.00  0.00    -0.495 OA
ATOM     31  C   UNL     1     -18.520  -3.449  -5.374  0.00  0.00    +0.277 C 
ENDBRANCH  27  30
ENDBRANCH  23  24
BRANCH  23  32
ATOM     32  O   UNL     1     -11.401  -3.053  -6.306  0.00  0.00    -0.386 OA
ATOM     33  H   UNL     1     -11.358  -4.019  -6.287  0.00  0.00    +0.210 HD
ENDBRANCH  23  32
ENDBRANCH  22  23
ENDBRANCH  20  22
ENDBRANCH   2  18
TORSDOF 9
