REMARK  Name = ZINC04727923
REMARK  2 active torsions:
REMARK  status: ('A' for Active; 'I' for Inactive)
REMARK    1  A    between atoms: C_1  and  N_2
REMARK    2  A    between atoms: C_6  and  C_8
REMARK                            x       y       z     vdW  Elec       q    Type
REMARK                         _______ _______ _______ _____ _____    ______ ____
ROOT
ATOM      1  C   UNL     1      -1.640   6.774   2.786  0.00  0.00    +0.022 C 
ATOM      2  C   UNL     1      -0.358   7.568   3.042  0.00  0.00    +0.017 C 
ATOM      3  C   UNL     1      -0.713   8.929   3.645  0.00  0.00    -0.010 C 
ATOM      4  C   UNL     1      -1.605   9.701   2.671  0.00  0.00    +0.007 C 
ATOM      5  C   UNL     1      -2.887   8.907   2.415  0.00  0.00    -0.010 C 
ATOM      6  C   UNL     1      -2.532   7.546   1.812  0.00  0.00    +0.017 C 
ATOM      7  C   UNL     1      -3.632   8.701   3.735  0.00  0.00    +0.007 C 
ATOM      8  C   UNL     1      -2.740   7.929   4.709  0.00  0.00    -0.010 C 
ATOM      9  C   UNL     1      -1.458   8.723   4.965  0.00  0.00    +0.007 C 
ATOM     10  C   UNL     1      -2.385   6.568   4.106  0.00  0.00    +0.017 C 
ENDROOT
BRANCH   1  16
ATOM     11  C   UNL     1      -0.013   1.086   0.008  0.00  0.00    +0.127 C 
ATOM     12  N   UNL     1      -0.698   1.558   1.213  0.00  0.00    -0.325 N 
ATOM     13  C   UNL     1      -0.842   2.919   1.442  0.00  0.00    +0.181 A 
ATOM     14  N   UNL     1      -0.436   3.953   0.717  0.00  0.00    -0.126 NA
ATOM     15  N   UNL     1      -0.656   5.143   1.075  0.00  0.00    -0.144 NA
ATOM     16  C   UNL     1      -1.290   5.434   2.192  0.00  0.00    +0.110 A 
ATOM     17  S   UNL     1      -1.619   3.783   2.803  0.00  0.00    -0.035 S 
ATOM     18  H   UNL     1      -1.052   0.920   1.852  0.00  0.00    +0.148 HD
ENDBRANCH   1  16
TORSDOF 1
