REMARK  Name = ZINC66907965
REMARK  6 active torsions:
REMARK  status: ('A' for Active; 'I' for Inactive)
REMARK    1  A    between atoms: C_1  and  C_2
REMARK    2  A    between atoms: C_2  and  C_4
REMARK    3  A    between atoms: C_2  and  N_11
REMARK    4  A    between atoms: N_14  and  N_15
REMARK    5  A    between atoms: C_16  and  C_18
REMARK    6  A    between atoms: C_18  and  C_19
REMARK                            x       y       z     vdW  Elec       q    Type
REMARK                         _______ _______ _______ _____ _____    ______ ____
ROOT
ATOM      1  N   UNL     1       0.688  -0.476  -1.203  0.00  0.00    -0.292 N 
ATOM      2  C   UNL     1       0.006  -0.608  -2.358  0.00  0.00    +0.316 C 
ATOM      3  O   UNL     1      -1.178  -0.335  -2.400  0.00  0.00    -0.251 OA
ATOM      4  N   UNL     1       0.637  -1.043  -3.467  0.00  0.00    -0.218 N 
ATOM      5  H   UNL     1       1.632  -0.695  -1.170  0.00  0.00    +0.151 HD
ATOM      6  H   UNL     1       0.146  -1.137  -4.299  0.00  0.00    +0.174 HD
ENDROOT
BRANCH   4   7
ATOM      7  N   UNL     1       2.001  -1.358  -3.419  0.00  0.00    -0.233 N 
ATOM      8  C   UNL     1       2.632  -1.792  -4.528  0.00  0.00    +0.234 C 
ATOM      9  O   UNL     1       2.019  -1.911  -5.568  0.00  0.00    -0.274 OA
ATOM     10  H   UNL     1       2.492  -1.263  -2.588  0.00  0.00    +0.173 HD
BRANCH   8  11
ATOM     11  C   UNL     1       4.100  -2.131  -4.476  0.00  0.00    +0.135 C 
BRANCH  11  12
ATOM     12  C   UNL     1       4.558  -2.589  -5.837  0.00  0.00    -0.003 A 
ATOM     13  C   UNL     1       4.589  -3.937  -6.139  0.00  0.00    +0.007 A 
ATOM     14  C   UNL     1       5.010  -4.357  -7.387  0.00  0.00    +0.000 A 
ATOM     15  C   UNL     1       5.399  -3.429  -8.335  0.00  0.00    +0.003 A 
ATOM     16  C   UNL     1       5.368  -2.081  -8.036  0.00  0.00    +0.038 A 
ATOM     17  C   UNL     1       4.942  -1.659  -6.787  0.00  0.00    +0.127 A 
ATOM     18  F   UNL     1       4.907  -0.340  -6.495  0.00  0.00    -0.205 F 
ENDBRANCH  11  12
ENDBRANCH   8  11
ENDBRANCH   4   7
BRANCH   1  20
ATOM     19  C   UNL     1      -0.019   1.526   0.010  0.00  0.00    +0.033 C 
ATOM     20  C   UNL     1       0.002  -0.004   0.002  0.00  0.00    +0.103 C 
BRANCH  20  21
ATOM     21  C   UNL     1       0.731  -0.503   1.223  0.00  0.00    -0.013 A 
ATOM     22  C   UNL     1       2.077  -0.808   1.148  0.00  0.00    +0.006 A 
ATOM     23  C   UNL     1       2.746  -1.266   2.268  0.00  0.00    +0.000 A 
ATOM     24  C   UNL     1       2.069  -1.419   3.463  0.00  0.00    +0.001 A 
ATOM     25  C   UNL     1       0.723  -1.114   3.539  0.00  0.00    +0.015 A 
ATOM     26  C   UNL     1       0.054  -0.651   2.420  0.00  0.00    +0.023 A 
ATOM     27 BR   UNL     1      -1.786  -0.228   2.525  0.00  0.00    -0.050 Br
ENDBRANCH  20  21
ENDBRANCH   1  20
TORSDOF 5
