REMARK  Name = ZINC11941170
REMARK  6 active torsions:
REMARK  status: ('A' for Active; 'I' for Inactive)
REMARK    1  A    between atoms: C_1  and  C_2
REMARK    2  A    between atoms: C_6  and  C_14
REMARK    3  A    between atoms: C_12  and  C_13
REMARK    4  A    between atoms: C_14  and  S_15
REMARK    5  A    between atoms: S_15  and  C_16
REMARK    6  A    between atoms: N_19  and  C_21
REMARK                            x       y       z     vdW  Elec       q    Type
REMARK                         _______ _______ _______ _____ _____    ______ ____
ROOT
ATOM      1  C   UNL     1       5.979   2.495  -0.042  0.00  0.00    +0.044 C 
ATOM      2  C   UNL     1       4.719   1.667  -0.034  0.00  0.00    -0.044 A 
ATOM      3  C   UNL     1       4.807   0.283  -0.042  0.00  0.00    +0.004 A 
ATOM      4  C   UNL     1       3.676  -0.484  -0.036  0.00  0.00    +0.012 A 
ATOM      5  C   UNL     1       2.421   0.132  -0.020  0.00  0.00    +0.022 A 
ATOM      6  C   UNL     1       1.189  -0.662  -0.013  0.00  0.00    -0.020 A 
ATOM      7  C   UNL     1       0.002  -0.004   0.002  0.00  0.00    +0.097 A 
ATOM      8  C   UNL     1      -0.017   1.408   0.010  0.00  0.00    +0.338 A 
ATOM      9  O   UNL     1      -1.088   1.986   0.018  0.00  0.00    -0.245 OA
ATOM     10  O   UNL     1       1.115   2.128   0.003  0.00  0.00    -0.422 OA
ATOM     11  C   UNL     1       2.328   1.534  -0.012  0.00  0.00    +0.142 A 
ATOM     12  C   UNL     1       3.491   2.294  -0.019  0.00  0.00    -0.005 A 
ATOM     13  C   UNL     1       3.411   3.799  -0.011  0.00  0.00    +0.048 C 
ENDROOT
BRANCH   6  14
ATOM     14  C   UNL     1       1.238  -2.169  -0.022  0.00  0.00    +0.113 C 
BRANCH  14  15
ATOM     15  S   UNL     1       1.242  -2.763  -1.736  0.00  0.00    -0.080 S 
BRANCH  15  16
ATOM     16  C   UNL     1       1.302  -4.517  -1.578  0.00  0.00    +0.209 A 
ATOM     17  N   UNL     1       1.340  -5.194  -0.426  0.00  0.00    -0.209 NA
ATOM     18  C   UNL     1       1.375  -6.480  -0.668  0.00  0.00    +0.226 A 
ATOM     19  N   UNL     1       1.368  -6.656  -2.003  0.00  0.00    -0.219 N 
ATOM     20  N   UNL     1       1.321  -5.373  -2.573  0.00  0.00    -0.138 NA
BRANCH  19  21
ATOM     21  C   UNL     1       1.402  -7.878  -2.688  0.00  0.00    +0.067 A 
ATOM     22  C   UNL     1       1.453  -9.071  -1.980  0.00  0.00    +0.028 A 
ATOM     23  C   UNL     1       1.480 -10.274  -2.658  0.00  0.00    +0.002 A 
ATOM     24  C   UNL     1       1.468 -10.290  -4.041  0.00  0.00    +0.000 A 
ATOM     25  C   UNL     1       1.422  -9.104  -4.749  0.00  0.00    +0.002 A 
ATOM     26  C   UNL     1       1.389  -7.898  -4.077  0.00  0.00    +0.028 A 
ENDBRANCH  19  21
ENDBRANCH  15  16
ENDBRANCH  14  15
ENDBRANCH   6  14
TORSDOF 4
