REMARK  Name = ZINC62089131
REMARK  5 active torsions:
REMARK  status: ('A' for Active; 'I' for Inactive)
REMARK    1  A    between atoms: C_1  and  N_2
REMARK    2  A    between atoms: C_5  and  N_12
REMARK    3  A    between atoms: N_12  and  S_13
REMARK    4  A    between atoms: S_13  and  C_16
REMARK    5  A    between atoms: C_19  and  N_22
REMARK                            x       y       z     vdW  Elec       q    Type
REMARK                         _______ _______ _______ _____ _____    ______ ____
ROOT
ATOM      1  S   UNL     1      -5.656  -2.410  -0.973  0.00  0.00    +0.072 S 
ATOM      2  O   UNL     1      -7.009  -2.007  -0.812  0.00  0.00    -0.150 OA
ATOM      3  O   UNL     1      -5.004  -2.405  -2.235  0.00  0.00    -0.150 OA
ENDROOT
BRANCH   1   4
ATOM      4  C   UNL     1      -5.544  -4.056  -0.354  0.00  0.00    +0.109 A 
ATOM      5  C   UNL     1      -4.473  -4.856  -0.711  0.00  0.00    +0.030 A 
ATOM      6  C   UNL     1      -4.383  -6.146  -0.228  0.00  0.00    +0.025 A 
ATOM      7  C   UNL     1      -5.368  -6.641   0.617  0.00  0.00    +0.036 A 
ATOM      8  C   UNL     1      -6.442  -5.836   0.973  0.00  0.00    +0.025 A 
ATOM      9  C   UNL     1      -6.524  -4.544   0.491  0.00  0.00    +0.030 A 
BRANCH   7  10
ATOM     10  N   UNL     1      -5.279  -7.949   1.107  0.00  0.00    -0.271 N 
ATOM     11  C   UNL     1      -6.200  -8.528   2.092  0.00  0.00    +0.114 C 
ATOM     12  C   UNL     1      -5.997 -10.056   1.998  0.00  0.00    +0.029 C 
ATOM     13  C   UNL     1      -4.552 -10.149   1.456  0.00  0.00    +0.098 C 
ATOM     14  C   UNL     1      -4.343  -8.837   0.732  0.00  0.00    +0.220 C 
ATOM     15  O   UNL     1      -3.458  -8.619  -0.068  0.00  0.00    -0.275 OA
ENDBRANCH   7  10
ENDBRANCH   1   4
BRANCH   1  16
ATOM     16  N   UNL     1      -4.754  -1.448   0.029  0.00  0.00    -0.216 N 
ATOM     17  H   UNL     1      -3.990  -0.964  -0.322  0.00  0.00    +0.174 HD
BRANCH  16  22
ATOM     18  C   UNL     1      -2.265  -1.578   4.985  0.00  0.00    +0.156 C 
ATOM     19  N   UNL     1      -3.711  -1.372   4.875  0.00  0.00    -0.277 N 
ATOM     20  C   UNL     1      -4.449  -1.320   3.692  0.00  0.00    +0.092 A 
ATOM     21  C   UNL     1      -4.108  -1.433   2.354  0.00  0.00    +0.054 A 
ATOM     22  C   UNL     1      -5.093  -1.335   1.382  0.00  0.00    +0.050 A 
ATOM     23  C   UNL     1      -6.417  -1.123   1.751  0.00  0.00    +0.028 A 
ATOM     24  C   UNL     1      -6.757  -1.011   3.084  0.00  0.00    +0.050 A 
ATOM     25  C   UNL     1      -5.777  -1.109   4.060  0.00  0.00    +0.157 A 
ATOM     26  O   UNL     1      -5.813  -1.039   5.415  0.00  0.00    -0.407 OA
ATOM     27  C   UNL     1      -4.572  -1.203   5.897  0.00  0.00    +0.421 A 
ATOM     28  O   UNL     1      -4.270  -1.196   7.075  0.00  0.00    -0.223 OA
ENDBRANCH  16  22
ENDBRANCH   1  16
TORSDOF 4
