REMARK  Name = ZINC57009320
REMARK  5 active torsions:
REMARK  status: ('A' for Active; 'I' for Inactive)
REMARK    1  A    between atoms: C_6  and  C_7
REMARK    2  A    between atoms: C_7  and  S_8
REMARK    3  A    between atoms: S_8  and  N_11
REMARK    4  A    between atoms: C_14  and  N_17
REMARK    5  A    between atoms: N_20  and  C_21
REMARK                            x       y       z     vdW  Elec       q    Type
REMARK                         _______ _______ _______ _____ _____    ______ ____
ROOT
ATOM      1  N   UNL     1      -3.246  -1.919  -1.555  0.00  0.00    -0.181 NA
ATOM      2  C   UNL     1      -3.240  -3.388  -1.497  0.00  0.00    +0.111 C 
ATOM      3  C   UNL     1      -4.185  -3.928  -2.576  0.00  0.00    +0.039 C 
ATOM      4  C   UNL     1      -5.568  -3.297  -2.398  0.00  0.00    +0.077 C 
ATOM      5  C   UNL     1      -5.464  -1.780  -2.563  0.00  0.00    +0.039 C 
ATOM      6  C   UNL     1      -4.533  -1.215  -1.479  0.00  0.00    +0.111 C 
ENDROOT
BRANCH   4   7
ATOM      7  N   UNL     1      -6.483  -3.837  -3.407  0.00  0.00    -0.296 N 
ATOM      8  C   UNL     1      -7.811  -3.849  -3.176  0.00  0.00    +0.300 C 
ATOM      9  O   UNL     1      -8.249  -3.412  -2.129  0.00  0.00    -0.253 OA
ATOM     10  N   UNL     1      -8.652  -4.345  -4.104  0.00  0.00    -0.297 N 
ATOM     11  H   UNL     1      -6.133  -4.185  -4.242  0.00  0.00    +0.151 HD
ATOM     12  H   UNL     1      -8.303  -4.693  -4.939  0.00  0.00    +0.151 HD
BRANCH  10  13
ATOM     13  C   UNL     1     -10.095  -4.358  -3.852  0.00  0.00    +0.074 C 
ATOM     14  C   UNL     1     -10.463  -5.614  -3.059  0.00  0.00    +0.022 C 
ATOM     15  C   UNL     1     -11.970  -5.628  -2.796  0.00  0.00    +0.002 C 
ATOM     16  C   UNL     1     -12.721  -5.628  -4.130  0.00  0.00    +0.000 C 
ATOM     17  C   UNL     1     -12.353  -4.372  -4.922  0.00  0.00    +0.002 C 
ATOM     18  C   UNL     1     -10.846  -4.358  -5.185  0.00  0.00    +0.022 C 
ENDBRANCH  10  13
ENDBRANCH   4   7
BRANCH   1  19
ATOM     19  S   UNL     1      -1.829  -1.075  -1.697  0.00  0.00    +0.036 S 
ATOM     20  O   UNL     1      -2.197   0.150  -2.316  0.00  0.00    -0.158 OA
ATOM     21  O   UNL     1      -0.934  -1.972  -2.340  0.00  0.00    -0.158 OA
BRANCH  19  22
ATOM     22  C   UNL     1      -1.293  -0.775   0.010  0.00  0.00    +0.220 C 
BRANCH  22  28
ATOM     23  C   UNL     1      -0.017   1.378   0.010  0.00  0.00    +0.008 A 
ATOM     24  C   UNL     1       1.170   2.086   0.002  0.00  0.00    +0.038 A 
ATOM     25  C   UNL     1       2.379   1.410  -0.013  0.00  0.00    +0.123 A 
ATOM     26  C   UNL     1       2.396   0.026  -0.021  0.00  0.00    +0.038 A 
ATOM     27  C   UNL     1       1.208  -0.680  -0.013  0.00  0.00    +0.008 A 
ATOM     28  C   UNL     1       0.002  -0.004   0.002  0.00  0.00    -0.025 A 
ATOM     29  F   UNL     1       3.540   2.101  -0.021  0.00  0.00    -0.205 F 
ENDBRANCH  22  28
ENDBRANCH  19  22
ENDBRANCH   1  19
TORSDOF 5
