REMARK  Name = ZINC67235808
REMARK  7 active torsions:
REMARK  status: ('A' for Active; 'I' for Inactive)
REMARK    1  A    between atoms: C_1  and  N_2
REMARK    2  A    between atoms: C_4  and  C_25
REMARK    3  A    between atoms: N_9  and  C_12
REMARK    4  A    between atoms: C_12  and  C_13
REMARK    5  A    between atoms: N_15  and  C_16
REMARK    6  A    between atoms: C_21  and  O_22
REMARK    7  A    between atoms: O_22  and  C_23
REMARK                            x       y       z     vdW  Elec       q    Type
REMARK                         _______ _______ _______ _____ _____    ______ ____
ROOT
ATOM      1  C   UNL     1       0.005   1.421   0.001  0.00  0.00    +0.149 C 
ATOM      2  N   UNL     1       0.015  -0.043  -0.001  0.00  0.00    -0.344 N 
ATOM      3  C   UNL     1       0.016  -0.820  -1.115  0.00  0.00    +0.096 A 
ATOM      4  C   UNL     1       0.026  -2.133  -0.754  0.00  0.00    +0.026 A 
ATOM      5  C   UNL     1       0.032  -2.168   0.709  0.00  0.00    +0.103 A 
ATOM      6  C   UNL     1       0.030  -0.833   1.125  0.00  0.00    +0.133 A 
ATOM      7  C   UNL     1       0.040  -0.564   2.510  0.00  0.00    +0.279 A 
ATOM      8  O   UNL     1       0.035   0.584   2.924  0.00  0.00    -0.265 OA
ATOM      9  N   UNL     1       0.054  -1.609   3.367  0.00  0.00    -0.289 N 
ATOM     10  C   UNL     1       0.059  -2.884   2.900  0.00  0.00    +0.203 A 
ATOM     11  N   UNL     1       0.041  -3.153   1.626  0.00  0.00    -0.235 NA
ENDROOT
BRANCH   4  12
ATOM     12  C   UNL     1       0.030  -3.302  -1.667  0.00  0.00    -0.014 A 
ATOM     13  C   UNL     1       0.957  -4.327  -1.487  0.00  0.00    +0.010 A 
ATOM     14  C   UNL     1       0.957  -5.412  -2.339  0.00  0.00    +0.020 A 
ATOM     15  C   UNL     1       0.038  -5.484  -3.372  0.00  0.00    +0.041 A 
ATOM     16  C   UNL     1      -0.884  -4.468  -3.556  0.00  0.00    +0.020 A 
ATOM     17  C   UNL     1      -0.897  -3.382  -2.705  0.00  0.00    +0.010 A 
ATOM     18 CL   UNL     1       0.043  -6.852  -4.441  0.00  0.00    -0.084 Cl
ENDBRANCH   4  12
BRANCH   9  19
ATOM     19  C   UNL     1       0.065  -1.364   4.811  0.00  0.00    +0.222 C 
BRANCH  19  20
ATOM     20  C   UNL     1      -1.352  -1.289   5.319  0.00  0.00    +0.237 C 
ATOM     21  O   UNL     1      -2.280  -1.427   4.550  0.00  0.00    -0.274 OA
ATOM     22  N   UNL     1      -1.588  -1.069   6.627  0.00  0.00    -0.281 N 
ATOM     23  H   UNL     1      -0.848  -1.024   7.253  0.00  0.00    +0.155 HD
BRANCH  22  24
ATOM     24  C   UNL     1      -2.903  -0.907   7.084  0.00  0.00    +0.077 A 
ATOM     25  C   UNL     1      -3.937  -1.618   6.494  0.00  0.00    +0.047 A 
ATOM     26  C   UNL     1      -5.234  -1.456   6.947  0.00  0.00    +0.043 A 
ATOM     27  C   UNL     1      -5.502  -0.585   7.989  0.00  0.00    +0.024 A 
ATOM     28  C   UNL     1      -4.476   0.127   8.580  0.00  0.00    +0.049 A 
ATOM     29  C   UNL     1      -3.174  -0.034   8.136  0.00  0.00    +0.141 A 
ATOM     30 CL   UNL     1      -6.527  -2.348   6.208  0.00  0.00    -0.083 Cl
BRANCH  29  31
ATOM     31  O   UNL     1      -2.162   0.662   8.721  0.00  0.00    -0.493 OA
ATOM     32  C   UNL     1      -2.514   1.538   9.794  0.00  0.00    +0.277 C 
ENDBRANCH  29  31
ENDBRANCH  22  24
ENDBRANCH  19  20
ENDBRANCH   9  19
TORSDOF 5
