REMARK  Name = ZINC01068878
REMARK  3 active torsions:
REMARK  status: ('A' for Active; 'I' for Inactive)
REMARK    1  A    between atoms: C_1  and  C_2
REMARK    2  A    between atoms: C_6  and  C_29
REMARK    3  A    between atoms: C_7  and  N_8
REMARK                            x       y       z     vdW  Elec       q    Type
REMARK                         _______ _______ _______ _____ _____    ______ ____
ROOT
ATOM      1  N   UNL     1      -2.433   1.468   0.022  0.00  0.00    -0.233 N 
ATOM      2  C   UNL     1      -3.013   1.140  -1.151  0.00  0.00    +0.255 C 
ATOM      3  O   UNL     1      -2.428   1.335  -2.200  0.00  0.00    -0.269 OA
ATOM      4  C   UNL     1      -4.357   0.540  -1.151  0.00  0.00    +0.058 A 
ATOM      5  C   UNL     1      -4.915   0.002  -2.310  0.00  0.00    +0.015 A 
ATOM      6  C   UNL     1      -6.170  -0.569  -2.260  0.00  0.00    +0.001 A 
ATOM      7  C   UNL     1      -6.876  -0.611  -1.068  0.00  0.00    +0.002 A 
ATOM      8  C   UNL     1      -6.338  -0.077   0.087  0.00  0.00    +0.024 A 
ATOM      9  C   UNL     1      -5.082   0.505   0.053  0.00  0.00    +0.041 A 
ATOM     10  N   UNL     1      -4.505   1.066   1.187  0.00  0.00    -0.311 N 
ATOM     11  H   UNL     1      -5.060   1.432   1.894  0.00  0.00    +0.149 HD
ATOM     12  C   UNL     1      -3.045   1.095   1.294  0.00  0.00    +0.212 C 
ATOM     13  C   UNL     1      -2.522  -0.223   1.774  0.00  0.00    +0.025 A 
ATOM     14  C   UNL     1      -2.589  -1.486   1.226  0.00  0.00    +0.010 A 
ATOM     15  C   UNL     1      -1.988  -2.516   1.940  0.00  0.00    +0.001 A 
ATOM     16  C   UNL     1      -1.353  -2.282   3.143  0.00  0.00    +0.002 A 
ATOM     17  C   UNL     1      -1.282  -1.015   3.700  0.00  0.00    +0.024 A 
ATOM     18  C   UNL     1      -1.882   0.028   2.994  0.00  0.00    +0.041 A 
ATOM     19  N   UNL     1      -1.963   1.372   3.312  0.00  0.00    -0.282 N 
ATOM     20  C   UNL     1      -2.630   2.075   2.373  0.00  0.00    +0.264 C 
ATOM     21  O   UNL     1      -2.855   3.267   2.389  0.00  0.00    -0.271 OA
ATOM     22  H   UNL     1      -1.586   1.763   4.115  0.00  0.00    +0.155 HD
ENDROOT
BRANCH   1  29
ATOM     23  C   UNL     1       0.002  -0.004   0.002  0.00  0.00    +0.045 C 
ATOM     24  C   UNL     1      -0.018   1.503   0.010  0.00  0.00    -0.029 A 
ATOM     25  C   UNL     1       1.168   2.210   0.003  0.00  0.00    +0.005 A 
ATOM     26  C   UNL     1       1.150   3.593   0.010  0.00  0.00    +0.001 A 
ATOM     27  C   UNL     1      -0.055   4.272   0.025  0.00  0.00    +0.005 A 
ATOM     28  C   UNL     1      -1.244   3.570   0.033  0.00  0.00    -0.029 A 
ATOM     29  C   UNL     1      -1.230   2.182   0.020  0.00  0.00    +0.045 A 
ATOM     30  C   UNL     1      -2.557   4.311   0.049  0.00  0.00    +0.045 C 
ENDBRANCH   1  29
TORSDOF 1
