REMARK  Name = ZINC20356537
REMARK  5 active torsions:
REMARK  status: ('A' for Active; 'I' for Inactive)
REMARK    1  A    between atoms: C_1  and  C_2
REMARK    2  A    between atoms: C_4  and  C_15
REMARK    3  A    between atoms: C_5  and  C_14
REMARK    4  A    between atoms: N_6  and  C_7
REMARK    5  A    between atoms: C_7  and  C_8
REMARK                            x       y       z     vdW  Elec       q    Type
REMARK                         _______ _______ _______ _____ _____    ______ ____
ROOT
ATOM      1  C   UNL     1       0.310  -3.496  -1.573  0.00  0.00    +0.026 C 
ATOM      2  C   UNL     1       0.052  -3.317  -2.916  0.00  0.00    +0.081 C 
ATOM      3  C   UNL     1      -0.089  -1.960  -3.514  0.00  0.00    +0.153 C 
ATOM      4  N   UNL     1       0.575  -0.916  -3.091  0.00  0.00    -0.283 NA
ATOM      5  N   UNL     1      -1.009  -1.912  -4.581  0.00  0.00    -0.150 N 
ATOM      6  C   UNL     1      -1.267  -3.086  -5.252  0.00  0.00    +0.182 C 
ATOM      7  N   UNL     1      -0.830  -4.285  -4.960  0.00  0.00    -0.152 NA
ATOM      8  C   UNL     1      -0.092  -4.465  -3.844  0.00  0.00    +0.273 C 
ATOM      9  O   UNL     1       0.437  -5.538  -3.602  0.00  0.00    -0.268 OA
ATOM     10  S   UNL     1      -2.335  -2.543  -6.560  0.00  0.00    -0.018 S 
ATOM     11  C   UNL     1      -2.449  -0.827  -6.074  0.00  0.00    +0.182 C 
ATOM     12  N   UNL     1      -1.669  -0.785  -5.023  0.00  0.00    -0.149 NA
ATOM     13  N   UNL     1      -3.176   0.197  -6.660  0.00  0.00    -0.308 N 
ATOM     14  C   UNL     1      -3.131   1.558  -6.107  0.00  0.00    +0.107 C 
ATOM     15  C   UNL     1      -2.748   2.531  -7.226  0.00  0.00    +0.019 C 
ATOM     16  C   UNL     1      -3.717   2.361  -8.399  0.00  0.00    +0.003 C 
ATOM     17  C   UNL     1      -3.614   0.934  -8.944  0.00  0.00    +0.019 C 
ATOM     18  C   UNL     1      -4.001  -0.057  -7.848  0.00  0.00    +0.107 C 
ATOM     19  H   UNL     1       0.472  -0.062  -3.538  0.00  0.00    +0.188 HD
ENDROOT
BRANCH   1  23
ATOM     20  C   UNL     1      -0.771   1.059   0.433  0.00  0.00    +0.063 C 
ATOM     21  C   UNL     1      -0.255  -0.341   0.217  0.00  0.00    +0.017 A 
ATOM     22  C   UNL     1      -0.442  -1.076  -0.892  0.00  0.00    +0.030 A 
ATOM     23  C   UNL     1       0.233  -2.360  -0.656  0.00  0.00    -0.003 A 
ATOM     24  C   UNL     1       0.779  -2.273   0.613  0.00  0.00    +0.023 A 
ATOM     25  N   UNL     1       0.482  -1.059   1.114  0.00  0.00    -0.343 N 
ATOM     26  C   UNL     1       1.574  -3.347   1.310  0.00  0.00    +0.064 C 
BRANCH  25  27
ATOM     27  C   UNL     1       0.888  -0.579   2.437  0.00  0.00    +0.156 C 
BRANCH  27  28
ATOM     28  C   UNL     1      -0.168  -0.942   3.449  0.00  0.00    -0.028 A 
ATOM     29  C   UNL     1      -1.211  -0.071   3.703  0.00  0.00    +0.005 A 
ATOM     30  C   UNL     1      -2.179  -0.405   4.631  0.00  0.00    +0.000 A 
ATOM     31  C   UNL     1      -2.104  -1.609   5.306  0.00  0.00    +0.000 A 
ATOM     32  C   UNL     1      -1.061  -2.479   5.053  0.00  0.00    +0.000 A 
ATOM     33  C   UNL     1      -0.095  -2.148   4.121  0.00  0.00    +0.005 A 
ENDBRANCH  27  28
ENDBRANCH  25  27
ENDBRANCH   1  23
TORSDOF 3
