REMARK  Name = ZINC19581056
REMARK  8 active torsions:
REMARK  status: ('A' for Active; 'I' for Inactive)
REMARK    1  A    between atoms: C_1  and  C_2
REMARK    2  A    between atoms: C_3  and  C_8
REMARK    3  A    between atoms: C_4  and  C_7
REMARK    4  A    between atoms: C_8  and  C_9
REMARK    5  A    between atoms: C_12  and  C_14
REMARK    6  A    between atoms: N_16  and  C_17
REMARK    7  A    between atoms: C_17  and  C_19
REMARK    8  A    between atoms: C_17  and  C_20
REMARK                            x       y       z     vdW  Elec       q    Type
REMARK                         _______ _______ _______ _____ _____    ______ ____
ROOT
ATOM      1  C   UNL     1       7.693  -0.410   1.378  0.00  0.00    +0.280 C 
ATOM      2  O   UNL     1       8.430   0.530   1.145  0.00  0.00    -0.267 OA
ATOM      3  N   UNL     1       6.463  -0.455   0.829  0.00  0.00    -0.299 N 
ATOM      4  H   UNL     1       5.798  -1.305   1.040  0.00  0.00    +0.150 HD
ENDROOT
BRANCH   1   8
ATOM      5  C   UNL     1       8.160  -3.357   3.415  0.00  0.00    +0.110 A 
ATOM      6  C   UNL     1       9.359  -2.767   3.613  0.00  0.00    +0.046 A 
ATOM      7  C   UNL     1       9.358  -1.573   2.876  0.00  0.00    +0.055 A 
ATOM      8  C   UNL     1       8.144  -1.494   2.257  0.00  0.00    +0.189 A 
ATOM      9  O   UNL     1       7.429  -2.585   2.601  0.00  0.00    -0.455 OA
BRANCH   5  10
ATOM     10  C   UNL     1       7.717  -4.667   4.014  0.00  0.00    +0.114 C 
BRANCH  10  13
ATOM     11  C   UNL     1       9.090  -4.563   6.952  0.00  0.00    +0.069 C 
ATOM     12  C   UNL     1       7.633  -4.365   6.621  0.00  0.00    +0.084 A 
ATOM     13  C   UNL     1       7.042  -4.412   5.337  0.00  0.00    +0.024 A 
ATOM     14  C   UNL     1       5.729  -4.179   5.573  0.00  0.00    +0.138 A 
ATOM     15  O   UNL     1       5.604  -4.010   6.896  0.00  0.00    -0.359 OA
ATOM     16  N   UNL     1       6.670  -4.114   7.460  0.00  0.00    -0.083 NA
ATOM     17  C   UNL     1       4.625  -4.122   4.548  0.00  0.00    +0.089 C 
ENDBRANCH  10  13
ENDBRANCH   5  10
ENDBRANCH   1   8
BRANCH   3  18
ATOM     18  C   UNL     1       6.013   0.628  -0.049  0.00  0.00    +0.136 C 
ATOM     19  C   UNL     1       6.500   0.363  -1.476  0.00  0.00    +0.036 C 
BRANCH  18  20
ATOM     20  C   UNL     1       4.507   0.692  -0.036  0.00  0.00    +0.126 A 
ATOM     21  C   UNL     1       3.788   1.823  -0.024  0.00  0.00    +0.055 A 
ATOM     22  C   UNL     1       2.379   1.411  -0.013  0.00  0.00    +0.022 A 
ATOM     23  C   UNL     1       1.164   2.095   0.002  0.00  0.00    +0.031 A 
ATOM     24  C   UNL     1      -0.017   1.384   0.010  0.00  0.00    +0.042 A 
ATOM     25  C   UNL     1       0.002  -0.004   0.002  0.00  0.00    +0.023 A 
ATOM     26  C   UNL     1       1.197  -0.691  -0.013  0.00  0.00    +0.048 A 
ATOM     27  C   UNL     1       2.398   0.006  -0.020  0.00  0.00    +0.135 A 
ATOM     28  O   UNL     1       3.691  -0.376  -0.034  0.00  0.00    -0.458 OA
ATOM     29 CL   UNL     1      -1.534   2.229   0.021  0.00  0.00    -0.084 Cl
ENDBRANCH  18  20
ENDBRANCH   3  18
TORSDOF 5
