REMARK  Name = ZINC48729492
REMARK  3 active torsions:
REMARK  status: ('A' for Active; 'I' for Inactive)
REMARK    1  A    between atoms: C_1  and  C_2
REMARK    2  A    between atoms: C_5  and  C_21
REMARK    3  A    between atoms: N_12  and  C_13
REMARK                            x       y       z     vdW  Elec       q    Type
REMARK                         _______ _______ _______ _____ _____    ______ ____
ROOT
ATOM      1  C   UNL     1      -0.026   1.522   0.018  0.00  0.00    +0.009 C 
ATOM      2  C   UNL     1      -0.001  -0.008   0.006  0.00  0.00    +0.004 C 
ATOM      3  C   UNL     1       0.716  -0.497  -1.254  0.00  0.00    +0.009 C 
ATOM      4  C   UNL     1       2.139   0.064  -1.285  0.00  0.00    +0.004 C 
ATOM      5  C   UNL     1       2.910  -0.443  -0.062  0.00  0.00    +0.112 C 
ATOM      6  N   UNL     1       2.153  -0.102   1.150  0.00  0.00    -0.285 N 
ATOM      7  C   UNL     1       0.746  -0.516   1.244  0.00  0.00    +0.112 C 
ATOM      8  C   UNL     1       2.738   0.577   2.157  0.00  0.00    +0.302 C 
ATOM      9  O   UNL     1       2.077   0.935   3.112  0.00  0.00    -0.253 OA
ATOM     10  N   UNL     1       4.055   0.857   2.104  0.00  0.00    -0.295 N 
ATOM     11  C   UNL     1       2.843  -0.398  -2.562  0.00  0.00    +0.009 C 
ATOM     12  H   UNL     1       4.567   0.635   1.311  0.00  0.00    +0.151 HD
ENDROOT
BRANCH  10  13
ATOM     13  C   UNL     1       4.713   1.498   3.246  0.00  0.00    +0.097 C 
ATOM     14  C   UNL     1       4.567   3.025   3.139  0.00  0.00    +0.046 C 
ATOM     15  C   UNL     1       5.517   3.718   4.146  0.00  0.00    +0.168 C 
ATOM     16  S   UNL     1       6.886   2.500   4.313  0.00  0.00    -0.029 S 
ATOM     17  O   UNL     1       6.932   2.038   5.656  0.00  0.00    -0.174 OA
ATOM     18  O   UNL     1       8.058   3.038   3.718  0.00  0.00    -0.174 OA
ATOM     19  C   UNL     1       6.230   1.155   3.238  0.00  0.00    +0.188 C 
ENDBRANCH  10  13
TORSDOF 1
