REMARK  Name = ZINC08747950
REMARK  5 active torsions:
REMARK  status: ('A' for Active; 'I' for Inactive)
REMARK    1  A    between atoms: C_4  and  S_7
REMARK    2  A    between atoms: S_7  and  N_10
REMARK    3  A    between atoms: C_16  and  C_18
REMARK    4  A    between atoms: C_18  and  N_57
REMARK    5  A    between atoms: C_26  and  C_28
REMARK                            x       y       z     vdW  Elec       q    Type
REMARK                         _______ _______ _______ _____ _____    ______ ____
ROOT
ATOM      1  N   UNL     1       1.488   2.648   0.017  0.00  0.00    -0.174 NA
ATOM      2  C   UNL     1       2.234   2.663   1.283  0.00  0.00    +0.128 C 
ATOM      3  C   UNL     1       3.487   1.787   1.120  0.00  0.00    +0.125 C 
ATOM      4  N   UNL     1       4.179   2.185  -0.114  0.00  0.00    -0.300 N 
ATOM      5  C   UNL     1       3.432   2.175  -1.380  0.00  0.00    +0.125 C 
ATOM      6  C   UNL     1       2.181   3.046  -1.217  0.00  0.00    +0.128 C 
ATOM      7  C   UNL     1       5.475   2.553  -0.085  0.00  0.00    +0.199 C 
ATOM      8  O   UNL     1       6.036   2.879  -1.109  0.00  0.00    -0.278 OA
ENDROOT
BRANCH   1   9
ATOM      9  S   UNL     1      -0.104   2.198  -0.019  0.00  0.00    +0.061 S 
ATOM     10  O   UNL     1      -0.672   2.802  -1.173  0.00  0.00    -0.153 OA
ATOM     11  O   UNL     1      -0.618   2.419   1.288  0.00  0.00    -0.153 OA
BRANCH   9  15
ATOM     12  C   UNL     1      -0.216  -2.274  -0.712  0.00  0.00    +0.000 A 
ATOM     13  C   UNL     1      -0.173  -1.776   0.577  0.00  0.00    +0.002 A 
ATOM     14  C   UNL     1      -0.139  -0.410   0.788  0.00  0.00    +0.028 A 
ATOM     15  C   UNL     1      -0.147   0.457  -0.289  0.00  0.00    +0.105 A 
ATOM     16  C   UNL     1      -0.196  -0.042  -1.577  0.00  0.00    +0.028 A 
ATOM     17  C   UNL     1      -0.225  -1.407  -1.789  0.00  0.00    +0.002 A 
ENDBRANCH   9  15
ENDBRANCH   1   9
BRANCH   7  18
ATOM     18  C   UNL     1       6.228   2.558   1.221  0.00  0.00    +0.020 C 
BRANCH  18  27
ATOM     19  C   UNL     1       8.240   1.888   0.050  0.00  0.00    -0.072 C 
ATOM     20  C   UNL     1       9.772   1.994   0.140  0.00  0.00    +0.024 C 
ATOM     21  C   UNL     1      10.131   3.443   0.075  0.00  0.00    -0.010 A 
ATOM     22  C   UNL     1       9.283   4.499   0.223  0.00  0.00    -0.051 A 
ATOM     23  C   UNL     1       9.847   5.769   0.120  0.00  0.00    +0.010 A 
ATOM     24  C   UNL     1      11.173   5.904  -0.115  0.00  0.00    +0.045 A 
ATOM     25  S   UNL     1      11.707   4.200  -0.205  0.00  0.00    -0.101 S 
ATOM     26  C   UNL     1       7.802   4.245   0.488  0.00  0.00    -0.033 C 
ATOM     27  N   UNL     1       7.656   2.862   1.003  0.00  0.00    +0.390 N 
ATOM     28  H   UNL     1       8.153   2.788   1.898  0.00  0.00    -0.080 HD
BRANCH  26  29
ATOM     29  C   UNL     1       7.291   5.221   1.549  0.00  0.00    -0.020 C 
ATOM     30  C   UNL     1       5.940   5.893   1.299  0.00  0.00    +0.002 C 
ATOM     31  C   UNL     1       7.232   6.704   1.175  0.00  0.00    +0.002 C 
ENDBRANCH  26  29
ENDBRANCH  18  27
ENDBRANCH   7  18
TORSDOF 5
