REMARK  Name = ZINC25480916
REMARK  3 active torsions:
REMARK  status: ('A' for Active; 'I' for Inactive)
REMARK    1  A    between atoms: C_1  and  C_2
REMARK    2  A    between atoms: N_8  and  C_9
REMARK    3  A    between atoms: C_9  and  N_10
REMARK                            x       y       z     vdW  Elec       q    Type
REMARK                         _______ _______ _______ _____ _____    ______ ____
ROOT
ATOM      1  N   UNL     1       4.572   0.751  -0.037  0.00  0.00    -0.220 N 
ATOM      2  C   UNL     1       3.796   1.849  -0.024  0.00  0.00    +0.255 C 
ATOM      3  O   UNL     1       4.193   2.997  -0.021  0.00  0.00    -0.269 OA
ATOM      4  C   UNL     1       2.381   1.426  -0.013  0.00  0.00    +0.051 A 
ATOM      5  C   UNL     1       1.170   2.099   0.002  0.00  0.00    +0.035 A 
ATOM      6  C   UNL     1      -0.017   1.381   0.010  0.00  0.00    +0.060 A 
ATOM      7  C   UNL     1       0.002  -0.004   0.002  0.00  0.00    +0.060 A 
ATOM      8  C   UNL     1       1.208  -0.690  -0.014  0.00  0.00    +0.035 A 
ATOM      9  C   UNL     1       2.400   0.016  -0.021  0.00  0.00    +0.051 A 
ATOM     10  C   UNL     1       3.826  -0.369  -0.037  0.00  0.00    +0.255 C 
ATOM     11  O   UNL     1       4.254  -1.506  -0.047  0.00  0.00    -0.269 OA
ATOM     12 CL   UNL     1      -1.493  -0.887   0.011  0.00  0.00    -0.082 Cl
ATOM     13 CL   UNL     1      -1.535   2.223   0.021  0.00  0.00    -0.082 Cl
ENDROOT
BRANCH   1  14
ATOM     14  C   UNL     1       6.037   0.771  -0.051  0.00  0.00    +0.204 C 
BRANCH  14  21
ATOM     15  C   UNL     1       8.828   1.011   0.487  0.00  0.00    +0.026 C 
ATOM     16  C   UNL     1       7.896   0.207   1.396  0.00  0.00    +0.081 C 
ATOM     17  C   UNL     1       8.403   0.279   2.839  0.00  0.00    +0.178 C 
ATOM     18  O   UNL     1       7.488  -0.411   3.695  0.00  0.00    -0.377 OA
ATOM     19  C   UNL     1       6.157   0.111   3.656  0.00  0.00    +0.175 C 
ATOM     20  C   UNL     1       5.628   0.037   2.221  0.00  0.00    +0.114 C 
ATOM     21  N   UNL     1       6.539   0.769   1.330  0.00  0.00    -0.279 NA
ENDBRANCH  14  21
ENDBRANCH   1  14
TORSDOF 2
