REMARK  Name = ZINC39684596
REMARK  10 active torsions:
REMARK  status: ('A' for Active; 'I' for Inactive)
REMARK    1  A    between atoms: C_1  and  C_2
REMARK    2  A    between atoms: C_2  and  C_4
REMARK    3  A    between atoms: C_2  and  N_8
REMARK    4  A    between atoms: C_4  and  C_5
REMARK    5  A    between atoms: C_4  and  C_6
REMARK    6  A    between atoms: C_4  and  C_7
REMARK    7  A    between atoms: C_9  and  C_11
REMARK    8  A    between atoms: C_22  and  C_24
REMARK    9  A    between atoms: C_29  and  O_30
REMARK   10  A    between atoms: O_30  and  C_31
REMARK                            x       y       z     vdW  Elec       q    Type
REMARK                         _______ _______ _______ _____ _____    ______ ____
ROOT
ATOM      1  C   UNL     1       2.798  -1.622   2.602  0.00  0.00    +0.100 C 
ATOM      2  C   UNL     1       2.654  -0.450   3.598  0.00  0.00    +0.121 C 
ATOM      3  N   UNL     1       3.987  -0.333   4.235  0.00  0.00    -0.296 N 
ATOM      4  C   UNL     1       4.946  -0.570   3.129  0.00  0.00    +0.115 C 
ATOM      5  C   UNL     1       4.304  -1.697   2.296  0.00  0.00    -0.004 C 
ATOM      6  C   UNL     1       4.553  -1.460   0.809  0.00  0.00    -0.010 C 
ATOM      7  C   UNL     1       6.051  -1.598   0.520  0.00  0.00    -0.082 C 
ATOM      8  N   UNL     1       6.505  -2.939   0.905  0.00  0.00    +0.379 N 
ATOM      9  C   UNL     1       6.347  -3.124   2.353  0.00  0.00    -0.082 C 
ATOM     10  C   UNL     1       4.862  -3.051   2.720  0.00  0.00    -0.010 C 
ATOM     11  C   UNL     1       4.265  -0.071   5.528  0.00  0.00    +0.252 C 
ATOM     12  O   UNL     1       5.417   0.087   5.882  0.00  0.00    -0.270 OA
ATOM     13  H   UNL     1       5.956  -3.632   0.418  0.00  0.00    -0.086 HD
ATOM     14  H   UNL     1       7.477  -3.048   0.658  0.00  0.00    -0.086 HD
ENDROOT
BRANCH  11  15
ATOM     15  C   UNL     1       3.171   0.023   6.513  0.00  0.00    +0.099 A 
ATOM     16  C   UNL     1       1.929   0.558   6.149  0.00  0.00    +0.020 A 
ATOM     17  C   UNL     1       0.936   0.624   7.110  0.00  0.00    +0.021 A 
ATOM     18  C   UNL     1       1.195   0.165   8.389  0.00  0.00    +0.114 A 
ATOM     19  N   UNL     1       2.372  -0.334   8.710  0.00  0.00    -0.220 NA
ATOM     20  C   UNL     1       3.354  -0.426   7.829  0.00  0.00    +0.233 A 
BRANCH  20  21
ATOM     21  O   UNL     1       4.546  -0.951   8.201  0.00  0.00    -0.437 OA
BRANCH  21  22
ATOM     22  C   UNL     1       4.716  -1.285   9.508  0.00  0.00    +0.130 A 
ATOM     23  C   UNL     1       4.170  -2.461  10.001  0.00  0.00    +0.048 A 
ATOM     24  C   UNL     1       4.345  -2.798  11.329  0.00  0.00    +0.023 A 
ATOM     25  C   UNL     1       5.063  -1.964  12.167  0.00  0.00    +0.041 A 
ATOM     26  C   UNL     1       5.608  -0.790  11.677  0.00  0.00    +0.023 A 
ATOM     27  C   UNL     1       5.441  -0.452  10.348  0.00  0.00    +0.048 A 
ATOM     28 CL   UNL     1       5.281  -2.390  13.836  0.00  0.00    -0.084 Cl
ENDBRANCH  21  22
ENDBRANCH  20  21
ENDBRANCH  11  15
BRANCH   1  30
ATOM     29  N   UNL     1       1.522  -2.358   0.615  0.00  0.00    -0.312 N 
ATOM     30  C   UNL     1       2.020  -1.339   1.343  0.00  0.00    +0.218 C 
ATOM     31  O   UNL     1       1.842  -0.194   0.984  0.00  0.00    -0.275 OA
ATOM     32  H   UNL     1       1.665  -3.274   0.902  0.00  0.00    +0.149 HD
BRANCH  29  34
ATOM     33  C   UNL     1      -0.698  -1.815  -0.255  0.00  0.00    +0.028 C 
ATOM     34  C   UNL     1       0.766  -2.083  -0.609  0.00  0.00    +0.075 C 
BRANCH  34  35
ATOM     35  C   UNL     1       0.851  -3.292  -1.544  0.00  0.00    -0.020 C 
ATOM     36  C   UNL     1       0.061  -3.005  -2.822  0.00  0.00    +0.012 C 
ATOM     37  C   UNL     1       2.315  -3.561  -1.898  0.00  0.00    +0.012 C 
ATOM     38  C   UNL     1       0.262  -4.519  -0.845  0.00  0.00    +0.012 C 
ENDBRANCH  34  35
ENDBRANCH  29  34
ENDBRANCH   1  30
TORSDOF 6
