REMARK  Name = ZINC48710889
REMARK  4 active torsions:
REMARK  status: ('A' for Active; 'I' for Inactive)
REMARK    1  A    between atoms: C_3  and  C_12
REMARK    2  A    between atoms: C_12  and  N_13
REMARK    3  A    between atoms: N_13  and  C_14
REMARK    4  A    between atoms: C_20  and  C_22
REMARK                            x       y       z     vdW  Elec       q    Type
REMARK                         _______ _______ _______ _____ _____    ______ ____
ROOT
ATOM      1  N   UNL     1       3.451   2.857  -1.854  0.00  0.00    +0.384 N 
ATOM      2  H   UNL     1       3.427   1.956  -2.307  0.00  0.00    -0.085 HD
ATOM      3  H   UNL     1       2.896   3.514  -2.382  0.00  0.00    -0.085 HD
ENDROOT
BRANCH   1   4
ATOM      4  C   UNL     1       4.839   3.333  -1.785  0.00  0.00    -0.068 C 
ATOM      5  C   UNL     1       4.863   4.752  -1.210  0.00  0.00    +0.003 C 
ATOM      6  C   UNL     1       6.314   5.232  -1.107  0.00  0.00    +0.106 C 
ATOM      7  N   UNL     1       6.949   5.105  -2.426  0.00  0.00    -0.295 N 
ATOM      8  C   UNL     1       6.904   3.805  -3.109  0.00  0.00    +0.106 C 
ATOM      9  C   UNL     1       5.446   3.340  -3.190  0.00  0.00    +0.003 C 
ATOM     10  C   UNL     1       7.561   6.161  -2.998  0.00  0.00    +0.282 C 
ATOM     11  O   UNL     1       7.479   7.262  -2.486  0.00  0.00    -0.267 OA
BRANCH  10  12
ATOM     12  C   UNL     1       8.324   5.982  -4.237  0.00  0.00    +0.189 A 
ATOM     13  C   UNL     1       8.866   6.980  -4.996  0.00  0.00    +0.054 A 
ATOM     14  C   UNL     1       9.505   6.359  -6.081  0.00  0.00    +0.042 A 
ATOM     15  C   UNL     1       9.328   5.027  -5.939  0.00  0.00    +0.196 A 
ATOM     16  O   UNL     1       8.620   4.804  -4.824  0.00  0.00    -0.458 OA
ENDBRANCH  10  12
ENDBRANCH   1   4
BRANCH   1  17
ATOM     17  C   UNL     1       2.906   2.736  -0.495  0.00  0.00    -0.043 C 
BRANCH  17  20
ATOM     18  C   UNL     1      -0.873   2.694  -0.510  0.00  0.00    +0.004 A 
ATOM     19  C   UNL     1       0.434   3.141  -0.445  0.00  0.00    +0.005 A 
ATOM     20  C   UNL     1       1.483   2.247  -0.566  0.00  0.00    -0.019 A 
ATOM     21  C   UNL     1       1.218   0.901  -0.754  0.00  0.00    +0.163 A 
ATOM     22  C   UNL     1      -0.093   0.452  -0.820  0.00  0.00    +0.162 A 
ATOM     23  C   UNL     1      -1.140   1.350  -0.698  0.00  0.00    +0.049 A 
ATOM     24  O   UNL     1      -0.343  -0.877  -1.004  0.00  0.00    -0.488 OA
ATOM     25  C   UNL     1       0.014  -1.408  -2.281  0.00  0.00    +0.232 C 
ATOM     26  C   UNL     1       1.485  -1.794  -2.313  0.00  0.00    +0.082 C 
ATOM     27  C   UNL     1       2.403  -0.592  -2.161  0.00  0.00    +0.232 C 
ATOM     28  O   UNL     1       2.243   0.008  -0.873  0.00  0.00    -0.488 OA
ENDBRANCH  17  20
ENDBRANCH   1  17
TORSDOF 4
