REMARK  Name = ZINC66981238
REMARK  4 active torsions:
REMARK  status: ('A' for Active; 'I' for Inactive)
REMARK    1  A    between atoms: C_1  and  C_2
REMARK    2  A    between atoms: N_10  and  C_11
REMARK    3  A    between atoms: C_13  and  N_19
REMARK    4  A    between atoms: C_20  and  C_22
REMARK                            x       y       z     vdW  Elec       q    Type
REMARK                         _______ _______ _______ _____ _____    ______ ____
ROOT
ATOM      1  C   UNL     1       4.031  -4.588   1.089  0.00  0.00    +0.072 A 
ATOM      2  C   UNL     1       4.611  -4.940  -0.121  0.00  0.00    +0.052 A 
ATOM      3  C   UNL     1       5.707  -5.790  -0.140  0.00  0.00    +0.071 A 
ATOM      4  C   UNL     1       6.222  -6.287   1.053  0.00  0.00    +0.147 A 
ATOM      5  C   UNL     1       5.641  -5.935   2.257  0.00  0.00    +0.080 A 
ATOM      6  C   UNL     1       4.551  -5.082   2.279  0.00  0.00    +0.147 A 
ATOM      7  F   UNL     1       3.989  -4.735   3.458  0.00  0.00    -0.203 F 
ATOM      8  F   UNL     1       7.289  -7.115   1.035  0.00  0.00    -0.203 F 
ENDROOT
BRANCH   1  18
ATOM      9  C   UNL     1      -0.076   1.396  -0.482  0.00  0.00    +0.007 C 
ATOM     10  C   UNL     1      -0.065  -0.115  -0.243  0.00  0.00    -0.011 C 
ATOM     11  C   UNL     1       0.485  -0.824  -1.483  0.00  0.00    +0.022 C 
ATOM     12  C   UNL     1       0.462  -2.338  -1.253  0.00  0.00    +0.109 C 
ATOM     13  N   UNL     1       1.191  -2.639  -0.013  0.00  0.00    -0.285 N 
ATOM     14  C   UNL     1       0.803  -1.944   1.222  0.00  0.00    +0.109 C 
ATOM     15  C   UNL     1       0.821  -0.434   0.964  0.00  0.00    +0.022 C 
ATOM     16  C   UNL     1       2.197  -3.536  -0.008  0.00  0.00    +0.307 C 
ATOM     17  O   UNL     1       2.450  -4.172  -1.014  0.00  0.00    -0.252 OA
ATOM     18  N   UNL     1       2.923  -3.729   1.111  0.00  0.00    -0.267 N 
ATOM     19  H   UNL     1       2.679  -3.273   1.931  0.00  0.00    +0.156 HD
ENDBRANCH   1  18
BRANCH   3  20
ATOM     20  N   UNL     1       6.296  -6.148  -1.361  0.00  0.00    -0.283 N 
ATOM     21  C   UNL     1       6.141  -5.358  -2.441  0.00  0.00    +0.214 C 
ATOM     22  O   UNL     1       5.575  -4.290  -2.335  0.00  0.00    -0.276 OA
ATOM     23  C   UNL     1       6.671  -5.800  -3.780  0.00  0.00    +0.109 C 
ATOM     24  H   UNL     1       6.814  -6.965  -1.428  0.00  0.00    +0.155 HD
ENDBRANCH   3  20
TORSDOF 2
