REMARK  Name = ZINC08518755
REMARK  2 active torsions:
REMARK  status: ('A' for Active; 'I' for Inactive)
REMARK    1  A    between atoms: C_4  and  C_7
REMARK    2  A    between atoms: C_12  and  C_18
REMARK                            x       y       z     vdW  Elec       q    Type
REMARK                         _______ _______ _______ _____ _____    ______ ____
ROOT
ATOM      1  C   UNL     1       3.711  -0.707  -0.038  0.00  0.00    +0.032 C 
ATOM      2  C   UNL     1       3.817  -1.598   1.202  0.00  0.00    +0.060 C 
ATOM      3  C   UNL     1       5.112  -2.371   1.161  0.00  0.00    +0.021 C 
ATOM      4  C   UNL     1       5.662  -2.721  -0.024  0.00  0.00    +0.037 C 
ATOM      5  C   UNL     1       6.960  -3.502  -0.007  0.00  0.00    +0.140 C 
ATOM      6  N   UNL     1       7.529  -3.819   1.314  0.00  0.00    -0.288 N 
ATOM      7  C   UNL     1       6.867  -3.400   2.410  0.00  0.00    +0.304 C 
ATOM      8  O   UNL     1       7.327  -3.654   3.506  0.00  0.00    -0.252 OA
ATOM      9  N   UNL     1       5.721  -2.714   2.336  0.00  0.00    -0.273 N 
ATOM     10  C   UNL     1       5.071  -2.382  -1.246  0.00  0.00    +0.163 C 
ATOM     11  O   UNL     1       5.596  -2.730  -2.285  0.00  0.00    -0.292 OA
ATOM     12  C   UNL     1       3.791  -1.587  -1.290  0.00  0.00    +0.088 C 
ATOM     13  H   UNL     1       8.358  -4.317   1.393  0.00  0.00    +0.151 HD
ATOM     14  H   UNL     1       5.298  -2.443   3.165  0.00  0.00    +0.156 HD
ENDROOT
BRANCH   1  18
ATOM     15  C   UNL     1      -0.017   1.378   0.010  0.00  0.00    +0.000 A 
ATOM     16  C   UNL     1       1.171   2.086   0.002  0.00  0.00    +0.000 A 
ATOM     17  C   UNL     1       2.377   1.411  -0.013  0.00  0.00    +0.004 A 
ATOM     18  C   UNL     1       2.396   0.029  -0.020  0.00  0.00    -0.044 A 
ATOM     19  C   UNL     1       1.208  -0.679  -0.012  0.00  0.00    +0.004 A 
ATOM     20  C   UNL     1       0.002  -0.004   0.002  0.00  0.00    +0.000 A 
ENDBRANCH   1  18
BRANCH   5  21
ATOM     21  C   UNL     1       7.987  -2.713  -0.777  0.00  0.00    -0.023 A 
ATOM     22  C   UNL     1       8.640  -1.654  -0.175  0.00  0.00    +0.006 A 
ATOM     23  C   UNL     1       9.582  -0.930  -0.881  0.00  0.00    +0.000 A 
ATOM     24  C   UNL     1       9.871  -1.265  -2.191  0.00  0.00    +0.000 A 
ATOM     25  C   UNL     1       9.219  -2.325  -2.793  0.00  0.00    +0.000 A 
ATOM     26  C   UNL     1       8.280  -3.051  -2.085  0.00  0.00    +0.006 A 
ENDBRANCH   5  21
TORSDOF 2
