REMARK  Name = ZINC37061266
REMARK  6 active torsions:
REMARK  status: ('A' for Active; 'I' for Inactive)
REMARK    1  A    between atoms: C_1  and  C_2
REMARK    2  A    between atoms: C_3  and  N_11
REMARK    3  A    between atoms: C_7  and  N_8
REMARK    4  A    between atoms: N_11  and  C_12
REMARK    5  A    between atoms: C_12  and  C_14
REMARK    6  A    between atoms: C_12  and  C_15
REMARK                            x       y       z     vdW  Elec       q    Type
REMARK                         _______ _______ _______ _____ _____    ______ ____
ROOT
ATOM      1  N   UNL     1      -0.720  -0.045  -2.327  0.00  0.00    -0.337 N 
ATOM      2  H   UNL     1      -0.908   0.906  -2.297  0.00  0.00    +0.147 HD
ENDROOT
BRANCH   1   5
ATOM      3  C   UNL     1      -0.538   1.447   0.089  0.00  0.00    +0.048 C 
ATOM      4  C   UNL     1      -0.246  -0.031   0.040  0.00  0.00    +0.001 A 
ATOM      5  C   UNL     1      -0.348  -0.720  -1.163  0.00  0.00    +0.033 A 
ATOM      6  C   UNL     1      -0.078  -2.082  -1.204  0.00  0.00    +0.023 A 
ATOM      7  C   UNL     1       0.290  -2.746  -0.050  0.00  0.00    +0.004 A 
ATOM      8  C   UNL     1       0.389  -2.058   1.145  0.00  0.00    +0.033 A 
ATOM      9  C   UNL     1       0.127  -0.700   1.188  0.00  0.00    +0.131 A 
BRANCH   9  10
ATOM     10  N   UNL     1       0.241   0.034   2.468  0.00  0.00    +0.057 N 
ATOM     11  O   UNL     1       0.675   1.163   2.481  0.00  0.00    -0.126 OA
ATOM     12  O   UNL     1      -0.101  -0.494   3.500  0.00  0.00    -0.126 OA
ENDBRANCH   9  10
ENDBRANCH   1   5
BRANCH   1  13
ATOM     13  C   UNL     1      -0.826  -0.773  -3.594  0.00  0.00    +0.100 C 
ATOM     14  C   UNL     1       0.552  -0.851  -4.255  0.00  0.00    +0.033 C 
BRANCH  13  15
ATOM     15  C   UNL     1      -1.782  -0.053  -4.509  0.00  0.00    +0.008 A 
ATOM     16  C   UNL     1      -1.993   1.305  -4.358  0.00  0.00    +0.011 A 
ATOM     17  C   UNL     1      -2.869   1.967  -5.197  0.00  0.00    +0.039 A 
ATOM     18  C   UNL     1      -3.538   1.271  -6.190  0.00  0.00    +0.126 A 
ATOM     19  C   UNL     1      -3.328  -0.089  -6.342  0.00  0.00    +0.077 A 
ATOM     20  C   UNL     1      -2.446  -0.750  -5.505  0.00  0.00    +0.131 A 
ATOM     21  F   UNL     1      -2.236  -2.076  -5.655  0.00  0.00    -0.205 F 
ATOM     22  F   UNL     1      -4.395   1.918  -7.009  0.00  0.00    -0.205 F 
ENDBRANCH  13  15
ENDBRANCH   1  13
TORSDOF 4
