REMARK  Name = ZINC36312052
REMARK  5 active torsions:
REMARK  status: ('A' for Active; 'I' for Inactive)
REMARK    1  A    between atoms: C_3  and  N_9
REMARK    2  A    between atoms: C_10  and  C_12
REMARK    3  A    between atoms: C_12  and  C_14
REMARK    4  A    between atoms: C_12  and  N_19
REMARK    5  A    between atoms: C_25  and  C_27
REMARK                            x       y       z     vdW  Elec       q    Type
REMARK                         _______ _______ _______ _____ _____    ______ ____
ROOT
ATOM      1  C   UNL     1       4.899   4.176  -0.222  0.00  0.00    +0.023 C 
ENDROOT
BRANCH   1   2
ATOM      2  N   UNL     1       4.563   5.600  -0.352  0.00  0.00    +0.390 N 
ATOM      3  C   UNL     1       5.776   6.358  -0.683  0.00  0.00    -0.058 C 
ATOM      4  C   UNL     1       5.408   7.825  -0.932  0.00  0.00    +0.089 C 
ATOM      5  N   UNL     1       4.678   8.328   0.242  0.00  0.00    -0.305 N 
ATOM      6  C   UNL     1       3.543   7.539   0.744  0.00  0.00    +0.089 C 
ATOM      7  C   UNL     1       3.999   6.086   0.913  0.00  0.00    -0.058 C 
ATOM      8  C   UNL     1       5.040   9.480   0.842  0.00  0.00    +0.219 C 
ATOM      9  O   UNL     1       5.979  10.117   0.414  0.00  0.00    -0.275 OA
ATOM     10  H   UNL     1       3.884   5.718  -1.089  0.00  0.00    -0.081 HD
BRANCH   8  11
ATOM     11  C   UNL     1       4.277   9.976   2.043  0.00  0.00    +0.075 C 
ATOM     12  C   UNL     1       3.437  11.243   1.873  0.00  0.00    +0.013 C 
ATOM     13  C   UNL     1       4.737  11.289   2.679  0.00  0.00    +0.013 C 
ENDBRANCH   8  11
ENDBRANCH   1   2
BRANCH   1  14
ATOM     14  C   UNL     1       5.484   3.667  -1.541  0.00  0.00    -0.016 C 
ATOM     15  C   UNL     1       4.439   3.796  -2.668  0.00  0.00    +0.002 C 
ATOM     16  C   UNL     1       4.660   2.535  -3.539  0.00  0.00    +0.000 C 
ATOM     17  C   UNL     1       4.970   1.442  -2.485  0.00  0.00    +0.000 C 
ATOM     18  C   UNL     1       5.822   2.170  -1.425  0.00  0.00    +0.002 C 
ENDBRANCH   1  14
BRANCH   1  20
ATOM     19  N   UNL     1       3.742   2.260   0.833  0.00  0.00    -0.285 N 
ATOM     20  C   UNL     1       3.653   3.394   0.110  0.00  0.00    +0.204 C 
ATOM     21  O   UNL     1       2.572   3.786  -0.274  0.00  0.00    -0.277 OA
ATOM     22  H   UNL     1       4.603   1.966   1.170  0.00  0.00    +0.155 HD
BRANCH  19  25
ATOM     23  C   UNL     1       0.206   1.364   1.315  0.00  0.00    +0.040 A 
ATOM     24  C   UNL     1       1.341   2.108   1.053  0.00  0.00    +0.029 A 
ATOM     25  C   UNL     1       2.590   1.507   1.098  0.00  0.00    +0.069 A 
ATOM     26  C   UNL     1       2.699   0.155   1.407  0.00  0.00    +0.147 A 
ATOM     27  C   UNL     1       1.560  -0.586   1.668  0.00  0.00    +0.078 A 
ATOM     28  C   UNL     1       0.315   0.018   1.622  0.00  0.00    +0.126 A 
ATOM     29  F   UNL     1      -0.796  -0.707   1.877  0.00  0.00    -0.205 F 
ATOM     30  F   UNL     1       3.914  -0.433   1.452  0.00  0.00    -0.203 F 
ENDBRANCH  19  25
ENDBRANCH   1  20
TORSDOF 5
