REMARK  Name = ZINC33256012
REMARK  9 active torsions:
REMARK  status: ('A' for Active; 'I' for Inactive)
REMARK    1  A    between atoms: C_1  and  C_2
REMARK    2  A    between atoms: N_5  and  C_8
REMARK    3  A    between atoms: C_17  and  C_21
REMARK    4  A    between atoms: N_19  and  C_20
REMARK    5  A    between atoms: C_23  and  C_26
REMARK    6  A    between atoms: C_28  and  O_34
REMARK    7  A    between atoms: C_30  and  O_32
REMARK    8  A    between atoms: O_32  and  C_33
REMARK    9  A    between atoms: O_34  and  C_35
REMARK                            x       y       z     vdW  Elec       q    Type
REMARK                         _______ _______ _______ _____ _____    ______ ____
ROOT
ATOM      1  C   UNL     1      -0.175   1.034  -2.344  0.00  0.00    +0.067 A 
ATOM      2  C   UNL     1      -0.161  -0.340  -2.525  0.00  0.00    +0.052 A 
ATOM      3  C   UNL     1       0.385  -0.878  -3.684  0.00  0.00    +0.054 A 
ATOM      4  C   UNL     1       0.916  -0.014  -4.660  0.00  0.00    +0.049 A 
ATOM      5  C   UNL     1       0.894   1.369  -4.463  0.00  0.00    +0.054 A 
ATOM      6  C   UNL     1       0.350   1.884  -3.321  0.00  0.00    +0.145 A 
ATOM      7  F   UNL     1       0.324   3.222  -3.133  0.00  0.00    -0.204 F 
ATOM      8  C   UNL     1       1.490  -0.599  -5.883  0.00  0.00    +0.202 A 
ATOM      9  O   UNL     1       1.963   0.103  -6.760  0.00  0.00    -0.286 OA
ATOM     10  C   UNL     1       1.469  -2.065  -6.002  0.00  0.00    +0.103 A 
ATOM     11  C   UNL     1       0.922  -2.810  -4.981  0.00  0.00    +0.103 A 
ATOM     12  N   UNL     1       0.407  -2.243  -3.879  0.00  0.00    -0.349 N 
ATOM     13  C   UNL     1      -0.155  -3.109  -2.840  0.00  0.00    +0.149 C 
ENDROOT
BRANCH   1  18
ATOM     14  C   UNL     1      -1.532   3.608   2.488  0.00  0.00    +0.007 C 
ATOM     15  C   UNL     1      -0.764   3.110   1.262  0.00  0.00    -0.011 C 
ATOM     16  C   UNL     1      -0.729   1.579   1.267  0.00  0.00    +0.022 C 
ATOM     17  C   UNL     1      -0.013   1.086   0.008  0.00  0.00    +0.105 C 
ATOM     18  N   UNL     1      -0.723   1.572  -1.182  0.00  0.00    -0.328 N 
ATOM     19  C   UNL     1      -0.729   3.040  -1.234  0.00  0.00    +0.105 C 
ATOM     20  C   UNL     1      -1.466   3.591  -0.011  0.00  0.00    +0.022 C 
ENDBRANCH   1  18
BRANCH  10  21
ATOM     21  C   UNL     1       2.024  -2.726  -7.196  0.00  0.00    +0.264 A 
ATOM     22  N   UNL     1       2.570  -2.132  -8.244  0.00  0.00    -0.187 NA
ATOM     23  C   UNL     1       2.933  -3.131  -9.075  0.00  0.00    +0.203 A 
ATOM     24  N   UNL     1       2.589  -4.258  -8.507  0.00  0.00    -0.056 NA
ATOM     25  O   UNL     1       2.068  -4.047  -7.432  0.00  0.00    -0.332 OA
BRANCH  23  26
ATOM     26  C   UNL     1       3.595  -2.978 -10.395  0.00  0.00    +0.029 A 
ATOM     27  C   UNL     1       3.899  -1.709 -10.881  0.00  0.00    +0.057 A 
ATOM     28  C   UNL     1       4.521  -1.570 -12.111  0.00  0.00    +0.124 A 
ATOM     29  C   UNL     1       4.832  -2.693 -12.863  0.00  0.00    +0.091 A 
ATOM     30  C   UNL     1       4.526  -3.958 -12.385  0.00  0.00    +0.124 A 
ATOM     31  C   UNL     1       3.909  -4.104 -11.153  0.00  0.00    +0.057 A 
BRANCH  30  32
ATOM     32  O   UNL     1       4.833  -5.056 -13.124  0.00  0.00    -0.495 OA
ATOM     33  C   UNL     1       5.469  -4.833 -14.384  0.00  0.00    +0.277 C 
ENDBRANCH  30  32
BRANCH  28  34
ATOM     34  O   UNL     1       4.822  -0.332 -12.584  0.00  0.00    -0.495 OA
ATOM     35  C   UNL     1       5.458  -0.262 -13.862  0.00  0.00    +0.277 C 
ENDBRANCH  28  34
ENDBRANCH  23  26
ENDBRANCH  10  21
TORSDOF 5
