REMARK  Name = ZINC20973174
REMARK  6 active torsions:
REMARK  status: ('A' for Active; 'I' for Inactive)
REMARK    1  A    between atoms: C_1  and  C_2
REMARK    2  A    between atoms: C_4  and  C_11
REMARK    3  A    between atoms: C_7  and  N_8
REMARK    4  A    between atoms: N_13  and  C_14
REMARK    5  A    between atoms: C_17  and  C_20
REMARK    6  A    between atoms: C_20  and  C_25
REMARK                            x       y       z     vdW  Elec       q    Type
REMARK                         _______ _______ _______ _____ _____    ______ ____
ROOT
ATOM      1  C   UNL     1       3.432   1.288  -6.000  0.00  0.00    +0.248 C 
ATOM      2  O   UNL     1       3.708   0.627  -5.018  0.00  0.00    -0.270 OA
ATOM      3  N   UNL     1       2.247   1.926  -6.071  0.00  0.00    -0.282 N 
ATOM      4  H   UNL     1       1.961   2.453  -6.993  0.00  0.00    +0.155 HD
ENDROOT
BRANCH   1   8
ATOM      5  C   UNL     1       7.844   0.120  -8.016  0.00  0.00    +0.046 C 
ATOM      6  C   UNL     1       6.518   0.831  -8.091  0.00  0.00    -0.020 A 
ATOM      7  C   UNL     1       5.623   0.731  -7.045  0.00  0.00    +0.018 A 
ATOM      8  C   UNL     1       4.395   1.391  -7.116  0.00  0.00    +0.037 A 
ATOM      9  C   UNL     1       4.079   2.144  -8.248  0.00  0.00    +0.015 A 
ATOM     10  C   UNL     1       4.984   2.240  -9.284  0.00  0.00    +0.034 A 
ATOM     11  C   UNL     1       6.200   1.584  -9.207  0.00  0.00    +0.129 A 
BRANCH  11  12
ATOM     12  N   UNL     1       7.165   1.687 -10.325  0.00  0.00    +0.057 N 
ATOM     13  O   UNL     1       7.283   2.736 -10.933  0.00  0.00    -0.126 OA
ATOM     14  O   UNL     1       7.841   0.723 -10.637  0.00  0.00    -0.126 OA
ENDBRANCH  11  12
ENDBRANCH   1   8
BRANCH   3  15
ATOM     15  C   UNL     1       1.382   1.919  -4.973  0.00  0.00    +0.034 A 
ATOM     16  C   UNL     1       0.007   1.920  -5.170  0.00  0.00    +0.023 A 
ATOM     17  C   UNL     1      -0.845   1.913  -4.083  0.00  0.00    +0.007 A 
ATOM     18  C   UNL     1      -0.331   1.905  -2.799  0.00  0.00    -0.027 A 
ATOM     19  C   UNL     1       1.038   1.909  -2.599  0.00  0.00    +0.007 A 
ATOM     20  C   UNL     1       1.895   1.911  -3.682  0.00  0.00    +0.023 A 
BRANCH  18  21
ATOM     21  C   UNL     1      -1.263   1.897  -1.615  0.00  0.00    +0.082 C 
ATOM     22  C   UNL     1      -0.459   1.889  -0.292  0.00  0.00    +0.026 C 
ATOM     23  C   UNL     1      -1.464   2.481   0.728  0.00  0.00    +0.002 C 
ATOM     24  C   UNL     1      -2.206   3.577  -0.068  0.00  0.00    +0.002 C 
ATOM     25  C   UNL     1      -2.076   3.208  -1.556  0.00  0.00    +0.026 C 
BRANCH  21  26
ATOM     26  C   UNL     1      -2.164   0.735  -1.678  0.00  0.00    +0.074 C 
ATOM     27  N   UNL     1      -2.860  -0.162  -1.727  0.00  0.00    -0.196 NA
ENDBRANCH  21  26
ENDBRANCH  18  21
ENDBRANCH   3  15
TORSDOF 5
