REMARK  Name = ZINC02772568
REMARK  2 active torsions:
REMARK  status: ('A' for Active; 'I' for Inactive)
REMARK    1  A    between atoms: C_1  and  C_2
REMARK    2  A    between atoms: N_14  and  C_15
REMARK                            x       y       z     vdW  Elec       q    Type
REMARK                         _______ _______ _______ _____ _____    ______ ____
ROOT
ATOM      1  C   UNL     1      -0.959   2.116   1.041  0.00  0.00    +0.029 C 
ATOM      2  C   UNL     1       0.007   1.524   0.013  0.00  0.00    +0.084 C 
ATOM      3  C   UNL     1       0.043  -0.008   0.136  0.00  0.00    +0.059 C 
ATOM      4  C   UNL     1       1.479  -0.329   0.486  0.00  0.00    -0.024 A 
ATOM      5  C   UNL     1       2.107  -1.537   0.719  0.00  0.00    +0.005 A 
ATOM      6  C   UNL     1       3.454  -1.572   1.027  0.00  0.00    +0.000 A 
ATOM      7  C   UNL     1       4.173  -0.393   1.102  0.00  0.00    +0.002 A 
ATOM      8  C   UNL     1       3.551   0.815   0.870  0.00  0.00    +0.024 A 
ATOM      9  C   UNL     1       2.191   0.858   0.559  0.00  0.00    +0.041 A 
ATOM     10  N   UNL     1       1.377   1.964   0.291  0.00  0.00    -0.252 N 
ATOM     11  C   UNL     1       1.792   3.246   0.290  0.00  0.00    +0.311 C 
ATOM     12  O   UNL     1       2.928   3.518   0.627  0.00  0.00    -0.252 OA
ATOM     13  N   UNL     1       0.948   4.227  -0.086  0.00  0.00    -0.268 N 
ATOM     14  H   UNL     1       0.022   4.020  -0.285  0.00  0.00    +0.156 HD
ENDROOT
BRANCH  13  15
ATOM     15  C   UNL     1       1.408   5.545  -0.189  0.00  0.00    +0.053 A 
ATOM     16  C   UNL     1       2.768   5.801  -0.299  0.00  0.00    +0.025 A 
ATOM     17  C   UNL     1       3.219   7.102  -0.406  0.00  0.00    +0.002 A 
ATOM     18  C   UNL     1       2.318   8.151  -0.392  0.00  0.00    +0.002 A 
ATOM     19  C   UNL     1       0.963   7.901  -0.277  0.00  0.00    +0.022 A 
ATOM     20  C   UNL     1       0.505   6.601  -0.175  0.00  0.00    +0.062 A 
ATOM     21 CL   UNL     1      -1.196   6.288  -0.030  0.00  0.00    -0.082 Cl
ENDBRANCH  13  15
TORSDOF 1
