REMARK  Name = ZINC10106536
REMARK  8 active torsions:
REMARK  status: ('A' for Active; 'I' for Inactive)
REMARK    1  A    between atoms: C_1  and  C_2
REMARK    2  A    between atoms: C_7  and  C_8
REMARK    3  A    between atoms: N_11  and  C_12
REMARK    4  A    between atoms: C_12  and  C_14
REMARK    5  A    between atoms: N_20  and  C_21
REMARK    6  A    between atoms: C_21  and  C_22
REMARK    7  A    between atoms: C_22  and  S_23
REMARK    8  A    between atoms: S_23  and  C_24
REMARK                            x       y       z     vdW  Elec       q    Type
REMARK                         _______ _______ _______ _____ _____    ______ ____
ROOT
ATOM      1  C   UNL     1      -1.892  -3.304  -0.970  0.00  0.00    +0.044 C 
ATOM      2  C   UNL     1      -0.757  -2.394  -0.575  0.00  0.00    -0.046 A 
ATOM      3  C   UNL     1      -0.979  -1.040  -0.484  0.00  0.00    +0.030 A 
ATOM      4  C   UNL     1       0.057  -0.167  -0.118  0.00  0.00    +0.058 A 
ATOM      5  C   UNL     1       1.308  -0.745   0.144  0.00  0.00    +0.039 A 
ATOM      6  C   UNL     1       1.528  -2.099   0.053  0.00  0.00    +0.020 A 
ATOM      7  C   UNL     1       0.488  -2.937  -0.310  0.00  0.00    -0.046 A 
ATOM      8  C   UNL     1       0.710  -4.424  -0.416  0.00  0.00    +0.044 C 
ATOM      9  S   UNL     1       2.322   0.650   0.562  0.00  0.00    -0.052 S 
ATOM     10  C   UNL     1       1.126   1.894   0.388  0.00  0.00    +0.167 A 
ATOM     11  N   UNL     1       1.266   3.205   0.569  0.00  0.00    -0.154 NA
ATOM     12  N   UNL     1       0.011   1.208   0.022  0.00  0.00    -0.320 N 
ENDROOT
BRANCH  11  13
ATOM     13  C   UNL     1       0.193   3.988   0.615  0.00  0.00    +0.267 C 
ATOM     14  O   UNL     1      -0.613   3.862   1.516  0.00  0.00    -0.271 OA
BRANCH  13  15
ATOM     15  C   UNL     1      -0.024   5.031  -0.451  0.00  0.00    +0.206 C 
ATOM     16  C   UNL     1       1.048   6.135  -0.329  0.00  0.00    +0.043 C 
ATOM     17  C   UNL     1       0.231   7.422  -0.628  0.00  0.00    +0.031 C 
ATOM     18  C   UNL     1      -1.140   7.051  -0.007  0.00  0.00    +0.161 C 
ATOM     19  O   UNL     1      -1.304   5.649  -0.273  0.00  0.00    -0.367 OA
ENDBRANCH  13  15
ENDBRANCH  11  13
BRANCH  12  20
ATOM     20  C   UNL     1      -1.240   1.927  -0.231  0.00  0.00    +0.135 C 
BRANCH  20  21
ATOM     21  C   UNL     1      -1.763   1.567  -1.623  0.00  0.00    +0.090 C 
BRANCH  21  22
ATOM     22  S   UNL     1      -3.217   2.582  -2.004  0.00  0.00    -0.162 S 
ATOM     23  C   UNL     1      -3.798   1.936  -3.596  0.00  0.00    +0.084 C 
ENDBRANCH  21  22
ENDBRANCH  20  21
ENDBRANCH  12  20
TORSDOF 5
