REMARK  Name = ZINC04725262
REMARK  8 active torsions:
REMARK  status: ('A' for Active; 'I' for Inactive)
REMARK    1  A    between atoms: C_1  and  O_2
REMARK    2  A    between atoms: O_2  and  C_3
REMARK    3  A    between atoms: C_6  and  C_11
REMARK    4  A    between atoms: C_7  and  O_9
REMARK    5  A    between atoms: O_9  and  C_10
REMARK    6  A    between atoms: C_11  and  N_50
REMARK    7  A    between atoms: N_14  and  S_17
REMARK    8  A    between atoms: S_17  and  C_20
REMARK                            x       y       z     vdW  Elec       q    Type
REMARK                         _______ _______ _______ _____ _____    ______ ____
ROOT
ATOM      1  C   UNL     1      -2.076   3.886  -2.056  0.00  0.00    -0.061 C 
ATOM      2  C   UNL     1      -0.706   3.213  -1.915  0.00  0.00    +0.091 C 
ATOM      3  N   UNL     1      -0.897   1.885  -1.312  0.00  0.00    -0.180 NA
ATOM      4  C   UNL     1      -1.887   0.982  -1.919  0.00  0.00    +0.091 C 
ATOM      5  C   UNL     1      -3.215   1.745  -2.057  0.00  0.00    -0.061 C 
ATOM      6  N   UNL     1      -2.969   2.988  -2.820  0.00  0.00    +0.384 N 
ATOM      7  H   UNL     1      -2.517   2.748  -3.710  0.00  0.00    -0.081 HD
ENDROOT
BRANCH   3   8
ATOM      8  S   UNL     1      -0.017   1.417   0.010  0.00  0.00    +0.061 S 
ATOM      9  O   UNL     1       0.002  -0.004   0.002  0.00  0.00    -0.153 OA
ATOM     10  O   UNL     1       1.172   2.195   0.003  0.00  0.00    -0.153 OA
BRANCH   8  11
ATOM     11  C   UNL     1      -0.927   1.900   1.439  0.00  0.00    +0.106 A 
ATOM     12  C   UNL     1      -0.717   3.145   2.004  0.00  0.00    +0.030 A 
ATOM     13  C   UNL     1      -1.434   3.527   3.122  0.00  0.00    +0.022 A 
ATOM     14  C   UNL     1      -2.354   2.659   3.683  0.00  0.00    +0.041 A 
ATOM     15  C   UNL     1      -2.559   1.411   3.121  0.00  0.00    +0.022 A 
ATOM     16  C   UNL     1      -1.846   1.033   2.000  0.00  0.00    +0.030 A 
ATOM     17 CL   UNL     1      -3.251   3.135   5.091  0.00  0.00    -0.084 Cl
ENDBRANCH   8  11
ENDBRANCH   3   8
BRANCH   6  18
ATOM     18  C   UNL     1      -4.250   3.669  -3.100  0.00  0.00    -0.039 C 
BRANCH  18  22
ATOM     19  C   UNL     1      -7.054   0.814  -4.608  0.00  0.00    +0.124 A 
ATOM     20  C   UNL     1      -6.362   1.641  -5.482  0.00  0.00    +0.046 A 
ATOM     21  C   UNL     1      -5.456   2.562  -4.992  0.00  0.00    +0.009 A 
ATOM     22  C   UNL     1      -5.238   2.663  -3.631  0.00  0.00    -0.022 A 
ATOM     23  C   UNL     1      -5.924   1.836  -2.754  0.00  0.00    +0.125 A 
ATOM     24  C   UNL     1      -6.837   0.914  -3.243  0.00  0.00    +0.091 A 
BRANCH  19  26
ATOM     25  C   UNL     1      -8.117  -0.140  -6.509  0.00  0.00    +0.277 C 
ATOM     26  O   UNL     1      -7.944  -0.092  -5.091  0.00  0.00    -0.495 OA
ENDBRANCH  19  26
BRANCH  23  27
ATOM     27  O   UNL     1      -5.705   1.932  -1.416  0.00  0.00    -0.495 OA
ATOM     28  C   UNL     1      -6.447   1.049  -0.572  0.00  0.00    +0.277 C 
ENDBRANCH  23  27
ENDBRANCH  18  22
ENDBRANCH   6  18
TORSDOF 6
