REMARK  Name = ZINC29530983
REMARK  3 active torsions:
REMARK  status: ('A' for Active; 'I' for Inactive)
REMARK    1  A    between atoms: C_3  and  O_22
REMARK    2  A    between atoms: C_6  and  C_7
REMARK    3  A    between atoms: C_16  and  N_19
REMARK                            x       y       z     vdW  Elec       q    Type
REMARK                         _______ _______ _______ _____ _____    ______ ____
ROOT
ATOM      1  C   UNL     1      -6.792   5.908   1.085  0.00  0.00    +0.022 C 
ATOM      2  C   UNL     1      -5.869   6.278  -0.079  0.00  0.00    +0.027 C 
ATOM      3  C   UNL     1      -4.552   5.509   0.056  0.00  0.00    +0.107 C 
ATOM      4  N   UNL     1      -4.824   4.066   0.049  0.00  0.00    -0.315 N 
ATOM      5  C   UNL     1      -5.670   3.680   1.185  0.00  0.00    +0.107 C 
ATOM      6  C   UNL     1      -7.020   4.394   1.083  0.00  0.00    +0.027 C 
ATOM      7  C   UNL     1      -3.641   3.337   0.038  0.00  0.00    +0.121 A 
ATOM      8  C   UNL     1      -3.688   1.946   0.031  0.00  0.00    +0.046 A 
ATOM      9  C   UNL     1      -2.503   1.233   0.021  0.00  0.00    +0.037 A 
ATOM     10  C   UNL     1      -1.306   1.936   0.019  0.00  0.00    +0.144 A 
ATOM     11  C   UNL     1      -1.333   3.316   0.032  0.00  0.00    +0.145 A 
ATOM     12  N   UNL     1      -2.479   3.971   0.036  0.00  0.00    -0.238 NA
ENDROOT
BRANCH   1  18
ATOM     13  C   UNL     1      -8.883   6.394  -0.203  0.00  0.00    +0.007 A 
ATOM     14  C   UNL     1     -10.096   7.038  -0.349  0.00  0.00    +0.045 A 
ATOM     15  C   UNL     1     -10.537   7.917   0.630  0.00  0.00    +0.117 A 
ATOM     16  C   UNL     1      -9.759   8.142   1.757  0.00  0.00    +0.045 A 
ATOM     17  C   UNL     1      -8.550   7.491   1.902  0.00  0.00    +0.007 A 
ATOM     18  C   UNL     1      -8.113   6.616   0.924  0.00  0.00    -0.044 A 
BRANCH  15  19
ATOM     19  O   UNL     1     -11.727   8.556   0.485  0.00  0.00    -0.507 OA
ATOM     20  H   UNL     1     -12.075   9.252   1.262  0.00  0.00    +0.292 HD
ENDBRANCH  15  19
ENDBRANCH   1  18
BRANCH  10  21
ATOM     21  N   UNL     1      -0.014   1.214   0.009  0.00  0.00    +0.058 N 
ATOM     22  O   UNL     1       0.002  -0.004   0.002  0.00  0.00    -0.126 OA
ATOM     23  O   UNL     1       1.032   1.837   0.002  0.00  0.00    -0.126 OA
ENDBRANCH  10  21
TORSDOF 3
