REMARK  Name = ZINC21944712
REMARK  4 active torsions:
REMARK  status: ('A' for Active; 'I' for Inactive)
REMARK    1  A    between atoms: C_1  and  C_2
REMARK    2  A    between atoms: C_2  and  C_3
REMARK    3  A    between atoms: C_3  and  C_5
REMARK    4  A    between atoms: C_3  and  N_6
REMARK                            x       y       z     vdW  Elec       q    Type
REMARK                         _______ _______ _______ _____ _____    ______ ____
ROOT
ATOM      1  N   UNL     1      -6.019   4.164   1.715  0.00  0.00    -0.297 N 
ATOM      2  C   UNL     1      -5.049   3.474   2.347  0.00  0.00    +0.302 C 
ATOM      3  O   UNL     1      -5.184   3.167   3.516  0.00  0.00    -0.253 OA
ATOM      4  N   UNL     1      -3.929   3.123   1.684  0.00  0.00    -0.285 N 
ATOM      5  C   UNL     1      -2.817   2.469   2.386  0.00  0.00    +0.112 C 
ATOM      6  C   UNL     1      -1.533   3.261   2.123  0.00  0.00    +0.051 C 
ATOM      7  C   UNL     1      -1.329   3.410   0.616  0.00  0.00    +0.075 C 
ATOM      8  C   UNL     1      -2.504   4.173   0.004  0.00  0.00    +0.051 C 
ATOM      9  C   UNL     1      -3.798   3.389   0.244  0.00  0.00    +0.112 C 
ATOM     10  C   UNL     1      -0.044   4.151   0.344  0.00  0.00    +0.047 A 
ATOM     11  C   UNL     1       0.194   5.467   0.329  0.00  0.00    +0.025 A 
ATOM     12  C   UNL     1       1.569   5.644   0.059  0.00  0.00    +0.020 A 
ATOM     13  C   UNL     1       2.117   4.416  -0.086  0.00  0.00    +0.092 A 
ATOM     14  N   UNL     1       1.137   3.495   0.071  0.00  0.00    -0.316 N 
ATOM     15  C   UNL     1       1.194   2.094   0.004  0.00  0.00    +0.067 A 
ATOM     16  C   UNL     1       2.397   1.418  -0.039  0.00  0.00    +0.031 A 
ATOM     17  C   UNL     1       2.409   0.034  -0.057  0.00  0.00    +0.040 A 
ATOM     18  C   UNL     1       1.216  -0.670  -0.032  0.00  0.00    +0.125 A 
ATOM     19  C   UNL     1       0.007   0.002   0.003  0.00  0.00    +0.063 A 
ATOM     20  C   UNL     1      -0.013   1.388   0.011  0.00  0.00    +0.055 A 
ATOM     21  N   UNL     1      -1.230   2.080  -0.002  0.00  0.00    -0.331 N 
ATOM     22  F   UNL     1       1.234  -2.021  -0.040  0.00  0.00    -0.205 F 
ATOM     23  H   UNL     1      -5.935   4.369   0.638  0.00  0.00    +0.151 HD
ATOM     24  H   UNL     1      -2.114   1.627  -0.477  0.00  0.00    +0.147 HD
ENDROOT
BRANCH   1  25
ATOM     25  C   UNL     1      -7.184   4.642   2.463  0.00  0.00    +0.071 C 
ATOM     26  C   UNL     1      -6.856   5.986   3.116  0.00  0.00    +0.028 C 
BRANCH  25  28
ATOM     27  C   UNL     1      -8.775   3.449   0.951  0.00  0.00    +0.005 C 
ATOM     28  C   UNL     1      -8.367   4.814   1.509  0.00  0.00    +0.019 C 
ENDBRANCH  25  28
ENDBRANCH   1  25
TORSDOF 2
