REMARK  Name = ZINC14017489
REMARK  9 active torsions:
REMARK  status: ('A' for Active; 'I' for Inactive)
REMARK    1  A    between atoms: C_1  and  C_2
REMARK    2  A    between atoms: C_2  and  O_3
REMARK    3  A    between atoms: O_3  and  C_4
REMARK    4  A    between atoms: C_4  and  C_6
REMARK    5  A    between atoms: C_10  and  N_11
REMARK    6  A    between atoms: C_12  and  C_14
REMARK    7  A    between atoms: N_19  and  S_21
REMARK    8  A    between atoms: S_21  and  C_24
REMARK    9  A    between atoms: C_34  and  C_36
REMARK                            x       y       z     vdW  Elec       q    Type
REMARK                         _______ _______ _______ _____ _____    ______ ____
ROOT
ATOM      1  N   UNL     1       0.047  -0.247  -2.680  0.00  0.00    -0.279 N 
ATOM      2  C   UNL     1      -0.066   1.080  -2.472  0.00  0.00    +0.222 C 
ATOM      3  O   UNL     1       0.385   1.861  -3.282  0.00  0.00    -0.275 OA
ATOM      4  H   UNL     1      -0.314  -0.872  -2.031  0.00  0.00    +0.155 HD
ENDROOT
BRANCH   1   9
ATOM      5  C   UNL     1       0.890  -2.036  -4.207  0.00  0.00    +0.091 A 
ATOM      6  C   UNL     1       1.587  -2.264  -5.463  0.00  0.00    -0.018 A 
ATOM      7  C   UNL     1       1.953  -1.146  -6.125  0.00  0.00    +0.013 A 
ATOM      8  S   UNL     1       1.388   0.191  -5.112  0.00  0.00    -0.076 S 
ATOM      9  C   UNL     1       0.678  -0.719  -3.820  0.00  0.00    +0.086 A 
ATOM     10  C   UNL     1       2.675  -1.074  -7.437  0.00  0.00    +0.150 C 
ATOM     11  N   UNL     1       3.124  -2.442  -7.762  0.00  0.00    -0.297 N 
ATOM     12  C   UNL     1       2.181  -3.543  -7.513  0.00  0.00    +0.113 C 
ATOM     13  C   UNL     1       1.901  -3.649  -6.013  0.00  0.00    +0.056 C 
ATOM     14  C   UNL     1       4.351  -2.674  -8.268  0.00  0.00    +0.213 C 
ATOM     15  O   UNL     1       4.697  -3.807  -8.527  0.00  0.00    -0.276 OA
ATOM     16  C   UNL     1       5.295  -1.524  -8.511  0.00  0.00    +0.109 C 
BRANCH   5  17
ATOM     17  C   UNL     1       0.429  -3.153  -3.380  0.00  0.00    +0.342 C 
ATOM     18  O   UNL     1      -0.683  -3.616  -3.549  0.00  0.00    -0.245 OA
BRANCH  17  19
ATOM     19  O   UNL     1       1.238  -3.670  -2.433  0.00  0.00    -0.461 OA
BRANCH  19  21
ATOM     20  C   UNL     1       1.767  -5.225  -0.635  0.00  0.00    +0.048 C 
ATOM     21  C   UNL     1       0.715  -4.776  -1.651  0.00  0.00    +0.229 C 
ENDBRANCH  19  21
ENDBRANCH  17  19
ENDBRANCH   5  17
ENDBRANCH   1   9
BRANCH   2  22
ATOM     22  C   UNL     1      -0.752   1.593  -1.232  0.00  0.00    +0.091 C 
ATOM     23  C   UNL     1      -0.013   1.086   0.008  0.00  0.00    +0.015 C 
ATOM     24  C   UNL     1      -0.729   1.579   1.268  0.00  0.00    +0.018 C 
ATOM     25  C   UNL     1      -0.717   3.111   1.290  0.00  0.00    +0.109 C 
ATOM     26  N   UNL     1      -1.296   3.606   0.034  0.00  0.00    -0.176 NA
ATOM     27  C   UNL     1      -0.741   3.124  -1.238  0.00  0.00    +0.122 C 
BRANCH  26  28
ATOM     28  S   UNL     1      -2.550   4.687   0.052  0.00  0.00    +0.061 S 
ATOM     29  O   UNL     1      -2.486   5.363   1.300  0.00  0.00    -0.153 OA
ATOM     30  O   UNL     1      -2.510   5.376  -1.190  0.00  0.00    -0.153 OA
BRANCH  28  31
ATOM     31  C   UNL     1      -4.044   3.752   0.062  0.00  0.00    +0.105 A 
ATOM     32  C   UNL     1      -4.644   3.397  -1.132  0.00  0.00    +0.028 A 
ATOM     33  C   UNL     1      -5.813   2.659  -1.124  0.00  0.00    +0.002 A 
ATOM     34  C   UNL     1      -6.387   2.285   0.077  0.00  0.00    +0.000 A 
ATOM     35  C   UNL     1      -5.789   2.646   1.270  0.00  0.00    +0.002 A 
ATOM     36  C   UNL     1      -4.618   3.379   1.262  0.00  0.00    +0.028 A 
ENDBRANCH  28  31
ENDBRANCH  26  28
ENDBRANCH   2  22
TORSDOF 7
