REMARK  Name = ZINC09858668
REMARK  8 active torsions:
REMARK  status: ('A' for Active; 'I' for Inactive)
REMARK    1  A    between atoms: C_1  and  C_2
REMARK    2  A    between atoms: C_2  and  C_3
REMARK    3  A    between atoms: C_9  and  C_13
REMARK    4  A    between atoms: C_13  and  O_14
REMARK    5  A    between atoms: O_14  and  C_15
REMARK    6  A    between atoms: C_18  and  C_23
REMARK    7  A    between atoms: C_20  and  O_21
REMARK    8  A    between atoms: O_21  and  C_22
REMARK                            x       y       z     vdW  Elec       q    Type
REMARK                         _______ _______ _______ _____ _____    ______ ____
ROOT
ATOM      1  C   UNL     1      -8.355  -4.560  -1.321  0.00  0.00    +0.162 A 
ATOM      2  C   UNL     1      -9.307  -4.671  -0.318  0.00  0.00    +0.050 A 
ATOM      3  C   UNL     1     -10.375  -5.529  -0.469  0.00  0.00    +0.015 A 
ATOM      4  C   UNL     1     -10.501  -6.290  -1.634  0.00  0.00    +0.021 A 
ATOM      5  C   UNL     1      -9.542  -6.178  -2.644  0.00  0.00    +0.061 A 
ATOM      6  C   UNL     1      -8.477  -5.311  -2.488  0.00  0.00    +0.162 A 
ENDROOT
BRANCH   4   7
ATOM      7  C   UNL     1     -11.643  -7.210  -1.798  0.00  0.00    +0.142 A 
ATOM      8  N   UNL     1     -12.579  -7.307  -0.804  0.00  0.00    -0.306 N 
ATOM      9  H   UNL     1     -12.480  -6.769  -0.003  0.00  0.00    +0.170 HD
ATOM     10  C   UNL     1     -13.634  -8.135  -0.918  0.00  0.00    +0.260 A 
ATOM     11  O   UNL     1     -14.460  -8.211  -0.025  0.00  0.00    -0.267 OA
ATOM     12  C   UNL     1     -13.772  -8.926  -2.105  0.00  0.00    +0.075 A 
ATOM     13  C   UNL     1     -14.827  -9.883  -2.438  0.00  0.00    -0.023 A 
ATOM     14  C   UNL     1     -14.732 -10.508  -3.631  0.00  0.00    -0.004 A 
ATOM     15  S   UNL     1     -13.254  -9.868  -4.370  0.00  0.00    -0.073 S 
ATOM     16  C   UNL     1     -12.765  -8.761  -3.072  0.00  0.00    +0.116 A 
ATOM     17  N   UNL     1     -11.752  -7.922  -2.900  0.00  0.00    -0.222 NA
ATOM     18  C   UNL     1     -15.675 -11.523  -4.201  0.00  0.00    +0.043 C 
ATOM     19  C   UNL     1     -16.579 -12.033  -3.069  0.00  0.00    +0.005 C 
ATOM     20  C   UNL     1     -17.120 -10.829  -2.292  0.00  0.00    +0.005 C 
ATOM     21  C   UNL     1     -15.990 -10.175  -1.495  0.00  0.00    +0.037 C 
ENDBRANCH   4   7
BRANCH   6  22
ATOM     22  O   UNL     1      -7.545  -5.196  -3.472  0.00  0.00    -0.491 OA
ATOM     23  C   UNL     1      -7.733  -5.996  -4.641  0.00  0.00    +0.277 C 
ENDBRANCH   6  22
BRANCH   1  24
ATOM     24  O   UNL     1      -7.304  -3.713  -1.167  0.00  0.00    -0.482 OA
BRANCH  24  25
ATOM     25  C   UNL     1      -7.241  -2.973   0.054  0.00  0.00    +0.284 C 
BRANCH  25  32
ATOM     26  C   UNL     1      -1.412  -0.526   0.013  0.00  0.00    +0.102 A 
ATOM     27  N   UNL     1      -2.527   0.139   0.022  0.00  0.00    -0.159 NA
ATOM     28  N   UNL     1      -3.761  -0.504   0.030  0.00  0.00    -0.171 N 
ATOM     29  C   UNL     1      -4.996   0.078   0.040  0.00  0.00    +0.275 A 
ATOM     30  O   UNL     1      -5.098   1.295   0.041  0.00  0.00    -0.266 OA
ATOM     31  C   UNL     1      -6.140  -0.720   0.047  0.00  0.00    +0.099 A 
ATOM     32  C   UNL     1      -6.017  -2.093   0.045  0.00  0.00    +0.087 A 
ATOM     33  N   UNL     1      -4.799  -2.628   0.036  0.00  0.00    -0.223 NA
ATOM     34  C   UNL     1      -3.730  -1.872   0.029  0.00  0.00    +0.199 A 
ATOM     35  S   UNL     1      -1.984  -2.217   0.009  0.00  0.00    -0.033 S 
BRANCH  26  37
ATOM     36  C   UNL     1      -0.019   1.526   0.010  0.00  0.00    +0.011 C 
ATOM     37  C   UNL     1       0.002  -0.004   0.002  0.00  0.00    +0.061 C 
ENDBRANCH  26  37
ENDBRANCH  25  32
ENDBRANCH  24  25
ENDBRANCH   1  24
TORSDOF 6
