REMARK  Name = ZINC67518705
REMARK  4 active torsions:
REMARK  status: ('A' for Active; 'I' for Inactive)
REMARK    1  A    between atoms: C_1  and  C_2
REMARK    2  A    between atoms: C_4  and  C_13
REMARK    3  A    between atoms: C_7  and  N_8
REMARK    4  A    between atoms: C_25  and  C_28
REMARK                            x       y       z     vdW  Elec       q    Type
REMARK                         _______ _______ _______ _____ _____    ______ ____
ROOT
ATOM      1  C   UNL     1      -0.186  -2.818  -2.474  0.00  0.00    +0.247 C 
ATOM      2  O   UNL     1      -0.314  -2.223  -3.526  0.00  0.00    -0.270 OA
ATOM      3  N   UNL     1      -0.122  -4.164  -2.464  0.00  0.00    -0.294 N 
ATOM      4  C   UNL     1       0.156  -4.899  -1.221  0.00  0.00    +0.108 C 
ATOM      5  C   UNL     1       1.339  -5.844  -1.451  0.00  0.00    +0.019 C 
ATOM      6  C   UNL     1       1.059  -6.735  -2.666  0.00  0.00    +0.007 C 
ATOM      7  C   UNL     1       0.879  -5.855  -3.902  0.00  0.00    +0.010 C 
ATOM      8  C   UNL     1      -0.335  -4.937  -3.693  0.00  0.00    +0.079 C 
ATOM      9  C   UNL     1      -0.473  -4.006  -4.896  0.00  0.00    +0.023 C 
ATOM     10  C   UNL     1      -0.701  -4.848  -6.155  0.00  0.00    +0.005 C 
ATOM     11  C   UNL     1       0.480  -5.797  -6.366  0.00  0.00    -0.014 C 
ATOM     12  C   UNL     1       0.639  -6.712  -5.144  0.00  0.00    +0.008 C 
ATOM     13  C   UNL     1       0.232  -6.648  -7.613  0.00  0.00    +0.007 C 
ENDROOT
BRANCH   1  17
ATOM     14  C   UNL     1       1.404   1.160   0.080  0.00  0.00    +0.046 C 
ATOM     15  C   UNL     1       0.664  -0.151   0.027  0.00  0.00    -0.024 A 
ATOM     16  C   UNL     1       0.586  -0.851  -1.158  0.00  0.00    +0.018 A 
ATOM     17  C   UNL     1      -0.100  -2.066  -1.206  0.00  0.00    +0.037 A 
ATOM     18  C   UNL     1      -0.706  -2.568  -0.051  0.00  0.00    +0.015 A 
ATOM     19  C   UNL     1      -0.624  -1.864   1.130  0.00  0.00    +0.029 A 
ATOM     20  C   UNL     1       0.065  -0.657   1.175  0.00  0.00    +0.072 A 
BRANCH  20  21
ATOM     21  N   UNL     1       0.151   0.053   2.378  0.00  0.00    -0.200 N 
ATOM     22  C   UNL     1      -0.851   0.328   3.242  0.00  0.00    +0.250 A 
ATOM     23  N   UNL     1      -0.334   1.010   4.231  0.00  0.00    -0.116 NA
ATOM     24  N   UNL     1       0.925   1.185   4.051  0.00  0.00    -0.023 NA
ATOM     25  N   UNL     1       1.300   0.628   2.950  0.00  0.00    -0.039 NA
ENDBRANCH  20  21
ENDBRANCH   1  17
TORSDOF 2
