REMARK  Name = ZINC39523213
REMARK  5 active torsions:
REMARK  status: ('A' for Active; 'I' for Inactive)
REMARK    1  A    between atoms: C_1  and  C_2
REMARK    2  A    between atoms: C_2  and  C_3
REMARK    3  A    between atoms: C_2  and  S_4
REMARK    4  A    between atoms: S_4  and  C_7
REMARK    5  A    between atoms: N_19  and  O_20
REMARK                            x       y       z     vdW  Elec       q    Type
REMARK                         _______ _______ _______ _____ _____    ______ ____
ROOT
ATOM      1  C   UNL     1      -2.397   0.068  -1.507  0.00  0.00    +0.133 C 
ATOM      2  C   UNL     1      -1.593  -0.429  -2.711  0.00  0.00    +0.026 C 
ATOM      3  C   UNL     1      -2.181   0.161  -3.994  0.00  0.00    +0.004 C 
ATOM      4  C   UNL     1      -3.639  -0.280  -4.138  0.00  0.00    +0.025 C 
ATOM      5  C   UNL     1      -4.442   0.217  -2.934  0.00  0.00    +0.052 C 
ATOM      6  C   UNL     1      -3.854  -0.374  -1.650  0.00  0.00    +0.051 C 
ATOM      7  C   UNL     1      -4.370   1.745  -2.869  0.00  0.00    +0.025 C 
ATOM      8  C   UNL     1      -4.978   2.334  -4.145  0.00  0.00    +0.006 C 
ATOM      9  C   UNL     1      -6.421   1.842  -4.288  0.00  0.00    +0.055 C 
ATOM     10  C   UNL     1      -6.433   0.312  -4.312  0.00  0.00    +0.261 C 
ATOM     11  N   UNL     1      -5.842  -0.203  -3.071  0.00  0.00    -0.151 NA
ATOM     12  F   UNL     1      -7.751  -0.143  -4.425  0.00  0.00    -0.226 F 
ENDROOT
BRANCH   1  13
ATOM     13  S   UNL     1      -1.700  -0.632   0.015  0.00  0.00    -0.026 S 
ATOM     14  O   UNL     1      -1.658  -2.046  -0.118  0.00  0.00    -0.174 OA
ATOM     15  O   UNL     1      -2.381  -0.062   1.124  0.00  0.00    -0.174 OA
BRANCH  13  17
ATOM     16  C   UNL     1      -0.019   1.526   0.010  0.00  0.00    +0.031 C 
ATOM     17  C   UNL     1       0.002  -0.004   0.002  0.00  0.00    +0.125 C 
ATOM     18  C   UNL     1       0.742  -0.511   1.242  0.00  0.00    +0.031 C 
ENDBRANCH  13  17
ENDBRANCH   1  13
BRANCH  11  19
ATOM     19  O   UNL     1      -6.628   0.206  -1.907  0.00  0.00    -0.309 OA
ATOM     20  H   UNL     1      -7.560  -0.050  -1.952  0.00  0.00    +0.237 HD
ENDBRANCH  11  19
TORSDOF 3
