REMARK  Name = ZINC01384119
REMARK  3 active torsions:
REMARK  status: ('A' for Active; 'I' for Inactive)
REMARK    1  A    between atoms: C_1  and  C_2
REMARK    2  A    between atoms: C_2  and  N_3
REMARK    3  A    between atoms: C_4  and  C_19
REMARK                            x       y       z     vdW  Elec       q    Type
REMARK                         _______ _______ _______ _____ _____    ______ ____
ROOT
ATOM      1  N   UNL     1       0.605  -0.490   1.238  0.00  0.00    -0.274 N 
ATOM      2  C   UNL     1       2.061  -0.678   1.355  0.00  0.00    +0.146 C 
ATOM      3  C   UNL     1       2.583  -1.177   2.686  0.00  0.00    +0.047 C 
ATOM      4  C   UNL     1       1.684  -1.418   3.679  0.00  0.00    +0.052 C 
ATOM      5  C   UNL     1       2.421  -1.896   4.880  0.00  0.00    +0.007 A 
ATOM      6  C   UNL     1       2.011  -2.278   6.145  0.00  0.00    +0.010 A 
ATOM      7  C   UNL     1       2.953  -2.689   7.083  0.00  0.00    +0.001 A 
ATOM      8  C   UNL     1       4.292  -2.716   6.758  0.00  0.00    +0.001 A 
ATOM      9  C   UNL     1       4.714  -2.333   5.488  0.00  0.00    +0.012 A 
ATOM     10  C   UNL     1       3.786  -1.925   4.551  0.00  0.00    +0.031 A 
ATOM     11  C   UNL     1       3.892  -1.462   3.139  0.00  0.00    +0.194 C 
ATOM     12  O   UNL     1       4.916  -1.351   2.494  0.00  0.00    -0.287 OA
ATOM     13  N   UNL     1       0.342  -1.210   3.463  0.00  0.00    -0.268 N 
ATOM     14  C   UNL     1      -0.165  -0.764   2.309  0.00  0.00    +0.307 C 
ATOM     15  O   UNL     1      -1.367  -0.607   2.220  0.00  0.00    -0.252 OA
ATOM     16  H   UNL     1      -0.271  -1.391   4.192  0.00  0.00    +0.156 HD
ENDROOT
BRANCH   2  17
ATOM     17  C   UNL     1       2.725   0.643   1.062  0.00  0.00    +0.013 A 
ATOM     18  C   UNL     1       2.075   1.825   1.363  0.00  0.00    +0.008 A 
ATOM     19  C   UNL     1       2.684   3.037   1.095  0.00  0.00    +0.001 A 
ATOM     20  C   UNL     1       3.943   3.068   0.525  0.00  0.00    +0.003 A 
ATOM     21  C   UNL     1       4.595   1.887   0.224  0.00  0.00    +0.039 A 
ATOM     22  C   UNL     1       3.989   0.673   0.497  0.00  0.00    +0.129 A 
ATOM     23  F   UNL     1       4.627  -0.482   0.207  0.00  0.00    -0.205 F 
ENDBRANCH   2  17
BRANCH   1  25
ATOM     24  C   UNL     1      -0.457  -1.206  -0.846  0.00  0.00    +0.024 C 
ATOM     25  C   UNL     1       0.009  -0.011  -0.012  0.00  0.00    +0.107 C 
ENDBRANCH   1  25
TORSDOF 2
