REMARK  Name = ZINC32500212
REMARK  2 active torsions:
REMARK  status: ('A' for Active; 'I' for Inactive)
REMARK    1  A    between atoms: C_8  and  N_15
REMARK    2  A    between atoms: C_9  and  C_12
REMARK                            x       y       z     vdW  Elec       q    Type
REMARK                         _______ _______ _______ _____ _____    ______ ____
ROOT
ATOM      1  C   UNL     1      -1.194   1.717   0.087  0.00  0.00    +0.022 A 
ATOM      2  C   UNL     1      -0.001   1.059   0.056  0.00  0.00    +0.028 A 
ATOM      3  C   UNL     1       1.198   1.788   0.024  0.00  0.00    +0.048 A 
ATOM      4  C   UNL     1       1.143   3.201   0.031  0.00  0.00    +0.022 A 
ATOM      5  C   UNL     1      -0.099   3.849   0.069  0.00  0.00    +0.031 A 
ATOM      6  C   UNL     1      -1.245   3.108   0.100  0.00  0.00    +0.042 A 
ATOM      7 CL   UNL     1      -2.784   3.910   0.148  0.00  0.00    -0.084 Cl
ATOM      8  C   UNL     1       2.353   3.937  -0.002  0.00  0.00    +0.055 A 
ATOM      9  C   UNL     1       3.556   3.216  -0.039  0.00  0.00    +0.101 A 
ATOM     10  C   UNL     1       3.514   1.811  -0.043  0.00  0.00    +0.100 A 
ATOM     11  N   UNL     1       2.382   1.158  -0.012  0.00  0.00    -0.360 N 
ATOM     12  H   UNL     1       2.420   0.059  -0.016  0.00  0.00    +0.165 HD
ENDROOT
BRANCH   8  13
ATOM     13  N   UNL     1       2.348   5.314   0.003  0.00  0.00    -0.329 N 
ATOM     14  C   UNL     1       1.589   5.848  -1.157  0.00  0.00    +0.105 C 
ATOM     15  C   UNL     1       1.243   7.293  -0.719  0.00  0.00    +0.020 C 
ATOM     16  C   UNL     1       0.951   7.136   0.791  0.00  0.00    +0.020 C 
ATOM     17  C   UNL     1       1.667   5.838   1.206  0.00  0.00    +0.105 C 
ENDBRANCH   8  13
BRANCH   9  18
ATOM     18  C   UNL     1       4.845   3.922  -0.074  0.00  0.00    +0.390 C 
ATOM     19  O   UNL     1       4.878   5.133   0.022  0.00  0.00    -0.240 OA
ATOM     20  O   UNL     1       5.991   3.226  -0.212  0.00  0.00    -0.240 OA
ENDBRANCH   9  18
TORSDOF 2
