REMARK  Name = ZINC62959150
REMARK  2 active torsions:
REMARK  status: ('A' for Active; 'I' for Inactive)
REMARK    1  A    between atoms: C_2  and  C_16
REMARK    2  A    between atoms: C_16  and  O_17
REMARK                            x       y       z     vdW  Elec       q    Type
REMARK                         _______ _______ _______ _____ _____    ______ ____
ROOT
ATOM      1  C   UNL     1      -0.016   1.317   0.009  0.00  0.00    +0.126 A 
ATOM      2  C   UNL     1       1.182   1.950   0.001  0.00  0.00    +0.036 A 
ATOM      3  S   UNL     1       2.296   0.554  -0.017  0.00  0.00    -0.055 S 
ATOM      4  C   UNL     1       1.138  -0.668  -0.012  0.00  0.00    +0.161 A 
ATOM      5  N   UNL     1       0.002  -0.004   0.002  0.00  0.00    -0.233 NA
ATOM      6  N   UNL     1       1.335  -2.040  -0.022  0.00  0.00    -0.310 N 
ATOM      7  C   UNL     1       2.692  -2.601  -0.032  0.00  0.00    +0.107 C 
ATOM      8  C   UNL     1       2.817  -3.567  -1.215  0.00  0.00    +0.026 C 
ATOM      9  C   UNL     1       1.696  -4.597  -1.150  0.00  0.00    -0.026 C 
ATOM     10  C   UNL     1       1.835  -5.605  -2.310  0.00  0.00    +0.007 C 
ATOM     11  C   UNL     1       1.088  -6.851  -1.771  0.00  0.00    +0.001 C 
ATOM     12  C   UNL     1       1.440  -6.885  -0.269  0.00  0.00    +0.001 C 
ATOM     13  C   UNL     1       1.822  -5.446   0.125  0.00  0.00    +0.007 C 
ATOM     14  C   UNL     1       0.330  -3.922  -1.206  0.00  0.00    +0.026 C 
ATOM     15  C   UNL     1       0.188  -2.959  -0.016  0.00  0.00    +0.107 C 
ENDROOT
BRANCH   2  16
ATOM     16  C   UNL     1       1.490   3.425   0.006  0.00  0.00    +0.199 C 
BRANCH  16  17
ATOM     17  O   UNL     1       1.601   3.884   1.354  0.00  0.00    -0.390 OA
ATOM     18  H   UNL     1       1.798   4.827   1.434  0.00  0.00    +0.210 HD
ENDBRANCH  16  17
ENDBRANCH   2  16
TORSDOF 2
