REMARK  Name = ZINC44906570
REMARK  6 active torsions:
REMARK  status: ('A' for Active; 'I' for Inactive)
REMARK    1  A    between atoms: C_1  and  C_2
REMARK    2  A    between atoms: C_4  and  C_28
REMARK    3  A    between atoms: C_6  and  C_8
REMARK    4  A    between atoms: C_14  and  C_17
REMARK    5  A    between atoms: C_22  and  C_25
REMARK    6  A    between atoms: C_25  and  C_27
REMARK                            x       y       z     vdW  Elec       q    Type
REMARK                         _______ _______ _______ _____ _____    ______ ____
ROOT
ATOM      1  C   UNL     1       0.052  -2.845   2.458  0.00  0.00    +0.247 C 
ATOM      2  O   UNL     1       0.146  -2.227   1.416  0.00  0.00    -0.270 OA
ATOM      3  N   UNL     1      -0.053  -2.184   3.627  0.00  0.00    -0.297 N 
ATOM      4  C   UNL     1      -0.190  -0.721   3.650  0.00  0.00    +0.108 C 
ATOM      5  C   UNL     1       0.895  -0.139   4.561  0.00  0.00    +0.020 C 
ATOM      6  C   UNL     1       0.807  -0.799   5.939  0.00  0.00    +0.016 C 
ATOM      7  C   UNL     1       1.049  -2.304   5.801  0.00  0.00    +0.093 C 
ATOM      8  C   UNL     1      -0.040  -2.912   4.903  0.00  0.00    +0.120 C 
ENDROOT
BRANCH   7   9
ATOM      9  C   UNL     1       0.996  -2.949   7.162  0.00  0.00    +0.223 C 
ATOM     10  O   UNL     1       0.784  -2.273   8.146  0.00  0.00    -0.275 OA
ATOM     11  N   UNL     1       1.182  -4.279   7.285  0.00  0.00    -0.264 N 
ATOM     12  C   UNL     1       1.133  -4.873   8.539  0.00  0.00    +0.165 A 
ATOM     13  N   UNL     1       1.293  -6.138   8.861  0.00  0.00    -0.222 NA
ATOM     14  C   UNL     1       1.202  -6.485  10.150  0.00  0.00    +0.115 A 
ATOM     15  C   UNL     1       0.944  -5.498  11.081  0.00  0.00    +0.079 A 
ATOM     16  S   UNL     1       0.843  -4.116  10.128  0.00  0.00    -0.060 S 
ATOM     17  H   UNL     1       1.351  -4.820   6.498  0.00  0.00    +0.157 HD
BRANCH  14  18
ATOM     18  C   UNL     1       1.371  -7.879  10.564  0.00  0.00    +0.179 C 
ATOM     19  O   UNL     1       1.285  -8.178  11.737  0.00  0.00    -0.291 OA
ATOM     20  C   UNL     1       1.653  -8.942   9.534  0.00  0.00    +0.093 C 
ENDBRANCH  14  18
ENDBRANCH   7   9
BRANCH   1  26
ATOM     21  C   UNL     1      -1.751  -7.182   4.144  0.00  0.00    +0.044 C 
ATOM     22  C   UNL     1      -0.812  -6.413   3.252  0.00  0.00    -0.049 A 
ATOM     23  C   UNL     1       0.056  -7.093   2.415  0.00  0.00    +0.006 A 
ATOM     24  C   UNL     1       0.921  -6.395   1.591  0.00  0.00    -0.049 A 
ATOM     25  C   UNL     1       0.925  -5.015   1.600  0.00  0.00    +0.016 A 
ATOM     26  C   UNL     1       0.053  -4.324   2.442  0.00  0.00    +0.037 A 
ATOM     27  C   UNL     1      -0.822  -5.034   3.266  0.00  0.00    +0.016 A 
ATOM     28  C   UNL     1       1.863  -7.143   0.683  0.00  0.00    +0.044 C 
ENDBRANCH   1  26
TORSDOF 3
