REMARK  Name = ZINC08527987
REMARK  10 active torsions:
REMARK  status: ('A' for Active; 'I' for Inactive)
REMARK    1  A    between atoms: C_1  and  C_2
REMARK    2  A    between atoms: C_2  and  C_4
REMARK    3  A    between atoms: C_2  and  N_10
REMARK    4  A    between atoms: N_10  and  C_11
REMARK    5  A    between atoms: C_12  and  C_14
REMARK    6  A    between atoms: C_14  and  N_15
REMARK    7  A    between atoms: C_18  and  C_22
REMARK    8  A    between atoms: C_18  and  C_23
REMARK    9  A    between atoms: C_26  and  O_29
REMARK   10  A    between atoms: O_29  and  C_30
REMARK                            x       y       z     vdW  Elec       q    Type
REMARK                         _______ _______ _______ _____ _____    ______ ____
ROOT
ATOM      1  N   UNL     1       4.198  -1.859   1.638  0.00  0.00    -0.215 N 
ATOM      2  C   UNL     1       4.388  -3.185   1.488  0.00  0.00    +0.251 C 
ATOM      3  O   UNL     1       3.597  -4.070   1.731  0.00  0.00    -0.272 OA
ATOM      4  C   UNL     1       5.798  -3.338   0.951  0.00  0.00    +0.135 C 
ATOM      5  N   UNL     1       6.283  -1.951   0.852  0.00  0.00    -0.281 N 
ATOM      6  C   UNL     1       5.278  -1.160   1.270  0.00  0.00    +0.310 C 
ATOM      7  O   UNL     1       5.344   0.052   1.311  0.00  0.00    -0.252 OA
ATOM      8  C   UNL     1       5.779  -4.002  -0.427  0.00  0.00    +0.047 C 
ATOM      9  H   UNL     1       7.156  -1.663   0.542  0.00  0.00    +0.152 HD
ENDROOT
BRANCH   4  10
ATOM     10  C   UNL     1       6.647  -4.130   1.912  0.00  0.00    -0.015 A 
ATOM     11  C   UNL     1       6.067  -5.096   2.712  0.00  0.00    +0.010 A 
ATOM     12  C   UNL     1       6.843  -5.822   3.594  0.00  0.00    +0.046 A 
ATOM     13  C   UNL     1       8.207  -5.582   3.675  0.00  0.00    +0.120 A 
ATOM     14  C   UNL     1       8.788  -4.613   2.870  0.00  0.00    +0.046 A 
ATOM     15  C   UNL     1       8.008  -3.892   1.986  0.00  0.00    +0.010 A 
BRANCH  13  16
ATOM     16  O   UNL     1       8.974  -6.295   4.542  0.00  0.00    -0.495 OA
ATOM     17  C   UNL     1      10.370  -5.995   4.571  0.00  0.00    +0.277 C 
ENDBRANCH  13  16
ENDBRANCH   4  10
BRANCH   1  18
ATOM     18  C   UNL     1       2.959  -1.257   2.137  0.00  0.00    +0.213 C 
BRANCH  18  21
ATOM     19  N   UNL     1       0.828  -0.420   1.200  0.00  0.00    -0.296 N 
ATOM     20  C   UNL     1       0.414  -0.086   2.565  0.00  0.00    +0.132 C 
ATOM     21  C   UNL     1       2.035  -0.978   0.979  0.00  0.00    +0.234 C 
ATOM     22  O   UNL     1       2.377  -1.254  -0.151  0.00  0.00    -0.274 OA
BRANCH  19  24
ATOM     23  C   UNL     1      -0.492   1.322   0.102  0.00  0.00    +0.033 C 
ATOM     24  C   UNL     1      -0.071  -0.149   0.075  0.00  0.00    +0.103 C 
BRANCH  24  25
ATOM     25  C   UNL     1      -1.293  -1.024   0.186  0.00  0.00    -0.027 A 
ATOM     26  C   UNL     1      -2.055  -1.004   1.339  0.00  0.00    +0.005 A 
ATOM     27  C   UNL     1      -3.176  -1.806   1.441  0.00  0.00    +0.000 A 
ATOM     28  C   UNL     1      -3.535  -2.628   0.389  0.00  0.00    +0.000 A 
ATOM     29  C   UNL     1      -2.774  -2.647  -0.765  0.00  0.00    +0.000 A 
ATOM     30  C   UNL     1      -1.655  -1.841  -0.868  0.00  0.00    +0.005 A 
ENDBRANCH  24  25
ENDBRANCH  19  24
ENDBRANCH  18  21
ENDBRANCH   1  18
TORSDOF 6
