REMARK  Name = ZINC64002514
REMARK  8 active torsions:
REMARK  status: ('A' for Active; 'I' for Inactive)
REMARK    1  A    between atoms: C_1  and  C_2
REMARK    2  A    between atoms: C_4  and  C_12
REMARK    3  A    between atoms: C_12  and  C_14
REMARK    4  A    between atoms: C_14  and  C_16
REMARK    5  A    between atoms: C_14  and  O_17
REMARK    6  A    between atoms: O_17  and  C_18
REMARK    7  A    between atoms: C_18  and  C_20
REMARK    8  A    between atoms: N_23  and  C_25
REMARK                            x       y       z     vdW  Elec       q    Type
REMARK                         _______ _______ _______ _____ _____    ______ ____
ROOT
ATOM      1  C   UNL     1      -3.750  -1.043  -0.781  0.00  0.00    +0.244 C 
ATOM      2  C   UNL     1      -4.663  -0.245   0.153  0.00  0.00    +0.061 C 
ENDROOT
BRANCH   1   3
ATOM      3  C   UNL     1      -2.428  -0.333  -0.919  0.00  0.00    +0.202 C 
ATOM      4  O   UNL     1      -2.204   0.348  -1.899  0.00  0.00    -0.288 OA
BRANCH   3   7
ATOM      5  C   UNL     1      -0.141   1.664   0.033  0.00  0.00    +0.035 C 
ATOM      6  C   UNL     1      -0.060   0.137   0.098  0.00  0.00    +0.111 C 
ATOM      7  C   UNL     1      -1.451  -0.458   0.091  0.00  0.00    +0.030 C 
ATOM      8  C   UNL     1      -1.564  -1.153   1.283  0.00  0.00    +0.007 A 
ATOM      9  C   UNL     1      -2.608  -1.914   1.858  0.00  0.00    +0.010 A 
ATOM     10  C   UNL     1      -2.442  -2.495   3.067  0.00  0.00    +0.001 A 
ATOM     11  C   UNL     1      -1.251  -2.380   3.801  0.00  0.00    +0.002 A 
ATOM     12  C   UNL     1      -0.193  -1.676   3.342  0.00  0.00    +0.026 A 
ATOM     13  C   UNL     1      -0.291  -1.010   2.032  0.00  0.00    +0.043 A 
ATOM     14  N   UNL     1       0.556  -0.282   1.361  0.00  0.00    -0.377 N 
ATOM     15  H   UNL     1       1.454  -0.053   1.650  0.00  0.00    +0.160 HD
ENDBRANCH   3   7
ENDBRANCH   1   3
BRANCH   1  16
ATOM     16  O   UNL     1      -4.366  -1.158  -2.065  0.00  0.00    -0.450 OA
BRANCH  16  17
ATOM     17  C   UNL     1      -5.164  -2.224  -2.268  0.00  0.00    +0.343 C 
ATOM     18  O   UNL     1      -5.333  -3.035  -1.379  0.00  0.00    -0.245 OA
BRANCH  17  19
ATOM     19  C   UNL     1      -5.832  -2.407  -3.568  0.00  0.00    +0.097 A 
ATOM     20  C   UNL     1      -5.727  -1.557  -4.693  0.00  0.00    +0.149 A 
ATOM     21  N   UNL     1      -6.464  -2.056  -5.647  0.00  0.00    -0.174 NA
ATOM     22  N   UNL     1      -7.067  -3.232  -5.187  0.00  0.00    -0.239 N 
ATOM     23  C   UNL     1      -6.673  -3.446  -3.919  0.00  0.00    +0.129 A 
BRANCH  22  24
ATOM     24  C   UNL     1      -7.931  -4.052  -5.926  0.00  0.00    +0.065 A 
ATOM     25  C   UNL     1      -8.469  -5.194  -5.348  0.00  0.00    +0.028 A 
ATOM     26  C   UNL     1      -9.320  -6.000  -6.078  0.00  0.00    +0.002 A 
ATOM     27  C   UNL     1      -9.637  -5.671  -7.383  0.00  0.00    +0.000 A 
ATOM     28  C   UNL     1      -9.102  -4.535  -7.962  0.00  0.00    +0.002 A 
ATOM     29  C   UNL     1      -8.254  -3.721  -7.235  0.00  0.00    +0.028 A 
ENDBRANCH  22  24
ENDBRANCH  17  19
ENDBRANCH  16  17
ENDBRANCH   1  16
TORSDOF 6
