REMARK  Name = ZINC39633400
REMARK  5 active torsions:
REMARK  status: ('A' for Active; 'I' for Inactive)
REMARK    1  A    between atoms: C_1  and  O_2
REMARK    2  A    between atoms: O_2  and  C_3
REMARK    3  A    between atoms: C_8  and  C_9
REMARK    4  A    between atoms: C_13  and  C_22
REMARK    5  A    between atoms: N_24  and  C_25
REMARK                            x       y       z     vdW  Elec       q    Type
REMARK                         _______ _______ _______ _____ _____    ______ ____
ROOT
ATOM      1  C   UNL     1       0.275  -2.897  -0.114  0.00  0.00    +0.250 C 
ATOM      2  O   UNL     1       1.392  -2.432  -0.237  0.00  0.00    -0.270 OA
ATOM      3  N   UNL     1       0.109  -4.228   0.018  0.00  0.00    -0.296 N 
ATOM      4  C   UNL     1      -1.165  -4.983   0.070  0.00  0.00    +0.121 C 
ATOM      5  C   UNL     1      -0.892  -6.266  -0.747  0.00  0.00    +0.100 C 
ATOM      6  C   UNL     1       0.635  -6.447  -0.694  0.00  0.00    -0.004 C 
ATOM      7  C   UNL     1       1.159  -5.267   0.137  0.00  0.00    +0.115 C 
ATOM      8  C   UNL     1       1.222  -6.397  -2.101  0.00  0.00    -0.010 C 
ATOM      9  C   UNL     1       2.733  -6.636  -2.027  0.00  0.00    -0.082 C 
ATOM     10  N   UNL     1       2.993  -7.944  -1.413  0.00  0.00    +0.379 N 
ATOM     11  C   UNL     1       2.507  -7.952  -0.028  0.00  0.00    -0.082 C 
ATOM     12  C   UNL     1       0.987  -7.768  -0.017  0.00  0.00    -0.010 C 
ATOM     13  H   UNL     1       2.518  -8.662  -1.939  0.00  0.00    -0.086 HD
ATOM     14  H   UNL     1       3.986  -8.126  -1.421  0.00  0.00    -0.086 HD
ENDROOT
BRANCH   1  20
ATOM     15  C   UNL     1      -0.903  -0.840  -0.892  0.00  0.00    +0.132 A 
ATOM     16  C   UNL     1      -2.014  -0.010  -0.885  0.00  0.00    +0.046 A 
ATOM     17  C   UNL     1      -3.108  -0.326  -0.105  0.00  0.00    +0.004 A 
ATOM     18  C   UNL     1      -3.106  -1.471   0.675  0.00  0.00    +0.001 A 
ATOM     19  C   UNL     1      -2.011  -2.307   0.679  0.00  0.00    +0.017 A 
ATOM     20  C   UNL     1      -0.899  -2.003  -0.110  0.00  0.00    +0.078 A 
BRANCH  15  22
ATOM     21  C   UNL     1       0.098   0.670  -2.429  0.00  0.00    +0.277 C 
ATOM     22  O   UNL     1       0.174  -0.531  -1.658  0.00  0.00    -0.494 OA
ENDBRANCH  15  22
ENDBRANCH   1  20
BRANCH   5  23
ATOM     23  C   UNL     1      -1.352  -6.090  -2.171  0.00  0.00    +0.218 C 
ATOM     24  O   UNL     1      -1.338  -4.989  -2.681  0.00  0.00    -0.275 OA
ATOM     25  N   UNL     1      -1.780  -7.154  -2.878  0.00  0.00    -0.312 N 
ATOM     26  H   UNL     1      -1.791  -8.034  -2.470  0.00  0.00    +0.149 HD
BRANCH  25  27
ATOM     27  C   UNL     1      -2.227  -6.983  -4.262  0.00  0.00    +0.073 C 
ATOM     28  C   UNL     1      -3.691  -6.495  -4.257  0.00  0.00    +0.022 C 
ATOM     29  C   UNL     1      -3.982  -5.843  -5.582  0.00  0.00    +0.002 C 
ATOM     30  C   UNL     1      -4.611  -6.820  -6.593  0.00  0.00    +0.000 C 
ATOM     31  C   UNL     1      -3.951  -8.212  -6.570  0.00  0.00    +0.000 C 
ATOM     32  C   UNL     1      -2.452  -8.137  -6.459  0.00  0.00    +0.002 C 
ATOM     33  C   UNL     1      -2.065  -8.244  -4.970  0.00  0.00    +0.022 C 
ENDBRANCH  25  27
ENDBRANCH   5  23
TORSDOF 4
