REMARK  Name = ZINC50816868
REMARK  6 active torsions:
REMARK  status: ('A' for Active; 'I' for Inactive)
REMARK    1  A    between atoms: C_1  and  C_2
REMARK    2  A    between atoms: C_8  and  N_10
REMARK    3  A    between atoms: N_10  and  C_11
REMARK    4  A    between atoms: N_10  and  C_12
REMARK    5  A    between atoms: C_12  and  C_13
REMARK    6  A    between atoms: N_22  and  C_23
REMARK                            x       y       z     vdW  Elec       q    Type
REMARK                         _______ _______ _______ _____ _____    ______ ____
ROOT
ATOM      1  C   UNL     1      -2.066   0.039   3.635  0.00  0.00    +0.116 A 
ATOM      2  N   UNL     1      -2.047  -0.597   4.793  0.00  0.00    -0.219 NA
ATOM      3  C   UNL     1      -2.678  -0.136   5.860  0.00  0.00    +0.130 A 
ATOM      4  C   UNL     1      -3.403   1.084   5.764  0.00  0.00    +0.047 A 
ATOM      5  C   UNL     1      -4.168   1.792   6.776  0.00  0.00    +0.021 A 
ATOM      6  C   UNL     1      -4.776   2.942   6.451  0.00  0.00    +0.048 A 
ATOM      7  S   UNL     1      -4.357   3.164   4.732  0.00  0.00    -0.077 S 
ATOM      8  C   UNL     1      -3.377   1.705   4.496  0.00  0.00    +0.113 A 
ATOM      9  N   UNL     1      -2.716   1.177   3.485  0.00  0.00    -0.227 NA
ATOM     10  N   UNL     1      -2.634  -0.832   7.055  0.00  0.00    -0.332 N 
ATOM     11  C   UNL     1      -1.885  -2.088   7.143  0.00  0.00    +0.127 C 
ATOM     12  H   UNL     1      -3.099  -0.489   7.834  0.00  0.00    +0.147 HD
ENDROOT
BRANCH   1  13
ATOM     13  C   UNL     1      -1.324  -0.546   2.461  0.00  0.00    -0.001 C 
BRANCH  13  14
ATOM     14  N   UNL     1       0.054  -0.037   2.450  0.00  0.00    +0.385 N 
ATOM     15  C   UNL     1       0.765  -0.524   3.640  0.00  0.00    -0.095 C 
ATOM     16  H   UNL     1       0.041   0.972   2.456  0.00  0.00    -0.081 HD
BRANCH  14  23
ATOM     17  C   UNL     1      -0.019   1.526   0.010  0.00  0.00    +0.006 C 
ATOM     18  C   UNL     1       0.002  -0.004   0.002  0.00  0.00    -0.028 C 
ATOM     19  C   UNL     1       0.718  -0.497  -1.257  0.00  0.00    +0.002 C 
ATOM     20  C   UNL     1       2.154   0.032  -1.268  0.00  0.00    +0.000 C 
ATOM     21  C   UNL     1       2.894  -0.475  -0.028  0.00  0.00    -0.002 C 
ATOM     22  C   UNL     1       2.178   0.019   1.231  0.00  0.00    -0.015 C 
ATOM     23  C   UNL     1       0.742  -0.511   1.242  0.00  0.00    -0.065 C 
ENDBRANCH  14  23
ENDBRANCH  13  14
ENDBRANCH   1  13
TORSDOF 3
