REMARK  Name = ZINC07090248
REMARK  4 active torsions:
REMARK  status: ('A' for Active; 'I' for Inactive)
REMARK    1  A    between atoms: N_12  and  C_16
REMARK    2  A    between atoms: C_16  and  C_17
REMARK    3  A    between atoms: N_19  and  C_20
REMARK    4  A    between atoms: C_20  and  C_25
REMARK                            x       y       z     vdW  Elec       q    Type
REMARK                         _______ _______ _______ _____ _____    ______ ____
ROOT
ATOM      1  C   UNL     1      -0.017   1.390   0.010  0.00  0.00    +0.014 A 
ATOM      2  C   UNL     1       1.144   2.085   0.002  0.00  0.00    +0.046 A 
ATOM      3  S   UNL     1       2.357   0.773  -0.017  0.00  0.00    -0.101 S 
ATOM      4  C   UNL     1       1.230  -0.595  -0.013  0.00  0.00    -0.005 A 
ATOM      5  C   UNL     1       0.002  -0.004   0.002  0.00  0.00    -0.005 A 
ATOM      6  C   UNL     1      -1.250  -0.864   0.010  0.00  0.00    +0.139 C 
ATOM      7  C   UNL     1      -0.910  -2.285   0.433  0.00  0.00    +0.040 C 
ATOM      8  C   UNL     1       0.255  -2.820  -0.406  0.00  0.00    +0.008 C 
ATOM      9  C   UNL     1       1.533  -2.057  -0.025  0.00  0.00    +0.043 C 
ATOM     10  C   UNL     1      -2.284  -0.257   0.927  0.00  0.00    +0.251 C 
ATOM     11  O   UNL     1      -2.190  -0.075   2.122  0.00  0.00    -0.272 OA
ATOM     12  N   UNL     1      -3.336   0.039   0.134  0.00  0.00    -0.215 N 
ATOM     13  C   UNL     1      -3.102  -0.296  -1.141  0.00  0.00    +0.310 C 
ATOM     14  O   UNL     1      -3.900  -0.127  -2.041  0.00  0.00    -0.252 OA
ATOM     15  N   UNL     1      -1.882  -0.843  -1.313  0.00  0.00    -0.281 N 
ATOM     16  H   UNL     1      -1.498  -1.159  -2.146  0.00  0.00    +0.152 HD
ENDROOT
BRANCH  12  17
ATOM     17  C   UNL     1      -4.579   0.651   0.610  0.00  0.00    +0.213 C 
BRANCH  17  18
ATOM     18  C   UNL     1      -4.461   2.152   0.534  0.00  0.00    +0.232 C 
ATOM     19  O   UNL     1      -3.439   2.660   0.123  0.00  0.00    -0.274 OA
ATOM     20  N   UNL     1      -5.491   2.929   0.923  0.00  0.00    -0.296 N 
ATOM     21  H   UNL     1      -6.308   2.523   1.252  0.00  0.00    +0.150 HD
BRANCH  20  22
ATOM     22  C   UNL     1      -5.377   4.388   0.849  0.00  0.00    +0.121 C 
ATOM     23  C   UNL     1      -4.250   4.877   1.783  0.00  0.00    +0.041 C 
ATOM     24  C   UNL     1      -4.789   6.210   2.361  0.00  0.00    +0.003 C 
ATOM     25  C   UNL     1      -6.295   5.910   2.565  0.00  0.00    +0.003 C 
ATOM     26  C   UNL     1      -6.676   5.045   1.346  0.00  0.00    +0.041 C 
BRANCH  22  27
ATOM     27  C   UNL     1      -5.100   4.802  -0.536  0.00  0.00    +0.088 C 
ATOM     28  N   UNL     1      -4.887   5.122  -1.605  0.00  0.00    -0.194 NA
ENDBRANCH  22  27
ENDBRANCH  20  22
ENDBRANCH  17  18
ENDBRANCH  12  17
TORSDOF 4
