REMARK  Name = ZINC28248659
REMARK  4 active torsions:
REMARK  status: ('A' for Active; 'I' for Inactive)
REMARK    1  A    between atoms: C_1  and  C_2
REMARK    2  A    between atoms: C_3  and  C_18
REMARK    3  A    between atoms: N_7  and  S_8
REMARK    4  A    between atoms: S_8  and  C_11
REMARK                            x       y       z     vdW  Elec       q    Type
REMARK                         _______ _______ _______ _____ _____    ______ ____
ROOT
ATOM      1  S   UNL     1       1.230  -2.441  -0.022  0.00  0.00    +0.101 S 
ATOM      2  O   UNL     1       2.486  -2.834   0.515  0.00  0.00    -0.146 OA
ATOM      3  O   UNL     1      -0.004  -2.866   0.538  0.00  0.00    -0.146 OA
ENDROOT
BRANCH   1  10
ATOM      4  C   UNL     1       5.608  -1.031  -2.701  0.00  0.00    +0.064 C 
ATOM      5  C   UNL     1       4.344  -1.775  -3.045  0.00  0.00    +0.025 A 
ATOM      6  C   UNL     1       4.140  -2.254  -4.295  0.00  0.00    +0.009 A 
ATOM      7  S   UNL     1       2.533  -3.011  -4.104  0.00  0.00    -0.053 S 
ATOM      8  C   UNL     1       2.299  -2.624  -2.427  0.00  0.00    +0.192 A 
ATOM      9  N   UNL     1       3.407  -1.970  -2.136  0.00  0.00    -0.336 N 
ATOM     10  N   UNL     1       1.222  -2.922  -1.607  0.00  0.00    -0.103 NA
ATOM     11  C   UNL     1       5.025  -2.172  -5.512  0.00  0.00    +0.053 C 
ATOM     12  H   UNL     1       3.542  -1.583  -1.115  0.00  0.00    +0.168 HD
ENDBRANCH   1  10
BRANCH   1  13
ATOM     13  C   UNL     1       1.208  -0.679  -0.013  0.00  0.00    +0.113 A 
ATOM     14  C   UNL     1       0.002  -0.004   0.002  0.00  0.00    +0.032 A 
ATOM     15  C   UNL     1      -0.017   1.378   0.010  0.00  0.00    +0.040 A 
ATOM     16  C   UNL     1       1.173   2.086   0.002  0.00  0.00    +0.124 A 
ATOM     17  C   UNL     1       2.381   1.408  -0.013  0.00  0.00    +0.040 A 
ATOM     18  C   UNL     1       2.397   0.026  -0.020  0.00  0.00    +0.032 A 
ATOM     19  F   UNL     1       1.156   3.437   0.009  0.00  0.00    -0.205 F 
ENDBRANCH   1  13
TORSDOF 2
