REMARK  Name = ZINC63213662
REMARK  4 active torsions:
REMARK  status: ('A' for Active; 'I' for Inactive)
REMARK    1  A    between atoms: C_6  and  S_7
REMARK    2  A    between atoms: S_7  and  N_10
REMARK    3  A    between atoms: N_10  and  C_11
REMARK    4  A    between atoms: C_18  and  N_20
REMARK                            x       y       z     vdW  Elec       q    Type
REMARK                         _______ _______ _______ _____ _____    ______ ____
ROOT
ATOM      1  N   UNL     1      -1.951  -1.152  -1.560  0.00  0.00    -0.188 NA
ATOM      2  H   UNL     1      -2.761  -0.744  -1.905  0.00  0.00    +0.148 HD
ENDROOT
BRANCH   1   3
ATOM      3  C   UNL     1      -1.119  -1.982  -2.434  0.00  0.00    +0.062 C 
ATOM      4  C   UNL     1      -1.653  -3.427  -2.406  0.00  0.00    +0.019 C 
ATOM      5  C   UNL     1      -1.144  -4.275  -3.586  0.00  0.00    +0.001 C 
ATOM      6  C   UNL     1       0.313  -4.038  -3.880  0.00  0.00    -0.000 C 
ATOM      7  C   UNL     1       0.422  -2.961  -4.979  0.00  0.00    -0.002 C 
ATOM      8  C   UNL     1       0.261  -1.614  -4.453  0.00  0.00    -0.015 C 
ATOM      9  C   UNL     1      -1.129  -1.393  -3.819  0.00  0.00    -0.056 C 
BRANCH   9  10
ATOM     10  N   UNL     1      -1.413   0.046  -3.741  0.00  0.00    +0.381 N 
ATOM     11  H   UNL     1      -0.701   0.500  -3.189  0.00  0.00    -0.090 HD
ATOM     12  H   UNL     1      -1.419   0.438  -4.671  0.00  0.00    -0.090 HD
ATOM     13  H   UNL     1      -2.314   0.188  -3.310  0.00  0.00    -0.090 HD
ENDBRANCH   9  10
ENDBRANCH   1   3
BRANCH   1  14
ATOM     14  S   UNL     1      -1.510  -0.909   0.018  0.00  0.00    +0.059 S 
ATOM     15  O   UNL     1      -1.212  -2.189   0.558  0.00  0.00    -0.153 OA
ATOM     16  O   UNL     1      -2.490  -0.052   0.586  0.00  0.00    -0.153 OA
BRANCH  14  22
ATOM     17  C   UNL     1      -0.017   1.378   0.010  0.00  0.00    +0.032 A 
ATOM     18  C   UNL     1       1.164   2.091   0.002  0.00  0.00    +0.048 A 
ATOM     19  C   UNL     1       2.386   1.424  -0.015  0.00  0.00    +0.124 A 
ATOM     20  C   UNL     1       2.392   0.035  -0.030  0.00  0.00    -0.001 A 
ATOM     21  C   UNL     1       1.212  -0.675  -0.018  0.00  0.00    +0.035 A 
ATOM     22  C   UNL     1       0.002  -0.004   0.002  0.00  0.00    +0.106 A 
ATOM     23  C   UNL     1       3.844  -0.403  -0.071  0.00  0.00    +0.080 C 
ATOM     24  C   UNL     1       4.562   0.907  -0.473  0.00  0.00    +0.234 C 
ATOM     25  O   UNL     1       3.653   1.923  -0.013  0.00  0.00    -0.491 OA
ENDBRANCH  14  22
ENDBRANCH   1  14
TORSDOF 4
