REMARK  Name = ZINC39542096
REMARK  8 active torsions:
REMARK  status: ('A' for Active; 'I' for Inactive)
REMARK    1  A    between atoms: C_1  and  C_2
REMARK    2  A    between atoms: C_2  and  C_3
REMARK    3  A    between atoms: C_2  and  S_4
REMARK    4  A    between atoms: S_4  and  N_7
REMARK    5  A    between atoms: C_20  and  O_31
REMARK    6  A    between atoms: C_21  and  O_29
REMARK    7  A    between atoms: O_29  and  C_30
REMARK    8  A    between atoms: O_31  and  C_32
REMARK                            x       y       z     vdW  Elec       q    Type
REMARK                         _______ _______ _______ _____ _____    ______ ____
ROOT
ATOM      1  N   UNL     1      -1.546  -2.276   0.144  0.00  0.00    -0.211 N 
ATOM      2  C   UNL     1      -1.443  -3.153  -0.900  0.00  0.00    +0.073 A 
ATOM      3  C   UNL     1      -1.434  -2.951  -2.279  0.00  0.00    +0.028 A 
ATOM      4  C   UNL     1      -1.313  -4.074  -3.078  0.00  0.00    +0.002 A 
ATOM      5  C   UNL     1      -1.204  -5.349  -2.547  0.00  0.00    +0.001 A 
ATOM      6  C   UNL     1      -1.209  -5.581  -1.196  0.00  0.00    +0.010 A 
ATOM      7  C   UNL     1      -1.330  -4.463  -0.355  0.00  0.00    +0.006 A 
ATOM      8  C   UNL     1      -1.368  -4.327   1.028  0.00  0.00    -0.008 A 
ATOM      9  C   UNL     1      -1.494  -2.985   1.315  0.00  0.00    +0.112 A 
ATOM     10  C   UNL     1      -1.558  -2.531   2.716  0.00  0.00    +0.163 A 
ATOM     11  N   UNL     1      -2.018  -1.341   3.006  0.00  0.00    -0.227 NA
ATOM     12  C   UNL     1      -2.125  -0.909   4.278  0.00  0.00    +0.082 A 
ATOM     13  C   UNL     1      -2.603   0.370   4.574  0.00  0.00    +0.078 A 
ATOM     14  C   UNL     1      -2.708   0.774   5.891  0.00  0.00    +0.164 A 
ATOM     15  C   UNL     1      -2.340  -0.086   6.932  0.00  0.00    +0.162 A 
ATOM     16  C   UNL     1      -1.861  -1.350   6.658  0.00  0.00    +0.064 A 
ATOM     17  C   UNL     1      -1.745  -1.771   5.333  0.00  0.00    +0.069 A 
ATOM     18  C   UNL     1      -1.226  -3.100   4.990  0.00  0.00    +0.262 A 
ATOM     19  O   UNL     1      -0.902  -3.892   5.856  0.00  0.00    -0.267 OA
ATOM     20  N   UNL     1      -1.117  -3.417   3.679  0.00  0.00    -0.291 N 
ATOM     21  C   UNL     1      -0.497  -4.690   3.295  0.00  0.00    +0.131 C 
ATOM     22  C   UNL     1      -1.289  -5.343   2.143  0.00  0.00    +0.060 C 
ENDROOT
BRANCH   1  23
ATOM     23  S   UNL     1      -1.700  -0.632   0.015  0.00  0.00    +0.058 S 
ATOM     24  O   UNL     1      -2.359  -0.234   1.209  0.00  0.00    -0.153 OA
ATOM     25  O   UNL     1      -2.308  -0.423  -1.252  0.00  0.00    -0.153 OA
BRANCH  23  27
ATOM     26  C   UNL     1      -0.019   1.526   0.010  0.00  0.00    +0.033 C 
ATOM     27  C   UNL     1       0.002  -0.004   0.002  0.00  0.00    +0.148 C 
ATOM     28  C   UNL     1       0.742  -0.511   1.242  0.00  0.00    +0.033 C 
ENDBRANCH  23  27
ENDBRANCH   1  23
BRANCH  15  29
ATOM     29  O   UNL     1      -2.455   0.329   8.222  0.00  0.00    -0.491 OA
ATOM     30  C   UNL     1      -2.062  -0.596   9.238  0.00  0.00    +0.277 C 
ENDBRANCH  15  29
BRANCH  14  31
ATOM     31  O   UNL     1      -3.174   2.017   6.178  0.00  0.00    -0.491 OA
ATOM     32  C   UNL     1      -3.533   2.847   5.071  0.00  0.00    +0.277 C 
ENDBRANCH  14  31
TORSDOF 4
