REMARK  Name = ZINC43828169
REMARK  3 active torsions:
REMARK  status: ('A' for Active; 'I' for Inactive)
REMARK    1  A    between atoms: C_2  and  N_13
REMARK    2  A    between atoms: C_5  and  N_11
REMARK    3  A    between atoms: C_6  and  C_7
REMARK                            x       y       z     vdW  Elec       q    Type
REMARK                         _______ _______ _______ _____ _____    ______ ____
ROOT
ATOM      1  C   UNL     1      -0.017   1.377   0.010  0.00  0.00    +0.047 A 
ATOM      2  C   UNL     1       1.170   2.087   0.002  0.00  0.00    +0.128 A 
ATOM      3  C   UNL     1       2.380   1.417  -0.013  0.00  0.00    +0.049 A 
ATOM      4  C   UNL     1       2.406   0.035  -0.021  0.00  0.00    +0.041 A 
ATOM      5  C   UNL     1       1.215  -0.681  -0.013  0.00  0.00    +0.051 A 
ATOM      6  C   UNL     1       0.002  -0.004   0.002  0.00  0.00    +0.079 A 
ATOM      7 BR   UNL     1       4.061  -0.880  -0.042  0.00  0.00    -0.048 Br
ENDROOT
BRANCH   6   8
ATOM      8  C   UNL     1      -1.292  -0.776   0.011  0.00  0.00    +0.419 C 
ATOM      9  F   UNL     1      -2.368   0.118   0.026  0.00  0.00    -0.166 F 
ATOM     10  F   UNL     1      -1.366  -1.575  -1.135  0.00  0.00    -0.166 F 
ATOM     11  F   UNL     1      -1.344  -1.587   1.149  0.00  0.00    -0.166 F 
ENDBRANCH   6   8
BRANCH   5  12
ATOM     12  N   UNL     1       1.237  -2.078  -0.021  0.00  0.00    -0.357 N 
ATOM     13  H   UNL     1       2.085  -2.549  -0.032  0.00  0.00    +0.142 HD
ATOM     14  H   UNL     1       0.405  -2.576  -0.016  0.00  0.00    +0.142 HD
ENDBRANCH   5  12
BRANCH   2  15
ATOM     15  N   UNL     1       1.146   3.566   0.010  0.00  0.00    +0.056 N 
ATOM     16  O   UNL     1       0.089   4.153   0.022  0.00  0.00    -0.126 OA
ATOM     17  O   UNL     1       2.183   4.188   0.003  0.00  0.00    -0.126 OA
ENDBRANCH   2  15
TORSDOF 3
