REMARK  Name = ZINC63213563
REMARK  4 active torsions:
REMARK  status: ('A' for Active; 'I' for Inactive)
REMARK    1  A    between atoms: N_5  and  S_8
REMARK    2  A    between atoms: S_8  and  N_11
REMARK    3  A    between atoms: N_11  and  C_12
REMARK    4  A    between atoms: C_19  and  N_21
REMARK                            x       y       z     vdW  Elec       q    Type
REMARK                         _______ _______ _______ _____ _____    ______ ____
ROOT
ATOM      1  N   UNL     1       1.363  -1.400  -4.309  0.00  0.00    -0.178 NA
ATOM      2  H   UNL     1       1.712  -1.202  -5.193  0.00  0.00    +0.149 HD
ENDROOT
BRANCH   1   3
ATOM      3  C   UNL     1       1.647  -2.694  -3.683  0.00  0.00    +0.063 C 
ATOM      4  C   UNL     1       2.995  -2.604  -2.943  0.00  0.00    +0.019 C 
ATOM      5  C   UNL     1       3.593  -3.986  -2.621  0.00  0.00    +0.001 C 
ATOM      6  C   UNL     1       2.556  -4.964  -2.139  0.00  0.00    -0.000 C 
ATOM      7  C   UNL     1       2.054  -5.781  -3.347  0.00  0.00    -0.002 C 
ATOM      8  C   UNL     1       1.069  -5.056  -4.136  0.00  0.00    -0.015 C 
ATOM      9  C   UNL     1       1.645  -3.759  -4.746  0.00  0.00    -0.056 C 
BRANCH   9  10
ATOM     10  N   UNL     1       0.808  -3.330  -5.874  0.00  0.00    +0.381 N 
ATOM     11  H   UNL     1       1.176  -2.474  -6.259  0.00  0.00    -0.090 HD
ATOM     12  H   UNL     1       0.809  -4.047  -6.585  0.00  0.00    -0.090 HD
ATOM     13  H   UNL     1      -0.136  -3.176  -5.553  0.00  0.00    -0.090 HD
ENDBRANCH   9  10
ENDBRANCH   1   3
BRANCH   1  14
ATOM     14  S   UNL     1       0.446  -0.276  -3.510  0.00  0.00    +0.097 S 
ATOM     15  O   UNL     1      -0.713  -0.955  -3.044  0.00  0.00    -0.141 OA
ATOM     16  O   UNL     1       0.374   0.864  -4.354  0.00  0.00    -0.141 OA
BRANCH  14  21
ATOM     17  C   UNL     1      -0.019   1.544   0.011  0.00  0.00    +0.001 C 
ATOM     18  C   UNL     1       1.377   2.097   0.000  0.00  0.00    +0.001 C 
ATOM     19  C   UNL     1       1.668   2.437  -1.458  0.00  0.00    +0.017 C 
ATOM     20  C   UNL     1       2.254   1.339  -2.226  0.00  0.00    +0.110 C 
ATOM     21  N   UNL     1       1.297   0.183  -2.165  0.00  0.00    -0.167 NA
ATOM     22  C   UNL     1       1.133  -0.517  -0.924  0.00  0.00    +0.110 C 
ATOM     23  C   UNL     1       0.002  -0.004   0.002  0.00  0.00    +0.017 C 
ENDBRANCH  14  21
ENDBRANCH   1  14
TORSDOF 4
