REMARK  Name = ZINC39553927
REMARK  8 active torsions:
REMARK  status: ('A' for Active; 'I' for Inactive)
REMARK    1  A    between atoms: C_1  and  C_2
REMARK    2  A    between atoms: C_3  and  C_32
REMARK    3  A    between atoms: C_7  and  N_23
REMARK    4  A    between atoms: C_9  and  S_11
REMARK    5  A    between atoms: S_11  and  C_12
REMARK    6  A    between atoms: C_12  and  C_13
REMARK    7  A    between atoms: C_20  and  C_22
REMARK    8  A    between atoms: C_24  and  C_26
REMARK                            x       y       z     vdW  Elec       q    Type
REMARK                         _______ _______ _______ _____ _____    ______ ____
ROOT
ATOM      1  C   UNL     1       0.238   1.496  -0.018  0.00  0.00    +0.048 C 
ATOM      2  C   UNL     1       0.229  -0.011  -0.022  0.00  0.00    +0.003 A 
ATOM      3  C   UNL     1       0.236  -0.814  -1.096  0.00  0.00    +0.108 A 
ATOM      4  O   UNL     1       0.224  -2.103  -0.709  0.00  0.00    -0.442 OA
ATOM      5  C   UNL     1       0.208  -2.203   0.631  0.00  0.00    +0.233 A 
ATOM      6  C   UNL     1       0.217  -0.895   1.146  0.00  0.00    +0.083 A 
ATOM      7  C   UNL     1       0.209  -0.712   2.535  0.00  0.00    +0.141 A 
ATOM      8  N   UNL     1       0.198  -1.788   3.314  0.00  0.00    -0.206 NA
ATOM      9  C   UNL     1       0.193  -3.008   2.791  0.00  0.00    +0.194 A 
ATOM     10  N   UNL     1       0.192  -3.222   1.485  0.00  0.00    -0.186 NA
ATOM     11  C   UNL     1       0.255  -0.342  -2.527  0.00  0.00    +0.086 C 
ENDROOT
BRANCH   7  12
ATOM     12  N   UNL     1       0.214   0.562   3.083  0.00  0.00    -0.266 N 
ATOM     13  C   UNL     1       0.207   0.720   4.421  0.00  0.00    +0.249 C 
ATOM     14  O   UNL     1       0.196  -0.254   5.148  0.00  0.00    -0.270 OA
ATOM     15  H   UNL     1       0.223   1.340   2.503  0.00  0.00    +0.157 HD
BRANCH  13  16
ATOM     16  C   UNL     1       0.212   2.077   5.006  0.00  0.00    +0.037 A 
ATOM     17  C   UNL     1       0.219   3.199   4.174  0.00  0.00    +0.013 A 
ATOM     18  C   UNL     1       0.224   4.463   4.726  0.00  0.00    +0.001 A 
ATOM     19  C   UNL     1       0.222   4.621   6.101  0.00  0.00    +0.000 A 
ATOM     20  C   UNL     1       0.216   3.514   6.931  0.00  0.00    +0.001 A 
ATOM     21  C   UNL     1       0.205   2.244   6.392  0.00  0.00    +0.013 A 
ENDBRANCH  13  16
ENDBRANCH   7  12
BRANCH   9  22
ATOM     22  S   UNL     1       0.178  -4.396   3.877  0.00  0.00    -0.077 S 
BRANCH  22  23
ATOM     23  C   UNL     1       0.176  -5.826   2.761  0.00  0.00    +0.173 C 
BRANCH  23  24
ATOM     24  C   UNL     1       0.163  -7.096   3.573  0.00  0.00    +0.226 C 
ATOM     25  O   UNL     1       0.156  -7.041   4.785  0.00  0.00    -0.275 OA
ATOM     26  N   UNL     1       0.159  -8.292   2.952  0.00  0.00    -0.298 N 
ATOM     27  C   UNL     1       0.046  -8.376   1.490  0.00  0.00    +0.108 C 
ATOM     28  C   UNL     1       1.208  -9.219   0.953  0.00  0.00    +0.019 C 
ATOM     29  C   UNL     1       1.219 -10.575   1.662  0.00  0.00    +0.003 C 
ATOM     30  C   UNL     1       1.427 -10.366   3.163  0.00  0.00    +0.022 C 
ATOM     31  C   UNL     1       0.274  -9.537   3.725  0.00  0.00    +0.073 C 
ATOM     32  C   UNL     1       0.550  -9.205   5.193  0.00  0.00    +0.028 C 
ENDBRANCH  23  24
ENDBRANCH  22  23
ENDBRANCH   9  22
TORSDOF 5
