REMARK  Name = ZINC15724449
REMARK  10 active torsions:
REMARK  status: ('A' for Active; 'I' for Inactive)
REMARK    1  A    between atoms: C_1  and  C_2
REMARK    2  A    between atoms: C_6  and  C_29
REMARK    3  A    between atoms: C_8  and  O_11
REMARK    4  A    between atoms: O_11  and  C_12
REMARK    5  A    between atoms: C_12  and  C_13
REMARK    6  A    between atoms: C_13  and  C_15
REMARK    7  A    between atoms: C_13  and  O_28
REMARK    8  A    between atoms: C_15  and  N_16
REMARK    9  A    between atoms: C_29  and  C_30
REMARK   10  A    between atoms: C_29  and  C_31
REMARK                            x       y       z     vdW  Elec       q    Type
REMARK                         _______ _______ _______ _____ _____    ______ ____
ROOT
ATOM      1  C   UNL     1      -6.860   1.296   0.292  0.00  0.00    +0.154 C 
ENDROOT
BRANCH   1   2
ATOM      2  O   UNL     1      -7.040   0.008   0.883  0.00  0.00    -0.388 OA
ATOM      3  H   UNL     1      -8.014  -0.499   0.811  0.00  0.00    +0.210 HD
ENDBRANCH   1   2
BRANCH   1   4
ATOM      4  C   UNL     1      -5.426   1.773   0.535  0.00  0.00    +0.192 C 
BRANCH   4   5
ATOM      5  O   UNL     1      -4.515   0.911  -0.151  0.00  0.00    -0.374 OA
BRANCH   5  11
ATOM      6  C   UNL     1      -0.526   0.225   2.636  0.00  0.00    +0.007 C 
ATOM      7  C   UNL     1      -1.098   0.939   1.410  0.00  0.00    -0.012 C 
ATOM      8  C   UNL     1      -0.312   0.525   0.165  0.00  0.00    +0.004 C 
ATOM      9  C   UNL     1      -0.885   1.239  -1.061  0.00  0.00    +0.006 C 
ATOM     10  C   UNL     1      -2.356   0.855  -1.234  0.00  0.00    +0.020 C 
ATOM     11  C   UNL     1      -3.142   1.270   0.011  0.00  0.00    +0.122 C 
ATOM     12  C   UNL     1      -2.569   0.555   1.237  0.00  0.00    +0.035 C 
BRANCH  10  13
ATOM     13  C   UNL     1      -2.928   1.570  -2.460  0.00  0.00    -0.012 C 
ATOM     14  C   UNL     1      -2.721   3.079  -2.314  0.00  0.00    +0.007 C 
ATOM     15  C   UNL     1      -2.212   1.077  -3.719  0.00  0.00    +0.007 C 
ENDBRANCH  10  13
ENDBRANCH   5  11
ENDBRANCH   4   5
ENDBRANCH   1   4
BRANCH   1  16
ATOM     16  C   UNL     1      -7.840   2.288   0.921  0.00  0.00    +0.118 C 
BRANCH  16  17
ATOM     17  N   UNL     1      -9.216   1.831   0.688  0.00  0.00    -0.297 NA
ATOM     18  C   UNL     1      -9.550   1.874  -0.742  0.00  0.00    +0.103 C 
ATOM     19  C   UNL     1     -10.960   1.317  -0.951  0.00  0.00    +0.122 C 
ATOM     20  N   UNL     1     -11.918   2.107  -0.165  0.00  0.00    -0.314 N 
ATOM     21  C   UNL     1     -11.584   2.064   1.265  0.00  0.00    +0.122 C 
ATOM     22  C   UNL     1     -10.174   2.622   1.474  0.00  0.00    +0.103 C 
ATOM     23  C   UNL     1     -13.221   1.675  -0.386  0.00  0.00    +0.099 A 
ATOM     24  C   UNL     1     -13.728   1.648  -1.681  0.00  0.00    +0.042 A 
ATOM     25  C   UNL     1     -15.024   1.210  -1.887  0.00  0.00    +0.005 A 
ATOM     26  C   UNL     1     -15.775   0.822  -0.785  0.00  0.00    +0.018 A 
ATOM     27  C   UNL     1     -15.210   0.880   0.473  0.00  0.00    +0.084 A 
ATOM     28  N   UNL     1     -13.969   1.297   0.639  0.00  0.00    -0.350 N 
ATOM     29  H   UNL     1     -13.559   1.326   1.659  0.00  0.00    +0.166 HD
ENDBRANCH  16  17
ENDBRANCH   1  16
TORSDOF 7
