REMARK  Name = ZINC00174205
REMARK  5 active torsions:
REMARK  status: ('A' for Active; 'I' for Inactive)
REMARK    1  A    between atoms: C_4  and  C_7
REMARK    2  A    between atoms: C_8  and  C_9
REMARK    3  A    between atoms: C_9  and  C_11
REMARK    4  A    between atoms: C_9  and  N_42
REMARK    5  A    between atoms: C_13  and  N_17
REMARK                            x       y       z     vdW  Elec       q    Type
REMARK                         _______ _______ _______ _____ _____    ______ ____
ROOT
ATOM      1  C   UNL     1       5.967  -1.948  -0.064  0.00  0.00    +0.044 C 
ENDROOT
BRANCH   1   2
ATOM      2  C   UNL     1       7.096  -0.951  -0.070  0.00  0.00    -0.001 A 
ATOM      3  C   UNL     1       7.763  -0.655   1.103  0.00  0.00    +0.039 A 
ATOM      4  C   UNL     1       8.800   0.261   1.099  0.00  0.00    +0.127 A 
ATOM      5  C   UNL     1       9.172   0.881  -0.079  0.00  0.00    +0.036 A 
ATOM      6  C   UNL     1       8.508   0.589  -1.255  0.00  0.00    +0.053 A 
ATOM      7  C   UNL     1       7.471  -0.333  -1.254  0.00  0.00    +0.182 A 
ATOM      8  O   UNL     1       6.821  -0.627  -2.410  0.00  0.00    -0.288 OA
BRANCH   4   9
ATOM      9  N   UNL     1       9.512   0.576   2.357  0.00  0.00    +0.056 N 
ATOM     10  O   UNL     1       9.185   0.029   3.396  0.00  0.00    -0.126 OA
ATOM     11  O   UNL     1      10.425   1.382   2.355  0.00  0.00    -0.126 OA
ENDBRANCH   4   9
ENDBRANCH   1   2
BRANCH   1  17
ATOM     12  C   UNL     1       7.379  -3.462   1.193  0.00  0.00    -0.048 C 
ATOM     13  C   UNL     1       7.466  -4.288   2.479  0.00  0.00    +0.141 C 
ATOM     14  O   UNL     1       6.382  -5.221   2.515  0.00  0.00    -0.383 OA
ATOM     15  C   UNL     1       5.092  -4.607   2.456  0.00  0.00    +0.141 C 
ATOM     16  C   UNL     1       4.981  -3.785   1.169  0.00  0.00    -0.048 C 
ATOM     17  N   UNL     1       6.067  -2.783   1.153  0.00  0.00    +0.395 N 
ATOM     18  H   UNL     1       5.978  -2.180   1.979  0.00  0.00    -0.079 HD
ENDBRANCH   1  17
BRANCH   1  20
ATOM     19  C   UNL     1       3.655  -0.662  -0.036  0.00  0.00    -0.068 C 
ATOM     20  C   UNL     1       4.681  -1.233  -0.049  0.00  0.00    -0.108 C 
BRANCH  19  24
ATOM     21  C   UNL     1      -0.017   1.379   0.010  0.00  0.00    +0.000 A 
ATOM     22  C   UNL     1       1.168   2.093   0.002  0.00  0.00    +0.001 A 
ATOM     23  C   UNL     1       2.377   1.429  -0.013  0.00  0.00    +0.017 A 
ATOM     24  C   UNL     1       2.403   0.034  -0.021  0.00  0.00    +0.025 A 
ATOM     25  C   UNL     1       1.204  -0.681  -0.013  0.00  0.00    +0.017 A 
ATOM     26  C   UNL     1       0.002  -0.004   0.002  0.00  0.00    +0.001 A 
ENDBRANCH  19  24
ENDBRANCH   1  20
TORSDOF 5
