REMARK  Name = ZINC61861883
REMARK  8 active torsions:
REMARK  status: ('A' for Active; 'I' for Inactive)
REMARK    1  A    between atoms: C_1  and  C_2
REMARK    2  A    between atoms: C_2  and  C_3
REMARK    3  A    between atoms: C_2  and  C_4
REMARK    4  A    between atoms: C_2  and  C_5
REMARK    5  A    between atoms: C_10  and  N_11
REMARK    6  A    between atoms: N_14  and  N_15
REMARK    7  A    between atoms: C_16  and  C_18
REMARK    8  A    between atoms: C_21  and  C_24
REMARK                            x       y       z     vdW  Elec       q    Type
REMARK                         _______ _______ _______ _____ _____    ______ ____
ROOT
ATOM      1  N   UNL     1       2.554  -1.341  -0.231  0.00  0.00    -0.295 N 
ATOM      2  C   UNL     1       3.771  -0.915   0.164  0.00  0.00    +0.316 C 
ATOM      3  O   UNL     1       4.338  -0.037  -0.458  0.00  0.00    -0.251 OA
ATOM      4  N   UNL     1       4.357  -1.461   1.248  0.00  0.00    -0.218 N 
ATOM      5  H   UNL     1       2.101  -2.041   0.265  0.00  0.00    +0.151 HD
ATOM      6  H   UNL     1       5.232  -1.154   1.532  0.00  0.00    +0.174 HD
ENDROOT
BRANCH   1  12
ATOM      7  C   UNL     1       0.398  -0.763  -1.229  0.00  0.00    +0.015 C 
ATOM      8  C   UNL     1      -0.081  -2.207  -1.063  0.00  0.00    +0.006 C 
ATOM      9  C   UNL     1       0.293  -3.014  -2.307  0.00  0.00    +0.000 C 
ATOM     10  C   UNL     1       1.812  -2.999  -2.487  0.00  0.00    +0.002 C 
ATOM     11  C   UNL     1       2.291  -1.555  -2.653  0.00  0.00    +0.022 C 
ATOM     12  C   UNL     1       1.917  -0.747  -1.409  0.00  0.00    +0.078 C 
BRANCH   7  14
ATOM     13  C   UNL     1       0.641   1.441  -0.078  0.00  0.00    +0.011 C 
ATOM     14  C   UNL     1       0.023   0.045   0.015  0.00  0.00    -0.033 C 
ATOM     15  C   UNL     1       0.553  -0.665   1.263  0.00  0.00    +0.011 C 
ATOM     16  C   UNL     1      -1.500   0.166   0.106  0.00  0.00    +0.011 C 
ENDBRANCH   7  14
ENDBRANCH   1  12
BRANCH   4  17
ATOM     17  N   UNL     1       3.703  -2.471   1.964  0.00  0.00    -0.229 N 
ATOM     18  C   UNL     1       4.289  -3.018   3.047  0.00  0.00    +0.260 C 
ATOM     19  O   UNL     1       5.386  -2.633   3.403  0.00  0.00    -0.269 OA
ATOM     20  H   UNL     1       2.827  -2.778   1.679  0.00  0.00    +0.173 HD
BRANCH  18  21
ATOM     21  C   UNL     1       3.598  -4.085   3.803  0.00  0.00    +0.038 A 
ATOM     22  C   UNL     1       2.341  -4.530   3.391  0.00  0.00    +0.014 A 
ATOM     23  C   UNL     1       1.697  -5.524   4.095  0.00  0.00    +0.019 A 
ATOM     24  C   UNL     1       2.302  -6.086   5.221  0.00  0.00    +0.052 A 
ATOM     25  C   UNL     1       3.560  -5.640   5.633  0.00  0.00    +0.019 A 
ATOM     26  C   UNL     1       4.206  -4.651   4.926  0.00  0.00    +0.014 A 
BRANCH  24  27
ATOM     27  C   UNL     1       1.633  -7.119   5.953  0.00  0.00    +0.099 C 
ATOM     28  N   UNL     1       1.102  -7.938   6.534  0.00  0.00    -0.191 NA
ENDBRANCH  24  27
ENDBRANCH  18  21
ENDBRANCH   4  17
TORSDOF 5
