REMARK  Name = ZINC06842927
REMARK  3 active torsions:
REMARK  status: ('A' for Active; 'I' for Inactive)
REMARK    1  A    between atoms: C_1  and  C_2
REMARK    2  A    between atoms: N_16  and  C_17
REMARK    3  A    between atoms: C_17  and  C_18
REMARK                            x       y       z     vdW  Elec       q    Type
REMARK                         _______ _______ _______ _____ _____    ______ ____
ROOT
ATOM      1  C   UNL     1      -0.063   1.509   0.030  0.00  0.00    +0.053 C 
ATOM      2  C   UNL     1      -0.019  -0.020   0.016  0.00  0.00    +0.188 C 
ATOM      3  C   UNL     1       0.701  -0.503  -1.251  0.00  0.00    +0.159 C 
ATOM      4  N   UNL     1       0.762  -1.973  -1.196  0.00  0.00    -0.249 N 
ATOM      5  C   UNL     1       1.074  -2.568   0.039  0.00  0.00    +0.081 A 
ATOM      6  C   UNL     1       1.425  -3.908   0.096  0.00  0.00    +0.047 A 
ATOM      7  C   UNL     1       1.728  -4.489   1.314  0.00  0.00    +0.043 A 
ATOM      8  C   UNL     1       1.680  -3.735   2.473  0.00  0.00    +0.024 A 
ATOM      9  C   UNL     1       1.331  -2.399   2.421  0.00  0.00    +0.049 A 
ATOM     10  C   UNL     1       1.029  -1.807   1.204  0.00  0.00    +0.142 A 
ATOM     11  O   UNL     1       0.694  -0.489   1.162  0.00  0.00    -0.486 OA
ATOM     12 CL   UNL     1       2.168  -6.167   1.389  0.00  0.00    -0.083 Cl
ATOM     13  C   UNL     1       0.525  -2.723  -2.291  0.00  0.00    +0.307 C 
ATOM     14  O   UNL     1       0.652  -3.931  -2.240  0.00  0.00    -0.252 OA
ATOM     15  N   UNL     1       0.148  -2.133  -3.442  0.00  0.00    -0.295 N 
ATOM     16  H   UNL     1       0.118  -1.165  -3.504  0.00  0.00    +0.151 HD
ENDROOT
BRANCH  15  17
ATOM     17  C   UNL     1      -0.217  -2.953  -4.600  0.00  0.00    +0.141 C 
BRANCH  17  18
ATOM     18  C   UNL     1      -0.598  -2.057  -5.750  0.00  0.00    -0.030 A 
ATOM     19  C   UNL     1      -1.910  -1.653  -5.907  0.00  0.00    +0.005 A 
ATOM     20  C   UNL     1      -2.259  -0.831  -6.963  0.00  0.00    +0.000 A 
ATOM     21  C   UNL     1      -1.295  -0.412  -7.861  0.00  0.00    +0.000 A 
ATOM     22  C   UNL     1       0.018  -0.816  -7.703  0.00  0.00    +0.000 A 
ATOM     23  C   UNL     1       0.367  -1.634  -6.646  0.00  0.00    +0.005 A 
ENDBRANCH  17  18
ENDBRANCH  15  17
TORSDOF 2
