REMARK  Name = ZINC67390438
REMARK  7 active torsions:
REMARK  status: ('A' for Active; 'I' for Inactive)
REMARK    1  A    between atoms: C_1  and  C_2
REMARK    2  A    between atoms: N_5  and  C_8
REMARK    3  A    between atoms: C_8  and  C_9
REMARK    4  A    between atoms: C_9  and  C_10
REMARK    5  A    between atoms: C_10  and  C_11
REMARK    6  A    between atoms: C_11  and  N_12
REMARK    7  A    between atoms: C_19  and  C_22
REMARK                            x       y       z     vdW  Elec       q    Type
REMARK                         _______ _______ _______ _____ _____    ______ ____
ROOT
ATOM      1  N   UNL     1       0.395  -7.808   4.293  0.00  0.00    -0.299 N 
ATOM      2  C   UNL     1       0.886  -8.421   5.388  0.00  0.00    +0.302 C 
ATOM      3  O   UNL     1       1.446  -7.770   6.249  0.00  0.00    -0.253 OA
ATOM      4  N   UNL     1       0.757  -9.755   5.529  0.00  0.00    -0.281 N 
ATOM      5  C   UNL     1       0.187 -10.579   4.452  0.00  0.00    +0.137 C 
ATOM      6  C   UNL     1      -0.915 -11.461   5.049  0.00  0.00    +0.179 C 
ATOM      7  O   UNL     1      -0.394 -12.165   6.178  0.00  0.00    -0.369 OA
ATOM      8  C   UNL     1       0.030 -11.320   7.250  0.00  0.00    +0.168 C 
ATOM      9  C   UNL     1       1.186 -10.431   6.764  0.00  0.00    +0.145 C 
ATOM     10  H   UNL     1       0.015  -8.335   3.572  0.00  0.00    +0.150 HD
ENDROOT
BRANCH   8  11
ATOM     11  C   UNL     1       0.500 -12.168   8.405  0.00  0.00    +0.018 A 
ATOM     12  C   UNL     1       0.968 -13.448   8.177  0.00  0.00    +0.009 A 
ATOM     13  C   UNL     1       1.398 -14.226   9.235  0.00  0.00    +0.001 A 
ATOM     14  C   UNL     1       1.361 -13.724  10.523  0.00  0.00    +0.003 A 
ATOM     15  C   UNL     1       0.894 -12.444  10.753  0.00  0.00    +0.039 A 
ATOM     16  C   UNL     1       0.468 -11.662   9.693  0.00  0.00    +0.129 A 
ATOM     17  F   UNL     1       0.015 -10.409   9.916  0.00  0.00    -0.205 F 
ENDBRANCH   8  11
BRANCH   1  18
ATOM     18  C   UNL     1       0.436  -6.347   4.190  0.00  0.00    +0.105 C 
BRANCH  18  19
ATOM     19  C   UNL     1      -0.180  -5.912   2.858  0.00  0.00    +0.017 C 
BRANCH  19  20
ATOM     20  C   UNL     1      -0.137  -4.387   2.751  0.00  0.00    -0.017 C 
BRANCH  20  21
ATOM     21  C   UNL     1      -0.753  -3.952   1.420  0.00  0.00    -0.079 C 
BRANCH  21  26
ATOM     22  C   UNL     1      -0.026   1.527   0.015  0.00  0.00    +0.007 C 
ATOM     23  C   UNL     1      -0.004  -0.002   0.006  0.00  0.00    -0.018 C 
ATOM     24  C   UNL     1      -1.439  -0.536   0.025  0.00  0.00    -0.016 C 
ATOM     25  C   UNL     1      -1.409  -2.064   0.096  0.00  0.00    -0.079 C 
ATOM     26  N   UNL     1      -0.711  -2.487   1.317  0.00  0.00    +0.380 N 
ATOM     27  C   UNL     1       0.686  -2.040   1.272  0.00  0.00    -0.079 C 
ATOM     28  C   UNL     1       0.736  -0.511   1.246  0.00  0.00    -0.016 C 
ATOM     29  H   UNL     1      -1.167  -2.082   2.121  0.00  0.00    -0.082 HD
ENDBRANCH  21  26
ENDBRANCH  20  21
ENDBRANCH  19  20
ENDBRANCH  18  19
ENDBRANCH   1  18
TORSDOF 6
