REMARK  Name = ZINC14785674
REMARK  7 active torsions:
REMARK  status: ('A' for Active; 'I' for Inactive)
REMARK    1  A    between atoms: C_1  and  C_2
REMARK    2  A    between atoms: C_7  and  N_8
REMARK    3  A    between atoms: C_9  and  C_11
REMARK    4  A    between atoms: C_14  and  S_20
REMARK    5  A    between atoms: C_15  and  N_17
REMARK    6  A    between atoms: S_20  and  C_21
REMARK    7  A    between atoms: C_23  and  C_26
REMARK                            x       y       z     vdW  Elec       q    Type
REMARK                         _______ _______ _______ _____ _____    ______ ____
ROOT
ATOM      1  C   UNL     1      -3.678  -1.055  -0.198  0.00  0.00    +0.039 A 
ATOM      2  C   UNL     1      -4.888  -0.361  -0.300  0.00  0.00    +0.014 A 
ATOM      3  C   UNL     1      -6.064  -1.048  -0.406  0.00  0.00    +0.018 A 
ATOM      4  C   UNL     1      -6.064  -2.441  -0.404  0.00  0.00    +0.045 A 
ATOM      5  C   UNL     1      -4.864  -3.140  -0.298  0.00  0.00    +0.141 A 
ATOM      6  C   UNL     1      -3.675  -2.454  -0.196  0.00  0.00    +0.047 A 
ENDROOT
BRANCH   1   8
ATOM      7  N   UNL     1      -2.412   1.034  -0.091  0.00  0.00    -0.281 N 
ATOM      8  C   UNL     1      -2.408  -0.314  -0.088  0.00  0.00    +0.248 C 
ATOM      9  O   UNL     1      -1.357  -0.918   0.004  0.00  0.00    -0.270 OA
ATOM     10  H   UNL     1      -3.254   1.516  -0.087  0.00  0.00    +0.155 HD
BRANCH   7  17
ATOM     11  C   UNL     1      -2.390   3.680   0.955  0.00  0.00    +0.046 C 
ATOM     12  C   UNL     1      -1.147   3.031   0.401  0.00  0.00    -0.027 A 
ATOM     13  C   UNL     1       0.046   3.726   0.386  0.00  0.00    +0.043 A 
ATOM     14  C   UNL     1       1.188   3.132  -0.123  0.00  0.00    +0.124 A 
ATOM     15  C   UNL     1       1.137   1.839  -0.617  0.00  0.00    +0.040 A 
ATOM     16  C   UNL     1      -0.054   1.141  -0.604  0.00  0.00    +0.026 A 
ATOM     17  C   UNL     1      -1.203   1.738  -0.100  0.00  0.00    +0.037 A 
ATOM     18  F   UNL     1       2.355   3.813  -0.137  0.00  0.00    -0.205 F 
ENDBRANCH   7  17
ENDBRANCH   1   8
BRANCH   5  19
ATOM     19  N   UNL     1      -4.866  -4.621  -0.296  0.00  0.00    +0.058 N 
ATOM     20  O   UNL     1      -3.817  -5.232  -0.203  0.00  0.00    -0.126 OA
ATOM     21  O   UNL     1      -5.918  -5.228  -0.386  0.00  0.00    -0.126 OA
ENDBRANCH   5  19
BRANCH   4  22
ATOM     22  S   UNL     1      -7.585  -3.321  -0.534  0.00  0.00    -0.061 S 
BRANCH  22  23
ATOM     23  C   UNL     1      -7.597  -3.907  -2.196  0.00  0.00    +0.139 A 
ATOM     24  N   UNL     1      -8.469  -4.701  -2.789  0.00  0.00    -0.238 NA
ATOM     25  C   UNL     1      -8.328  -5.045  -4.054  0.00  0.00    +0.047 A 
ATOM     26  C   UNL     1      -7.263  -4.564  -4.740  0.00  0.00    +0.070 A 
ATOM     27  S   UNL     1      -6.470  -3.582  -3.476  0.00  0.00    -0.069 S 
ATOM     28  C   UNL     1      -9.330  -5.952  -4.723  0.00  0.00    +0.066 C 
ENDBRANCH  22  23
ENDBRANCH   4  22
TORSDOF 5
