REMARK  Name = ZINC43407027
REMARK  1 active torsions:
REMARK  status: ('A' for Active; 'I' for Inactive)
REMARK    1  A    between atoms: C_6  and  C_7
REMARK                            x       y       z     vdW  Elec       q    Type
REMARK                         _______ _______ _______ _____ _____    ______ ____
ROOT
ATOM      1  C   UNL     1      -0.017   1.394   0.010  0.00  0.00    +0.027 A 
ATOM      2  C   UNL     1       1.191   2.073   0.002  0.00  0.00    -0.025 A 
ATOM      3  C   UNL     1       2.377   1.361  -0.013  0.00  0.00    +0.047 A 
ATOM      4  N   UNL     1       2.368   0.037  -0.020  0.00  0.00    -0.235 NA
ATOM      5  C   UNL     1       1.246  -0.660  -0.012  0.00  0.00    +0.142 A 
ATOM      6  C   UNL     1       0.002  -0.004   0.002  0.00  0.00    +0.092 A 
ATOM      7  N   UNL     1       1.294  -2.045  -0.020  0.00  0.00    -0.278 N 
ATOM      8  C   UNL     1       2.519  -2.696  -0.035  0.00  0.00    +0.164 A 
ATOM      9  N   UNL     1       3.725  -2.170  -0.038  0.00  0.00    -0.229 NA
ATOM     10  C   UNL     1       4.821  -2.924  -0.053  0.00  0.00    +0.054 A 
ATOM     11  C   UNL     1       4.593  -4.262  -0.065  0.00  0.00    +0.014 A 
ATOM     12  S   UNL     1       2.825  -4.353  -0.047  0.00  0.00    -0.057 S 
ATOM     13  C   UNL     1       5.604  -5.358  -0.085  0.00  0.00    +0.044 C 
ATOM     14  C   UNL     1       6.965  -4.750  -0.460  0.00  0.00    +0.006 C 
ATOM     15  C   UNL     1       7.194  -3.494   0.386  0.00  0.00    +0.006 C 
ATOM     16  C   UNL     1       6.243  -2.380  -0.056  0.00  0.00    +0.056 C 
ATOM     17  C   UNL     1       3.546   2.325  -0.019  0.00  0.00    +0.056 C 
ATOM     18  C   UNL     1       2.951   3.682  -0.448  0.00  0.00    +0.011 C 
ATOM     19  C   UNL     1       1.481   3.558   0.006  0.00  0.00    +0.037 C 
ATOM     20  H   UNL     1       0.471  -2.559  -0.014  0.00  0.00    +0.156 HD
ENDROOT
BRANCH   6  21
ATOM     21  C   UNL     1      -1.219  -0.752   0.010  0.00  0.00    +0.103 C 
ATOM     22  N   UNL     1      -2.188  -1.345   0.017  0.00  0.00    -0.191 NA
ENDBRANCH   6  21
TORSDOF 1
