REMARK  Name = ZINC43230179
REMARK  5 active torsions:
REMARK  status: ('A' for Active; 'I' for Inactive)
REMARK    1  A    between atoms: C_1  and  C_2
REMARK    2  A    between atoms: C_2  and  C_3
REMARK    3  A    between atoms: C_2  and  C_4
REMARK    4  A    between atoms: C_9  and  N_10
REMARK    5  A    between atoms: C_17  and  C_20
REMARK                            x       y       z     vdW  Elec       q    Type
REMARK                         _______ _______ _______ _____ _____    ______ ____
ROOT
ATOM      1  N   UNL     1      -0.989  -1.445  -2.122  0.00  0.00    -0.269 N 
ATOM      2  C   UNL     1      -1.444  -2.043  -3.241  0.00  0.00    +0.307 C 
ATOM      3  O   UNL     1      -2.625  -2.311  -3.350  0.00  0.00    -0.252 OA
ATOM      4  N   UNL     1      -0.590  -2.344  -4.239  0.00  0.00    -0.280 N 
ATOM      5  C   UNL     1       0.822  -1.933  -4.178  0.00  0.00    +0.137 C 
ATOM      6  C   UNL     1       1.178  -1.230  -5.492  0.00  0.00    +0.179 C 
ATOM      7  O   UNL     1       0.807  -2.067  -6.590  0.00  0.00    -0.369 OA
ATOM      8  C   UNL     1      -0.595  -2.334  -6.676  0.00  0.00    +0.166 C 
ATOM      9  C   UNL     1      -1.040  -3.099  -5.419  0.00  0.00    +0.145 C 
ATOM     10  H   UNL     1      -0.058  -1.180  -2.058  0.00  0.00    +0.156 HD
ENDROOT
BRANCH   8  11
ATOM     11  C   UNL     1      -0.874  -3.169  -7.898  0.00  0.00    -0.017 A 
ATOM     12  C   UNL     1      -0.015  -4.195  -8.245  0.00  0.00    +0.009 A 
ATOM     13  C   UNL     1      -0.270  -4.962  -9.366  0.00  0.00    +0.039 A 
ATOM     14  C   UNL     1      -1.387  -4.703 -10.142  0.00  0.00    +0.123 A 
ATOM     15  C   UNL     1      -2.247  -3.675  -9.793  0.00  0.00    +0.039 A 
ATOM     16  C   UNL     1      -1.993  -2.913  -8.669  0.00  0.00    +0.009 A 
ATOM     17  F   UNL     1      -1.638  -5.452 -11.238  0.00  0.00    -0.205 F 
ENDBRANCH   8  11
BRANCH   1  23
ATOM     18  C   UNL     1      -1.364  -1.111   0.241  0.00  0.00    -0.024 A 
ATOM     19  C   UNL     1      -2.225  -0.870   1.294  0.00  0.00    +0.006 A 
ATOM     20  C   UNL     1      -3.581  -0.730   1.061  0.00  0.00    +0.000 A 
ATOM     21  C   UNL     1      -4.079  -0.830  -0.225  0.00  0.00    +0.002 A 
ATOM     22  C   UNL     1      -3.223  -1.071  -1.282  0.00  0.00    +0.023 A 
ATOM     23  C   UNL     1      -1.860  -1.207  -1.052  0.00  0.00    +0.038 A 
BRANCH  18  25
ATOM     24  C   UNL     1       0.680   0.057   1.020  0.00  0.00    +0.012 C 
ATOM     25  C   UNL     1       0.114  -1.264   0.495  0.00  0.00    +0.015 C 
ATOM     26  C   UNL     1       0.342  -2.365   1.532  0.00  0.00    +0.012 C 
ENDBRANCH  18  25
ENDBRANCH   1  23
TORSDOF 3
