REMARK  Name = ZINC15657775
REMARK  11 active torsions:
REMARK  status: ('A' for Active; 'I' for Inactive)
REMARK    1  A    between atoms: C_4  and  C_7
REMARK    2  A    between atoms: C_7  and  O_9
REMARK    3  A    between atoms: O_9  and  C_10
REMARK    4  A    between atoms: C_12  and  O_33
REMARK    5  A    between atoms: C_14  and  O_32
REMARK    6  A    between atoms: C_16  and  C_30
REMARK    7  A    between atoms: C_19  and  O_21
REMARK    8  A    between atoms: O_21  and  C_22
REMARK    9  A    between atoms: C_27  and  C_28
REMARK   10  A    between atoms: C_28  and  O_29
REMARK   11  A    between atoms: C_30  and  O_31
REMARK                            x       y       z     vdW  Elec       q    Type
REMARK                         _______ _______ _______ _____ _____    ______ ____
ROOT
ATOM      1  C   UNL     1       2.601  -0.534  -3.915  0.00  0.00    +0.276 C 
ATOM      2  C   UNL     1       3.020  -0.890  -5.345  0.00  0.00    +0.192 C 
ATOM      3  C   UNL     1       1.906  -1.710  -6.002  0.00  0.00    +0.178 C 
ATOM      4  C   UNL     1       0.602  -0.910  -5.961  0.00  0.00    +0.179 C 
ATOM      5  O   UNL     1       0.286  -0.585  -4.605  0.00  0.00    -0.330 OA
ATOM      6  C   UNL     1       1.270   0.221  -3.954  0.00  0.00    +0.352 C 
ENDROOT
BRANCH   3   7
ATOM      7  O   UNL     1       2.254  -1.987  -7.360  0.00  0.00    -0.386 OA
ATOM      8  H   UNL     1       1.592  -2.505  -7.838  0.00  0.00    +0.210 HD
ENDBRANCH   3   7
BRANCH   2   9
ATOM      9  O   UNL     1       4.224  -1.659  -5.313  0.00  0.00    -0.385 OA
ATOM     10  H   UNL     1       4.548  -1.919  -6.186  0.00  0.00    +0.210 HD
ENDBRANCH   2   9
BRANCH   1  11
ATOM     11  O   UNL     1       3.617   0.306  -3.305  0.00  0.00    -0.449 OA
BRANCH  11  12
ATOM     12  C   UNL     1       3.762   0.217  -1.969  0.00  0.00    +0.340 C 
ATOM     13  O   UNL     1       3.060  -0.540  -1.330  0.00  0.00    -0.245 OA
BRANCH  12  17
ATOM     14  C   UNL     1       6.678   2.587   0.011  0.00  0.00    +0.000 A 
ATOM     15  C   UNL     1       5.878   1.726   0.742  0.00  0.00    +0.001 A 
ATOM     16  C   UNL     1       4.929   0.953   0.105  0.00  0.00    +0.015 A 
ATOM     17  C   UNL     1       4.776   1.042  -1.280  0.00  0.00    +0.059 A 
ATOM     18  C   UNL     1       5.590   1.910  -2.012  0.00  0.00    +0.015 A 
ATOM     19  C   UNL     1       6.531   2.680  -1.362  0.00  0.00    +0.001 A 
ENDBRANCH  12  17
ENDBRANCH  11  12
ENDBRANCH   1  11
BRANCH   6  20
ATOM     20  O   UNL     1       0.845   0.508  -2.621  0.00  0.00    -0.459 OA
BRANCH  20  21
ATOM     21  C   UNL     1      -0.273   1.268  -2.479  0.00  0.00    +0.129 A 
ATOM     22  C   UNL     1      -0.949   1.725  -3.601  0.00  0.00    +0.046 A 
ATOM     23  C   UNL     1      -2.080   2.504  -3.455  0.00  0.00    +0.004 A 
ATOM     24  C   UNL     1      -2.543   2.822  -2.191  0.00  0.00    +0.001 A 
ATOM     25  C   UNL     1      -1.874   2.363  -1.072  0.00  0.00    +0.009 A 
ATOM     26  C   UNL     1      -0.742   1.585  -1.213  0.00  0.00    +0.020 A 
BRANCH  26  27
ATOM     27  C   UNL     1      -0.013   1.086   0.008  0.00  0.00    +0.194 C 
BRANCH  27  28
ATOM     28  O   UNL     1      -0.682   1.547   1.184  0.00  0.00    -0.390 OA
ATOM     29  H   UNL     1      -0.266   1.262   2.009  0.00  0.00    +0.210 HD
ENDBRANCH  27  28
ENDBRANCH  26  27
ENDBRANCH  20  21
ENDBRANCH   6  20
BRANCH   4  30
ATOM     30  C   UNL     1      -0.530  -1.747  -6.561  0.00  0.00    +0.190 C 
BRANCH  30  31
ATOM     31  O   UNL     1      -1.720  -0.960  -6.630  0.00  0.00    -0.392 OA
ATOM     32  H   UNL     1      -2.480  -1.428  -7.002  0.00  0.00    +0.210 HD
ENDBRANCH  30  31
ENDBRANCH   4  30
TORSDOF 11
