REMARK  Name = ZINC19933545
REMARK  4 active torsions:
REMARK  status: ('A' for Active; 'I' for Inactive)
REMARK    1  A    between atoms: C_1  and  N_2
REMARK    2  A    between atoms: P_10  and  S_20
REMARK    3  A    between atoms: C_17  and  C_18
REMARK    4  A    between atoms: S_20  and  C_21
REMARK                            x       y       z     vdW  Elec       q    Type
REMARK                         _______ _______ _______ _____ _____    ______ ____
ROOT
ATOM      1  C   UNL     1      -3.060   8.037   5.419  0.00  0.00    +0.105 C 
ATOM      2  N   UNL     1      -3.209   6.620   5.063  0.00  0.00    -0.302 NA
ATOM      3  C   UNL     1      -3.441   6.461   3.621  0.00  0.00    +0.103 C 
ATOM      4  C   UNL     1      -3.770   4.995   3.318  0.00  0.00    +0.122 C 
ATOM      5  N   UNL     1      -2.700   4.152   3.873  0.00  0.00    -0.312 N 
ATOM      6  C   UNL     1      -2.321   4.345   5.281  0.00  0.00    +0.122 C 
ATOM      7  C   UNL     1      -2.045   5.841   5.505  0.00  0.00    +0.103 C 
ATOM      8  C   UNL     1      -2.073   3.201   3.096  0.00  0.00    +0.142 C 
ATOM      9  N   UNL     1      -0.855   2.865   3.407  0.00  0.00    -0.211 NA
ATOM     10  P   UNL     1      -0.071   1.686   2.566  0.00  0.00    +0.174 P 
ATOM     11  S   UNL     1       1.693   2.195   2.250  0.00  0.00    -0.011 S 
ATOM     12  N   UNL     1      -0.873   1.508   1.137  0.00  0.00    -0.282 N 
ATOM     13  C   UNL     1      -0.368   0.946  -0.107  0.00  0.00    +0.112 C 
ATOM     14  C   UNL     1      -1.510   1.071  -1.140  0.00  0.00    +0.025 C 
ATOM     15  C   UNL     1      -2.753   1.301  -0.249  0.00  0.00    +0.054 C 
ATOM     16  C   UNL     1      -2.190   1.874   1.024  0.00  0.00    +0.033 C 
ATOM     17  C   UNL     1      -2.822   2.631   1.967  0.00  0.00    +0.109 C 
ENDROOT
BRANCH  17  18
ATOM     18  C   UNL     1      -4.229   2.872   1.857  0.00  0.00    +0.104 C 
ATOM     19  N   UNL     1      -5.345   3.064   1.769  0.00  0.00    -0.191 NA
ENDBRANCH  17  18
BRANCH  10  20
ATOM     20  S   UNL     1      -0.117  -0.133   3.655  0.00  0.00    -0.091 S 
ATOM     21  C   UNL     1       0.728   0.265   5.210  0.00  0.00    +0.093 C 
ENDBRANCH  10  20
TORSDOF 2
