REMARK  Name = ZINC24898294
REMARK  7 active torsions:
REMARK  status: ('A' for Active; 'I' for Inactive)
REMARK    1  A    between atoms: C_1  and  C_2
REMARK    2  A    between atoms: C_2  and  N_3
REMARK    3  A    between atoms: C_9  and  N_12
REMARK    4  A    between atoms: C_21  and  C_23
REMARK    5  A    between atoms: C_23  and  C_24
REMARK    6  A    between atoms: N_26  and  C_27
REMARK    7  A    between atoms: N_26  and  C_28
REMARK                            x       y       z     vdW  Elec       q    Type
REMARK                         _______ _______ _______ _____ _____    ______ ____
ROOT
ATOM      1  N   UNL     1      -1.085  -2.382  -3.173  0.00  0.00    +0.387 N 
ATOM      2  C   UNL     1      -1.047  -2.972  -4.520  0.00  0.00    -0.073 C 
ATOM      3  C   UNL     1      -1.294  -4.476  -4.398  0.00  0.00    +0.017 C 
ATOM      4  C   UNL     1      -0.376  -5.065  -3.357  0.00  0.00    -0.047 A 
ATOM      5  C   UNL     1      -0.188  -6.439  -3.342  0.00  0.00    +0.004 A 
ATOM      6  C   UNL     1       0.640  -7.019  -2.402  0.00  0.00    +0.000 A 
ATOM      7  C   UNL     1       1.287  -6.226  -1.472  0.00  0.00    +0.000 A 
ATOM      8  C   UNL     1       1.103  -4.858  -1.488  0.00  0.00    +0.002 A 
ATOM      9  C   UNL     1       0.271  -4.273  -2.433  0.00  0.00    -0.057 A 
ATOM     10  C   UNL     1       0.104  -2.776  -2.412  0.00  0.00    -0.028 C 
ATOM     11  H   UNL     1      -1.973  -2.764  -2.648  0.00  0.00    -0.081 HD
ENDROOT
BRANCH   1  18
ATOM     12  N   UNL     1      -0.762   2.781  -6.391  0.00  0.00    -0.300 N 
ATOM     13  C   UNL     1      -1.798   2.365  -5.636  0.00  0.00    +0.302 C 
ATOM     14  O   UNL     1      -2.926   2.740  -5.894  0.00  0.00    -0.253 OA
ATOM     15  N   UNL     1      -1.585   1.535  -4.597  0.00  0.00    -0.286 N 
ATOM     16  C   UNL     1      -0.219   1.166  -4.201  0.00  0.00    +0.108 C 
ATOM     17  C   UNL     1      -0.113  -0.361  -4.159  0.00  0.00    +0.004 C 
ATOM     18  C   UNL     1      -1.204  -0.919  -3.242  0.00  0.00    -0.065 C 
ATOM     19  C   UNL     1      -2.580  -0.546  -3.799  0.00  0.00    +0.004 C 
ATOM     20  C   UNL     1      -2.714   0.980  -3.838  0.00  0.00    +0.108 C 
ATOM     21  H   UNL     1       0.245   2.373  -6.215  0.00  0.00    +0.150 HD
BRANCH  12  23
ATOM     22  C   UNL     1       0.353   4.069  -8.146  0.00  0.00    +0.024 C 
ATOM     23  C   UNL     1      -0.975   3.775  -7.446  0.00  0.00    +0.102 C 
ENDBRANCH  12  23
ENDBRANCH   1  18
BRANCH  10  24
ATOM     24  C   UNL     1      -0.043  -2.304  -0.964  0.00  0.00    +0.085 C 
BRANCH  24  25
ATOM     25  C   UNL     1      -1.302  -2.884  -0.373  0.00  0.00    +0.214 C 
ATOM     26  O   UNL     1      -1.988  -3.639  -1.028  0.00  0.00    -0.276 OA
ATOM     27  N   UNL     1      -1.667  -2.562   0.884  0.00  0.00    -0.308 N 
ATOM     28  C   UNL     1      -2.830  -3.206   1.498  0.00  0.00    +0.131 C 
ATOM     29  C   UNL     1      -0.898  -1.567   1.638  0.00  0.00    +0.131 C 
ENDBRANCH  24  25
ENDBRANCH  10  24
TORSDOF 4
