REMARK  Name = ZINC67648635
REMARK  6 active torsions:
REMARK  status: ('A' for Active; 'I' for Inactive)
REMARK    1  A    between atoms: C_4  and  C_7
REMARK    2  A    between atoms: C_7  and  C_8
REMARK    3  A    between atoms: N_12  and  C_16
REMARK    4  A    between atoms: C_16  and  N_17
REMARK    5  A    between atoms: N_20  and  C_23
REMARK    6  A    between atoms: C_23  and  C_24
REMARK                            x       y       z     vdW  Elec       q    Type
REMARK                         _______ _______ _______ _____ _____    ______ ____
ROOT
ATOM      1  C   UNL     1       4.117  -0.325   1.780  0.00  0.00    +0.165 C 
ATOM      2  C   UNL     1       5.420  -1.095   1.698  0.00  0.00    +0.245 C 
ATOM      3  O   UNL     1       6.469  -0.710   1.228  0.00  0.00    -0.273 OA
ATOM      4  N   UNL     1       5.169  -2.295   2.257  0.00  0.00    -0.211 N 
ATOM      5  C   UNL     1       3.902  -2.390   2.677  0.00  0.00    +0.310 C 
ATOM      6  O   UNL     1       3.440  -3.377   3.214  0.00  0.00    -0.252 OA
ATOM      7  N   UNL     1       3.195  -1.266   2.439  0.00  0.00    -0.287 N 
ATOM      8  H   UNL     1       2.264  -1.108   2.659  0.00  0.00    +0.151 HD
ENDROOT
BRANCH   1   9
ATOM      9  C   UNL     1       3.612   0.032   0.381  0.00  0.00    +0.067 C 
BRANCH   9  13
ATOM     10  C   UNL     1       0.050   2.368   0.699  0.00  0.00    +0.000 A 
ATOM     11  C   UNL     1       1.284   2.990   0.666  0.00  0.00    +0.000 A 
ATOM     12  C   UNL     1       2.437   2.234   0.563  0.00  0.00    +0.004 A 
ATOM     13  C   UNL     1       2.356   0.856   0.494  0.00  0.00    -0.045 A 
ATOM     14  C   UNL     1       1.122   0.233   0.528  0.00  0.00    +0.004 A 
ATOM     15  C   UNL     1      -0.031   0.990   0.629  0.00  0.00    +0.000 A 
ENDBRANCH   9  13
ENDBRANCH   1   9
BRANCH   4  16
ATOM     16  C   UNL     1       6.162  -3.365   2.388  0.00  0.00    +0.204 C 
BRANCH  16  17
ATOM     17  N   UNL     1       6.867  -3.224   3.669  0.00  0.00    -0.290 NA
ATOM     18  C   UNL     1       7.934  -2.219   3.575  0.00  0.00    +0.067 C 
ATOM     19  C   UNL     1       8.603  -2.060   4.942  0.00  0.00    -0.063 C 
ATOM     20  N   UNL     1       9.160  -3.351   5.368  0.00  0.00    +0.382 N 
ATOM     21  C   UNL     1       8.078  -4.339   5.481  0.00  0.00    -0.063 C 
ATOM     22  C   UNL     1       7.405  -4.516   4.118  0.00  0.00    +0.067 C 
ATOM     23  H   UNL     1       9.834  -3.667   4.687  0.00  0.00    -0.082 HD
BRANCH  20  24
ATOM     24  C   UNL     1       9.818  -3.194   6.672  0.00  0.00    -0.075 C 
BRANCH  24  25
ATOM     25  C   UNL     1      11.037  -2.283   6.521  0.00  0.00    -0.028 C 
ATOM     26  C   UNL     1      12.078  -2.967   5.633  0.00  0.00    +0.002 C 
ATOM     27  C   UNL     1      13.298  -2.055   5.482  0.00  0.00    +0.000 C 
ATOM     28  C   UNL     1      13.904  -1.783   6.860  0.00  0.00    +0.000 C 
ATOM     29  C   UNL     1      12.863  -1.099   7.749  0.00  0.00    +0.000 C 
ATOM     30  C   UNL     1      11.643  -2.010   7.900  0.00  0.00    +0.002 C 
ENDBRANCH  24  25
ENDBRANCH  20  24
ENDBRANCH  16  17
ENDBRANCH   4  16
TORSDOF 6
