REMARK  Name = ZINC09613581
REMARK  4 active torsions:
REMARK  status: ('A' for Active; 'I' for Inactive)
REMARK    1  A    between atoms: C_3  and  C_6
REMARK    2  A    between atoms: C_11  and  C_14
REMARK    3  A    between atoms: N_19  and  S_22
REMARK    4  A    between atoms: S_22  and  C_25
REMARK                            x       y       z     vdW  Elec       q    Type
REMARK                         _______ _______ _______ _____ _____    ______ ____
ROOT
ATOM      1  C   UNL     1      -0.428  -3.780   1.239  0.00  0.00    +0.219 C 
ATOM      2  O   UNL     1       0.489  -4.349   1.793  0.00  0.00    -0.275 OA
ATOM      3  N   UNL     1      -0.370  -2.449   1.036  0.00  0.00    -0.299 N 
ATOM      4  C   UNL     1      -1.437  -1.758   0.297  0.00  0.00    +0.125 C 
ATOM      5  C   UNL     1      -0.806  -0.989  -0.870  0.00  0.00    +0.128 C 
ATOM      6  N   UNL     1       0.324  -0.202  -0.357  0.00  0.00    -0.174 NA
ATOM      7  C   UNL     1       1.393  -0.893   0.377  0.00  0.00    +0.128 C 
ATOM      8  C   UNL     1       0.759  -1.662   1.549  0.00  0.00    +0.125 C 
ENDROOT
BRANCH   1  14
ATOM      9  C   UNL     1      -4.624  -7.179   1.808  0.00  0.00    +0.282 C 
ATOM     10  O   UNL     1      -5.659  -6.758   2.291  0.00  0.00    -0.267 OA
ATOM     11  N   UNL     1      -3.797  -6.341   1.152  0.00  0.00    -0.295 N 
ATOM     12  C   UNL     1      -2.590  -6.850   0.487  0.00  0.00    +0.109 C 
ATOM     13  C   UNL     1      -1.379  -6.056   0.989  0.00  0.00    +0.032 C 
ATOM     14  C   UNL     1      -1.631  -4.562   0.778  0.00  0.00    +0.078 C 
ATOM     15  C   UNL     1      -2.858  -4.130   1.583  0.00  0.00    +0.032 C 
ATOM     16  C   UNL     1      -4.086  -4.902   1.089  0.00  0.00    +0.109 C 
BRANCH   9  19
ATOM     17  C   UNL     1      -4.276 -10.743   2.521  0.00  0.00    +0.042 A 
ATOM     18  C   UNL     1      -4.952  -9.523   2.684  0.00  0.00    +0.054 A 
ATOM     19  C   UNL     1      -4.277  -8.598   1.940  0.00  0.00    +0.189 A 
ATOM     20  O   UNL     1      -3.239  -9.219   1.343  0.00  0.00    -0.458 OA
ATOM     21  C   UNL     1      -3.232 -10.511   1.695  0.00  0.00    +0.196 A 
ENDBRANCH   9  19
ENDBRANCH   1  14
BRANCH   6  22
ATOM     22  S   UNL     1       0.395   1.434  -0.607  0.00  0.00    +0.061 S 
ATOM     23  O   UNL     1       1.765   1.799  -0.523  0.00  0.00    -0.153 OA
ATOM     24  O   UNL     1      -0.397   1.704  -1.756  0.00  0.00    -0.153 OA
BRANCH  22  25
ATOM     25  C   UNL     1      -0.416   2.205   0.755  0.00  0.00    +0.106 A 
ATOM     26  C   UNL     1      -1.772   2.467   0.697  0.00  0.00    +0.029 A 
ATOM     27  C   UNL     1      -2.400   3.067   1.768  0.00  0.00    +0.006 A 
ATOM     28  C   UNL     1      -1.679   3.421   2.901  0.00  0.00    -0.044 A 
ATOM     29  C   UNL     1      -0.329   3.162   2.958  0.00  0.00    -0.042 A 
ATOM     30  C   UNL     1       0.301   2.553   1.880  0.00  0.00    +0.032 A 
ATOM     31  C   UNL     1       0.514   3.509   4.158  0.00  0.00    +0.035 C 
ATOM     32  C   UNL     1      -0.203   4.529   5.040  0.00  0.00    +0.005 C 
ATOM     33  C   UNL     1      -1.619   4.014   5.323  0.00  0.00    +0.005 C 
ATOM     34  C   UNL     1      -2.425   4.087   4.028  0.00  0.00    +0.035 C 
ENDBRANCH  22  25
ENDBRANCH   6  22
TORSDOF 4
