REMARK  Name = ZINC45955088
REMARK  7 active torsions:
REMARK  status: ('A' for Active; 'I' for Inactive)
REMARK    1  A    between atoms: C_1  and  C_2
REMARK    2  A    between atoms: C_5  and  N_9
REMARK    3  A    between atoms: N_12  and  C_13
REMARK    4  A    between atoms: C_13  and  C_14
REMARK    5  A    between atoms: C_19  and  N_20
REMARK    6  A    between atoms: N_20  and  S_21
REMARK    7  A    between atoms: S_21  and  C_24
REMARK                            x       y       z     vdW  Elec       q    Type
REMARK                         _______ _______ _______ _____ _____    ______ ____
ROOT
ATOM      1  N   UNL     1       0.098  -4.062  -0.403  0.00  0.00    -0.268 N 
ATOM      2  C   UNL     1      -0.049  -4.803  -1.519  0.00  0.00    +0.304 C 
ATOM      3  O   UNL     1      -0.114  -4.260  -2.605  0.00  0.00    -0.252 OA
ATOM      4  N   UNL     1      -0.121  -6.146  -1.432  0.00  0.00    -0.295 N 
ATOM      5  H   UNL     1       0.233  -4.497   0.454  0.00  0.00    +0.156 HD
ATOM      6  H   UNL     1      -0.069  -6.579  -0.565  0.00  0.00    +0.151 HD
ENDROOT
BRANCH   1  11
ATOM      7  C   UNL     1      -0.080   1.601  -0.714  0.00  0.00    +0.044 C 
ATOM      8  C   UNL     1      -0.032   0.097  -0.631  0.00  0.00    -0.049 A 
ATOM      9  C   UNL     1      -0.661  -0.667  -1.597  0.00  0.00    +0.005 A 
ATOM     10  C   UNL     1      -0.620  -2.046  -1.524  0.00  0.00    +0.025 A 
ATOM     11  C   UNL     1       0.054  -2.665  -0.480  0.00  0.00    +0.053 A 
ATOM     12  C   UNL     1       0.685  -1.895   0.489  0.00  0.00    +0.062 A 
ATOM     13  C   UNL     1       0.644  -0.515   0.407  0.00  0.00    +0.025 A 
ATOM     14 CL   UNL     1       1.529  -2.663   1.797  0.00  0.00    -0.082 Cl
ENDBRANCH   1  11
BRANCH   4  15
ATOM     15  C   UNL     1      -0.280  -6.952  -2.645  0.00  0.00    +0.143 C 
BRANCH  15  16
ATOM     16  C   UNL     1      -0.335  -8.412  -2.275  0.00  0.00    -0.008 A 
ATOM     17  C   UNL     1       0.791  -9.201  -2.407  0.00  0.00    +0.007 A 
ATOM     18  C   UNL     1       0.742 -10.540  -2.068  0.00  0.00    +0.000 A 
ATOM     19  C   UNL     1      -0.434 -11.095  -1.596  0.00  0.00    +0.002 A 
ATOM     20  C   UNL     1      -1.563 -10.312  -1.462  0.00  0.00    +0.025 A 
ATOM     21  C   UNL     1      -1.516  -8.964  -1.796  0.00  0.00    +0.052 A 
BRANCH  21  22
ATOM     22  N   UNL     1      -2.655  -8.168  -1.656  0.00  0.00    -0.221 N 
ATOM     23  H   UNL     1      -2.832  -7.459  -2.294  0.00  0.00    +0.173 HD
BRANCH  22  24
ATOM     24  S   UNL     1      -3.702  -8.434  -0.401  0.00  0.00    +0.040 S 
ATOM     25  O   UNL     1      -4.673  -7.403  -0.515  0.00  0.00    -0.155 OA
ATOM     26  O   UNL     1      -4.076  -9.799  -0.524  0.00  0.00    -0.155 OA
ATOM     27  C   UNL     1      -2.707  -8.191   1.096  0.00  0.00    +0.218 C 
ENDBRANCH  22  24
ENDBRANCH  21  22
ENDBRANCH  15  16
ENDBRANCH   4  15
TORSDOF 5
