REMARK  Name = ZINC23641114
REMARK  3 active torsions:
REMARK  status: ('A' for Active; 'I' for Inactive)
REMARK    1  A    between atoms: C_11  and  N_13
REMARK    2  A    between atoms: N_13  and  C_14
REMARK    3  A    between atoms: C_15  and  N_21
REMARK                            x       y       z     vdW  Elec       q    Type
REMARK                         _______ _______ _______ _____ _____    ______ ____
ROOT
ATOM      1  C   UNL     1       1.138   1.782  -0.017  0.00  0.00    +0.003 A 
ATOM      2  C   UNL     1       1.127   3.159   0.003  0.00  0.00    +0.007 A 
ATOM      3  C   UNL     1      -0.071   3.869   0.020  0.00  0.00    -0.011 A 
ATOM      4  C   UNL     1      -1.261   3.166   0.013  0.00  0.00    +0.048 A 
ATOM      5  C   UNL     1      -1.249   1.770  -0.003  0.00  0.00    +0.137 A 
ATOM      6  C   UNL     1      -0.054   1.079  -0.014  0.00  0.00    +0.039 A 
ATOM      7  F   UNL     1      -2.416   1.089  -0.003  0.00  0.00    -0.204 F 
ATOM      8  S   UNL     1      -2.828   3.979   0.009  0.00  0.00    -0.122 S 
ATOM      9  C   UNL     1      -2.406   5.703   0.400  0.00  0.00    +0.076 C 
ATOM     10  C   UNL     1      -1.196   6.080  -0.468  0.00  0.00    +0.038 C 
ATOM     11  C   UNL     1       0.035   5.365   0.060  0.00  0.00    +0.104 C 
ENDROOT
BRANCH  11  12
ATOM     12  N   UNL     1       1.192   5.774  -0.740  0.00  0.00    -0.320 N 
ATOM     13  H   UNL     1       1.285   5.440  -1.784  0.00  0.00    +0.148 HD
BRANCH  12  14
ATOM     14  C   UNL     1       2.122   6.540  -0.209  0.00  0.00    +0.150 A 
ATOM     15  C   UNL     1       3.182   7.031  -1.008  0.00  0.00    +0.166 A 
ATOM     16  C   UNL     1       4.134   7.816  -0.440  0.00  0.00    +0.038 A 
ATOM     17  C   UNL     1       4.053   8.129   0.928  0.00  0.00    +0.022 A 
ATOM     18  C   UNL     1       3.036   7.654   1.678  0.00  0.00    +0.113 A 
ATOM     19  N   UNL     1       2.069   6.869   1.124  0.00  0.00    -0.238 NA
BRANCH  15  20
ATOM     20  N   UNL     1       3.253   6.692  -2.447  0.00  0.00    +0.060 N 
ATOM     21  O   UNL     1       2.396   5.987  -2.949  0.00  0.00    -0.126 OA
ATOM     22  O   UNL     1       4.168   7.117  -3.128  0.00  0.00    -0.126 OA
ENDBRANCH  15  20
ENDBRANCH  12  14
ENDBRANCH  11  12
TORSDOF 3
