REMARK  Name = ZINC43426099
REMARK  4 active torsions:
REMARK  status: ('A' for Active; 'I' for Inactive)
REMARK    1  A    between atoms: C_1  and  C_2
REMARK    2  A    between atoms: C_2  and  C_4
REMARK    3  A    between atoms: C_2  and  O_22
REMARK    4  A    between atoms: C_9  and  N_10
REMARK                            x       y       z     vdW  Elec       q    Type
REMARK                         _______ _______ _______ _____ _____    ______ ____
ROOT
ATOM      1  C   UNL     1       0.884  -0.974   3.642  0.00  0.00    +0.002 A 
ATOM      2  C   UNL     1       2.203  -1.384   3.650  0.00  0.00    +0.008 A 
ATOM      3  C   UNL     1       2.911  -1.465   2.465  0.00  0.00    +0.000 A 
ATOM      4  C   UNL     1       2.301  -1.136   1.268  0.00  0.00    +0.002 A 
ATOM      5  C   UNL     1       0.983  -0.726   1.252  0.00  0.00    +0.023 A 
ATOM      6  C   UNL     1       0.267  -0.649   2.441  0.00  0.00    +0.036 A 
ENDROOT
BRANCH   6   7
ATOM      7  N   UNL     1      -1.068  -0.239   2.428  0.00  0.00    -0.322 N 
ATOM      8  C   UNL     1      -2.163  -1.198   2.194  0.00  0.00    +0.133 C 
ATOM      9  C   UNL     1      -3.082  -0.644   1.101  0.00  0.00    +0.179 C 
ATOM     10  O   UNL     1      -3.460   0.700   1.419  0.00  0.00    -0.373 OA
ATOM     11  C   UNL     1      -2.356   1.598   1.498  0.00  0.00    +0.139 C 
ATOM     12  C   UNL     1      -1.440   1.163   2.654  0.00  0.00    +0.102 C 
ATOM     13  C   UNL     1      -0.203   2.059   2.672  0.00  0.00    +0.025 C 
ATOM     14  C   UNL     1      -0.643   3.507   2.911  0.00  0.00    +0.002 C 
ATOM     15  C   UNL     1      -1.594   3.953   1.800  0.00  0.00    +0.003 C 
ATOM     16  C   UNL     1      -2.819   3.029   1.761  0.00  0.00    +0.033 C 
ENDBRANCH   6   7
BRANCH   1  18
ATOM     17  C   UNL     1      -0.650  -2.192   5.163  0.00  0.00    +0.043 C 
ATOM     18  C   UNL     1       0.114  -0.885   4.934  0.00  0.00    +0.143 C 
BRANCH  18  19
ATOM     19  O   UNL     1       1.021  -0.669   6.016  0.00  0.00    -0.387 OA
ATOM     20  H   UNL     1       0.594  -0.601   6.880  0.00  0.00    +0.210 HD
ENDBRANCH  18  19
ENDBRANCH   1  18
TORSDOF 3
