REMARK  Name = ZINC38767040
REMARK  4 active torsions:
REMARK  status: ('A' for Active; 'I' for Inactive)
REMARK    1  A    between atoms: C_1  and  C_2
REMARK    2  A    between atoms: C_5  and  C_23
REMARK    3  A    between atoms: C_6  and  C_8
REMARK    4  A    between atoms: C_16  and  C_22
REMARK                            x       y       z     vdW  Elec       q    Type
REMARK                         _______ _______ _______ _____ _____    ______ ____
ROOT
ATOM      1  C   UNL     1       0.497  -2.727   2.509  0.00  0.00    +0.047 C 
ATOM      2  C   UNL     1      -0.641  -2.414   3.484  0.00  0.00    +0.105 C 
ATOM      3  C   UNL     1      -0.284  -2.836   4.879  0.00  0.00    +0.219 C 
ATOM      4  O   UNL     1      -1.183  -2.996   5.677  0.00  0.00    -0.275 OA
ATOM      5  N   UNL     1       0.973  -3.047   5.291  0.00  0.00    -0.273 N 
ATOM      6  C   UNL     1       2.020  -2.959   4.422  0.00  0.00    +0.116 C 
ATOM      7  N   UNL     1       3.172  -3.506   4.706  0.00  0.00    -0.224 NA
ATOM      8  C   UNL     1       4.180  -3.530   3.841  0.00  0.00    +0.121 C 
ATOM      9  N   UNL     1       4.075  -3.053   2.622  0.00  0.00    -0.165 NA
ATOM     10  C   UNL     1       2.961  -2.462   2.194  0.00  0.00    +0.249 C 
ATOM     11  O   UNL     1       2.878  -2.110   1.034  0.00  0.00    -0.273 OA
ATOM     12  C   UNL     1       1.808  -2.226   3.121  0.00  0.00    +0.148 C 
ATOM     13  C   UNL     1       5.495  -4.126   4.276  0.00  0.00    +0.085 C 
ATOM     14  H   UNL     1       1.141  -3.265   6.221  0.00  0.00    +0.156 HD
ENDROOT
BRANCH   1  20
ATOM     15  C   UNL     1       0.004   1.501  -0.123  0.00  0.00    +0.044 C 
ATOM     16  C   UNL     1       0.013  -0.005  -0.061  0.00  0.00    -0.050 A 
ATOM     17  C   UNL     1      -0.206  -0.745  -1.209  0.00  0.00    +0.003 A 
ATOM     18  C   UNL     1      -0.198  -2.126  -1.153  0.00  0.00    +0.004 A 
ATOM     19  C   UNL     1       0.029  -2.767   0.051  0.00  0.00    -0.047 A 
ATOM     20  C   UNL     1       0.249  -2.028   1.197  0.00  0.00    -0.040 A 
ATOM     21  C   UNL     1       0.245  -0.646   1.141  0.00  0.00    +0.007 A 
ATOM     22  C   UNL     1       0.037  -4.273   0.112  0.00  0.00    +0.044 C 
ENDBRANCH   1  20
TORSDOF 1
