REMARK  Name = ZINC20709737
REMARK  6 active torsions:
REMARK  status: ('A' for Active; 'I' for Inactive)
REMARK    1  A    between atoms: C_1  and  C_2
REMARK    2  A    between atoms: C_2  and  N_3
REMARK    3  A    between atoms: C_4  and  C_6
REMARK    4  A    between atoms: C_13  and  C_22
REMARK    5  A    between atoms: C_24  and  N_29
REMARK    6  A    between atoms: C_27  and  O_28
REMARK                            x       y       z     vdW  Elec       q    Type
REMARK                         _______ _______ _______ _____ _____    ______ ____
ROOT
ATOM      1  C   UNL     1       3.058   2.386  -1.532  0.00  0.00    +0.058 A 
ATOM      2  C   UNL     1       3.853   1.980  -2.605  0.00  0.00    +0.015 A 
ATOM      3  C   UNL     1       3.574   0.795  -3.249  0.00  0.00    +0.001 A 
ATOM      4  C   UNL     1       2.512   0.012  -2.837  0.00  0.00    +0.006 A 
ATOM      5  C   UNL     1       1.709   0.399  -1.774  0.00  0.00    -0.019 A 
ATOM      6  C   UNL     1       1.978   1.585  -1.113  0.00  0.00    +0.044 A 
ATOM      7  N   UNL     1       1.221   2.024  -0.039  0.00  0.00    -0.336 N 
ATOM      8  C   UNL     1      -0.145   1.500  -0.071  0.00  0.00    +0.108 C 
ATOM      9  C   UNL     1      -0.103  -0.030  -0.082  0.00  0.00    +0.029 C 
ATOM     10  C   UNL     1       0.572  -0.501  -1.388  0.00  0.00    +0.049 C 
ATOM     11  C   UNL     1      -0.533  -0.435  -2.417  0.00  0.00    -0.023 C 
ATOM     12  C   UNL     1      -1.705  -0.454  -1.834  0.00  0.00    -0.030 C 
ATOM     13  C   UNL     1      -1.549  -0.544  -0.329  0.00  0.00    +0.033 C 
ATOM     14  H   UNL     1       1.537   2.686   0.781  0.00  0.00    +0.147 HD
ENDROOT
BRANCH   8  15
ATOM     15  C   UNL     1      -0.894   1.974   1.147  0.00  0.00    +0.017 A 
ATOM     16  C   UNL     1      -2.172   2.483   1.019  0.00  0.00    +0.041 A 
ATOM     17  C   UNL     1      -2.862   2.913   2.137  0.00  0.00    +0.127 A 
ATOM     18  C   UNL     1      -2.271   2.846   3.385  0.00  0.00    +0.036 A 
ATOM     19  C   UNL     1      -0.991   2.343   3.518  0.00  0.00    +0.048 A 
ATOM     20  C   UNL     1      -0.299   1.905   2.398  0.00  0.00    +0.122 A 
BRANCH  17  21
ATOM     21  N   UNL     1      -4.233   3.453   1.997  0.00  0.00    +0.056 N 
ATOM     22  O   UNL     1      -4.839   3.837   2.981  0.00  0.00    -0.126 OA
ATOM     23  O   UNL     1      -4.754   3.513   0.898  0.00  0.00    -0.126 OA
ENDBRANCH  17  21
BRANCH  20  24
ATOM     24  O   UNL     1       0.960   1.410   2.527  0.00  0.00    -0.506 OA
ATOM     25  H   UNL     1       1.431   1.355   3.519  0.00  0.00    +0.292 HD
ENDBRANCH  20  24
ENDBRANCH   8  15
BRANCH   1  27
ATOM     26  N   UNL     1       4.293   4.486  -1.320  0.00  0.00    -0.312 N 
ATOM     27  C   UNL     1       3.348   3.654  -0.838  0.00  0.00    +0.246 C 
ATOM     28  O   UNL     1       2.736   3.949   0.170  0.00  0.00    -0.270 OA
ATOM     29  H   UNL     1       4.847   4.219  -2.232  0.00  0.00    +0.149 HD
BRANCH  26  31
ATOM     30  C   UNL     1       5.685   6.496  -1.379  0.00  0.00    +0.024 C 
ATOM     31  C   UNL     1       4.581   5.746  -0.630  0.00  0.00    +0.101 C 
ENDBRANCH  26  31
ENDBRANCH   1  27
TORSDOF 5
