REMARK  Name = ZINC50565270
REMARK  4 active torsions:
REMARK  status: ('A' for Active; 'I' for Inactive)
REMARK    1  A    between atoms: C_1  and  C_2
REMARK    2  A    between atoms: N_7  and  S_11
REMARK    3  A    between atoms: C_8  and  C_10
REMARK    4  A    between atoms: S_11  and  C_14
REMARK                            x       y       z     vdW  Elec       q    Type
REMARK                         _______ _______ _______ _____ _____    ______ ____
ROOT
ATOM      1  S   UNL     1       0.955  -2.967   2.592  0.00  0.00    +0.069 S 
ATOM      2  O   UNL     1      -0.036  -2.332   3.388  0.00  0.00    -0.152 OA
ATOM      3  O   UNL     1       0.810  -4.297   2.112  0.00  0.00    -0.152 OA
ENDROOT
BRANCH   1   9
ATOM      4  C   UNL     1       0.007   1.464   0.305  0.00  0.00    +0.009 C 
ATOM      5  C   UNL     1       0.053  -0.066   0.306  0.00  0.00    +0.005 C 
ATOM      6  C   UNL     1       0.495  -0.564  -1.072  0.00  0.00    +0.006 C 
ATOM      7  C   UNL     1       0.510  -2.094  -1.082  0.00  0.00    +0.017 C 
ATOM      8  C   UNL     1       1.514  -2.598  -0.041  0.00  0.00    +0.110 C 
ATOM      9  N   UNL     1       1.181  -2.006   1.262  0.00  0.00    -0.173 NA
ATOM     10  C   UNL     1       1.051  -0.546   1.363  0.00  0.00    +0.080 C 
ATOM     11  C   UNL     1       0.543  -0.171   2.757  0.00  0.00    +0.026 C 
ENDBRANCH   1   9
BRANCH   1  12
ATOM     12  C   UNL     1       2.450  -2.928   3.524  0.00  0.00    +0.163 A 
ATOM     13  C   UNL     1       2.828  -2.088   4.520  0.00  0.00    +0.149 A 
ATOM     14  N   UNL     1       4.018  -2.287   5.051  0.00  0.00    -0.234 NA
ATOM     15  C   UNL     1       4.798  -3.254   4.632  0.00  0.00    +0.169 A 
ATOM     16  S   UNL     1       3.884  -3.986   3.423  0.00  0.00    -0.036 S 
ATOM     17 CL   UNL     1       6.385  -3.680   5.193  0.00  0.00    -0.054 Cl
ENDBRANCH   1  12
TORSDOF 2
