REMARK  Name = ZINC00222232
REMARK  2 active torsions:
REMARK  status: ('A' for Active; 'I' for Inactive)
REMARK    1  A    between atoms: C_6  and  C_7
REMARK    2  A    between atoms: C_10  and  C_18
REMARK                            x       y       z     vdW  Elec       q    Type
REMARK                         _______ _______ _______ _____ _____    ______ ____
ROOT
ATOM      1  C   UNL     1      -1.293  -0.775   0.010  0.00  0.00    +0.144 C 
ATOM      2  C   UNL     1      -1.374  -1.657  -1.242  0.00  0.00    +0.059 C 
ATOM      3  C   UNL     1      -2.540  -2.643  -1.107  0.00  0.00    +0.106 C 
ATOM      4  N   UNL     1      -2.282  -3.525   0.048  0.00  0.00    -0.305 N 
ATOM      5  C   UNL     1      -1.806  -2.907   1.196  0.00  0.00    +0.236 A 
ATOM      6  N   UNL     1      -1.348  -1.627   1.194  0.00  0.00    -0.206 N 
ATOM      7  N   UNL     1      -0.969  -1.362   2.510  0.00  0.00    -0.042 NA
ATOM      8  N   UNL     1      -1.209  -2.438   3.187  0.00  0.00    -0.021 NA
ATOM      9  N   UNL     1      -1.699  -3.355   2.415  0.00  0.00    -0.092 NA
ATOM     10  H   UNL     1      -2.437  -4.482   0.008  0.00  0.00    +0.150 HD
ENDROOT
BRANCH   1  16
ATOM     11  C   UNL     1      -0.017   1.378   0.010  0.00  0.00    +0.008 A 
ATOM     12  C   UNL     1       1.170   2.086   0.002  0.00  0.00    +0.038 A 
ATOM     13  C   UNL     1       2.379   1.410  -0.013  0.00  0.00    +0.123 A 
ATOM     14  C   UNL     1       2.396   0.026  -0.021  0.00  0.00    +0.038 A 
ATOM     15  C   UNL     1       1.208  -0.680  -0.013  0.00  0.00    +0.008 A 
ATOM     16  C   UNL     1       0.002  -0.004   0.002  0.00  0.00    -0.023 A 
ATOM     17  F   UNL     1       3.540   2.101  -0.021  0.00  0.00    -0.205 F 
ENDBRANCH   1  16
BRANCH   3  18
ATOM     18  C   UNL     1      -3.823  -1.883  -0.890  0.00  0.00    -0.027 A 
ATOM     19  C   UNL     1      -4.132  -1.393   0.365  0.00  0.00    +0.007 A 
ATOM     20  C   UNL     1      -5.308  -0.695   0.565  0.00  0.00    +0.020 A 
ATOM     21  C   UNL     1      -6.177  -0.487  -0.492  0.00  0.00    +0.041 A 
ATOM     22  C   UNL     1      -5.867  -0.978  -1.748  0.00  0.00    +0.020 A 
ATOM     23  C   UNL     1      -4.687  -1.670  -1.948  0.00  0.00    +0.007 A 
ATOM     24 CL   UNL     1      -7.654   0.389  -0.242  0.00  0.00    -0.084 Cl
ENDBRANCH   3  18
TORSDOF 2
