REMARK  Name = ZINC61851086
REMARK  4 active torsions:
REMARK  status: ('A' for Active; 'I' for Inactive)
REMARK    1  A    between atoms: C_1  and  N_2
REMARK    2  A    between atoms: C_3  and  C_5
REMARK    3  A    between atoms: N_11  and  C_12
REMARK    4  A    between atoms: C_15  and  C_19
REMARK                            x       y       z     vdW  Elec       q    Type
REMARK                         _______ _______ _______ _____ _____    ______ ____
ROOT
ATOM      1  C   UNL     1       0.402  -2.181   1.194  0.00  0.00    +0.159 C 
ATOM      2  C   UNL     1      -0.908  -2.927   1.468  0.00  0.00    +0.032 C 
ATOM      3  C   UNL     1      -0.657  -4.435   1.391  0.00  0.00    +0.004 C 
ATOM      4  C   UNL     1       0.361  -4.840   2.459  0.00  0.00    +0.019 C 
ATOM      5  C   UNL     1       1.685  -4.115   2.197  0.00  0.00    +0.106 C 
ATOM      6  N   UNL     1       1.431  -2.670   2.123  0.00  0.00    -0.318 N 
ENDROOT
BRANCH   6   7
ATOM      7  C   UNL     1       2.147  -1.782   2.919  0.00  0.00    +0.032 A 
ATOM      8  C   UNL     1       1.958  -1.778   4.299  0.00  0.00    +0.024 A 
ATOM      9  C   UNL     1       2.664  -0.901   5.090  0.00  0.00    +0.022 A 
ATOM     10  C   UNL     1       3.573  -0.012   4.508  0.00  0.00    +0.070 A 
ATOM     11  C   UNL     1       3.761  -0.018   3.121  0.00  0.00    +0.060 A 
ATOM     12  C   UNL     1       3.054  -0.903   2.336  0.00  0.00    +0.044 A 
ATOM     13 CL   UNL     1       4.888   1.083   2.392  0.00  0.00    -0.082 Cl
BRANCH  10  14
ATOM     14  C   UNL     1       4.309   0.902   5.328  0.00  0.00    +0.101 C 
ATOM     15  N   UNL     1       4.893   1.627   5.979  0.00  0.00    -0.191 NA
ENDBRANCH  10  14
ENDBRANCH   6   7
BRANCH   1  18
ATOM     16  C   UNL     1      -0.229   1.539   0.547  0.00  0.00    +0.128 C 
ATOM     17  N   UNL     1      -0.028   0.102   0.345  0.00  0.00    -0.317 N 
ATOM     18  C   UNL     1       0.195  -0.703   1.403  0.00  0.00    +0.233 C 
ATOM     19  O   UNL     1       0.229  -0.238   2.522  0.00  0.00    -0.274 OA
ATOM     20  H   UNL     1      -0.055  -0.270  -0.550  0.00  0.00    +0.148 HD
ENDBRANCH   1  18
TORSDOF 3
