REMARK  Name = ZINC01404950
REMARK  8 active torsions:
REMARK  status: ('A' for Active; 'I' for Inactive)
REMARK    1  A    between atoms: C_1  and  C_2
REMARK    2  A    between atoms: C_2  and  O_3
REMARK    3  A    between atoms: O_3  and  C_4
REMARK    4  A    between atoms: C_7  and  N_10
REMARK    5  A    between atoms: C_11  and  C_29
REMARK    6  A    between atoms: C_21  and  C_22
REMARK    7  A    between atoms: C_32  and  O_35
REMARK    8  A    between atoms: O_35  and  C_36
REMARK                            x       y       z     vdW  Elec       q    Type
REMARK                         _______ _______ _______ _____ _____    ______ ____
ROOT
ATOM      1  N   UNL     1      -1.801  -0.113   0.812  0.00  0.00    -0.255 N 
ATOM      2  C   UNL     1      -1.665  -1.577   0.742  0.00  0.00    +0.146 C 
ATOM      3  C   UNL     1      -3.033  -2.096   0.422  0.00  0.00    +0.027 C 
ATOM      4  C   UNL     1      -3.855  -1.025   0.285  0.00  0.00    +0.098 C 
ATOM      5  C   UNL     1      -3.088   0.198   0.555  0.00  0.00    +0.266 C 
ATOM      6  O   UNL     1      -3.546   1.324   0.547  0.00  0.00    -0.268 OA
ATOM      7  N   UNL     1      -5.189  -1.162  -0.065  0.00  0.00    -0.338 N 
ATOM      8  C   UNL     1      -5.499  -1.662  -1.410  0.00  0.00    +0.122 C 
ATOM      9  C   UNL     1      -4.536  -2.796  -1.777  0.00  0.00    +0.131 C 
ATOM     10  N   UNL     1      -4.333  -3.764  -0.704  0.00  0.00    -0.382 N 
ATOM     11  C   UNL     1      -3.530  -3.470   0.299  0.00  0.00    +0.050 C 
ATOM     12  H   UNL     1      -6.004  -0.909   0.629  0.00  0.00    +0.146 HD
ATOM     13  H   UNL     1      -4.848  -4.736  -0.730  0.00  0.00    +0.160 HD
ENDROOT
BRANCH  11  14
ATOM     14  C   UNL     1      -3.136  -4.507   1.282  0.00  0.00    -0.002 A 
ATOM     15  C   UNL     1      -2.789  -5.786   0.848  0.00  0.00    +0.011 A 
ATOM     16  C   UNL     1      -2.419  -6.747   1.767  0.00  0.00    +0.020 A 
ATOM     17  C   UNL     1      -2.403  -6.446   3.118  0.00  0.00    +0.041 A 
ATOM     18  C   UNL     1      -2.752  -5.178   3.555  0.00  0.00    +0.020 A 
ATOM     19  C   UNL     1      -3.118  -4.209   2.644  0.00  0.00    +0.011 A 
ATOM     20 CL   UNL     1      -1.943  -7.661   4.270  0.00  0.00    -0.084 Cl
ENDBRANCH  11  14
BRANCH   1  24
ATOM     21  C   UNL     1       1.251   2.593   1.671  0.00  0.00    +0.121 A 
ATOM     22  C   UNL     1      -0.033   3.054   1.419  0.00  0.00    +0.047 A 
ATOM     23  C   UNL     1      -1.045   2.158   1.134  0.00  0.00    +0.027 A 
ATOM     24  C   UNL     1      -0.776   0.795   1.100  0.00  0.00    +0.038 A 
ATOM     25  C   UNL     1       0.510   0.335   1.353  0.00  0.00    +0.027 A 
ATOM     26  C   UNL     1       1.520   1.232   1.637  0.00  0.00    +0.047 A 
BRANCH  21  27
ATOM     27  O   UNL     1       2.246   3.476   1.952  0.00  0.00    -0.492 OA
BRANCH  27  29
ATOM     28  C   UNL     1       3.138   5.694   2.302  0.00  0.00    +0.048 C 
ATOM     29  C   UNL     1       1.899   4.862   1.970  0.00  0.00    +0.225 C 
ENDBRANCH  27  29
ENDBRANCH  21  27
ENDBRANCH   1  24
BRANCH   2  30
ATOM     30  C   UNL     1      -1.199  -2.121   2.067  0.00  0.00    -0.022 A 
ATOM     31  C   UNL     1      -1.684  -1.581   3.244  0.00  0.00    +0.009 A 
ATOM     32  C   UNL     1      -1.262  -2.081   4.460  0.00  0.00    +0.046 A 
ATOM     33  C   UNL     1      -0.342  -3.119   4.501  0.00  0.00    +0.120 A 
ATOM     34  C   UNL     1       0.147  -3.656   3.319  0.00  0.00    +0.046 A 
ATOM     35  C   UNL     1      -0.282  -3.155   2.105  0.00  0.00    +0.009 A 
BRANCH  33  36
ATOM     36  O   UNL     1       0.078  -3.610   5.697  0.00  0.00    -0.495 OA
ATOM     37  C   UNL     1      -0.468  -3.009   6.872  0.00  0.00    +0.277 C 
ENDBRANCH  33  36
ENDBRANCH   2  30
TORSDOF 6
