REMARK  Name = ZINC16012639
REMARK  4 active torsions:
REMARK  status: ('A' for Active; 'I' for Inactive)
REMARK    1  A    between atoms: C_5  and  C_7
REMARK    2  A    between atoms: C_7  and  N_8
REMARK    3  A    between atoms: C_13  and  C_31
REMARK    4  A    between atoms: C_31  and  C_32
REMARK                            x       y       z     vdW  Elec       q    Type
REMARK                         _______ _______ _______ _____ _____    ______ ____
ROOT
ATOM      1  N   UNL     1       1.606  -2.677   1.306  0.00  0.00    -0.237 N 
ATOM      2  C   UNL     1       2.880  -2.805   1.695  0.00  0.00    +0.227 C 
ATOM      3  O   UNL     1       3.849  -2.544   1.015  0.00  0.00    -0.275 OA
ATOM      4  C   UNL     1       2.922  -3.328   3.112  0.00  0.00    +0.107 C 
ATOM      5  C   UNL     1       3.510  -4.754   3.114  0.00  0.00    +0.076 C 
ATOM      6  N   UNL     1       2.346  -5.647   2.873  0.00  0.00    -0.295 NA
ATOM      7  C   UNL     1       1.250  -5.028   3.640  0.00  0.00    +0.136 C 
ATOM      8  C   UNL     1       1.421  -3.497   3.478  0.00  0.00    +0.122 C 
ATOM      9  C   UNL     1       0.705  -3.028   2.231  0.00  0.00    +0.229 C 
ATOM     10  O   UNL     1      -0.498  -2.981   2.090  0.00  0.00    -0.275 OA
ATOM     11  C   UNL     1      -0.094  -5.489   3.151  0.00  0.00    +0.006 A 
ATOM     12  C   UNL     1      -0.734  -5.420   1.934  0.00  0.00    +0.046 A 
ATOM     13  C   UNL     1      -2.005  -5.952   1.789  0.00  0.00    +0.124 A 
ATOM     14  C   UNL     1      -2.628  -6.551   2.871  0.00  0.00    +0.040 A 
ATOM     15  C   UNL     1      -1.990  -6.620   4.091  0.00  0.00    +0.026 A 
ATOM     16  C   UNL     1      -0.712  -6.088   4.245  0.00  0.00    +0.039 A 
ATOM     17  N   UNL     1       0.127  -6.036   5.362  0.00  0.00    -0.283 N 
ATOM     18  C   UNL     1       1.298  -5.428   5.089  0.00  0.00    +0.243 C 
ATOM     19  O   UNL     1       2.214  -5.241   5.862  0.00  0.00    -0.273 OA
ATOM     20  F   UNL     1      -2.635  -5.885   0.596  0.00  0.00    -0.205 F 
ATOM     21  H   UNL     1       2.120  -5.690   1.890  0.00  0.00    +0.124 HD
ATOM     22  H   UNL     1      -0.107  -6.395   6.232  0.00  0.00    +0.155 HD
ENDROOT
BRANCH   1  23
ATOM     23  C   UNL     1       1.229  -2.186  -0.022  0.00  0.00    +0.153 C 
BRANCH  23  28
ATOM     24  C   UNL     1      -0.655   1.071   0.285  0.00  0.00    +0.000 A 
ATOM     25  C   UNL     1       0.370   1.994   0.196  0.00  0.00    +0.001 A 
ATOM     26  C   UNL     1       1.674   1.564   0.036  0.00  0.00    +0.020 A 
ATOM     27  C   UNL     1       1.953   0.211  -0.035  0.00  0.00    +0.046 A 
ATOM     28  C   UNL     1       0.926  -0.712   0.055  0.00  0.00    -0.011 A 
ATOM     29  C   UNL     1      -0.378  -0.281   0.215  0.00  0.00    +0.006 A 
ATOM     30 CL   UNL     1       3.590  -0.329  -0.236  0.00  0.00    -0.083 Cl
ENDBRANCH  23  28
ENDBRANCH   1  23
BRANCH   5  31
ATOM     31  C   UNL     1       4.542  -4.906   1.995  0.00  0.00    +0.115 C 
BRANCH  31  32
ATOM     32  C   UNL     1       5.191  -6.263   2.091  0.00  0.00    +0.212 C 
ATOM     33  O   UNL     1       4.861  -7.033   2.968  0.00  0.00    -0.276 OA
ATOM     34  N   UNL     1       6.138  -6.621   1.201  0.00  0.00    -0.329 N 
ATOM     35  H   UNL     1       6.402  -6.006   0.499  0.00  0.00    +0.145 HD
ATOM     36  H   UNL     1       6.556  -7.495   1.263  0.00  0.00    +0.145 HD
ENDBRANCH  31  32
ENDBRANCH   5  31
TORSDOF 4
