REMARK  Name = ZINC14980764
REMARK  10 active torsions:
REMARK  status: ('A' for Active; 'I' for Inactive)
REMARK    1  A    between atoms: C_1  and  C_2
REMARK    2  A    between atoms: C_2  and  C_3
REMARK    3  A    between atoms: C_2  and  N_4
REMARK    4  A    between atoms: C_5  and  C_7
REMARK    5  A    between atoms: N_9  and  C_25
REMARK    6  A    between atoms: C_11  and  C_14
REMARK    7  A    between atoms: N_16  and  C_17
REMARK    8  A    between atoms: C_17  and  C_18
REMARK    9  A    between atoms: C_18  and  O_24
REMARK   10  A    between atoms: C_25  and  C_26
REMARK                            x       y       z     vdW  Elec       q    Type
REMARK                         _______ _______ _______ _____ _____    ______ ____
ROOT
ATOM      1  C   UNL     1      -1.135   1.867   8.637  0.00  0.00    +0.100 A 
ATOM      2  C   UNL     1      -2.253   2.635   8.398  0.00  0.00    +0.103 A 
ATOM      3  N   UNL     1      -2.659   2.912   7.147  0.00  0.00    -0.347 N 
ATOM      4  C   UNL     1      -2.018   2.477   6.050  0.00  0.00    +0.103 A 
ATOM      5  C   UNL     1      -0.887   1.694   6.141  0.00  0.00    +0.100 A 
ATOM      6  C   UNL     1      -0.383   1.349   7.481  0.00  0.00    +0.206 A 
ATOM      7  O   UNL     1       0.615   0.664   7.628  0.00  0.00    -0.286 OA
ENDROOT
BRANCH   1   9
ATOM      8  N   UNL     1      -1.402   2.054  11.058  0.00  0.00    -0.309 N 
ATOM      9  C   UNL     1      -0.702   1.571  10.013  0.00  0.00    +0.249 C 
ATOM     10  O   UNL     1       0.288   0.892  10.206  0.00  0.00    -0.270 OA
ATOM     11  H   UNL     1      -2.192   2.596  10.904  0.00  0.00    +0.149 HD
BRANCH   8  13
ATOM     12  C   UNL     1      -1.483   2.852  13.369  0.00  0.00    +0.027 C 
ATOM     13  C   UNL     1      -0.972   1.760  12.427  0.00  0.00    +0.067 C 
ATOM     14  C   UNL     1      -1.538   0.407  12.861  0.00  0.00    +0.027 C 
ENDBRANCH   8  13
ENDBRANCH   1   9
BRANCH   5  15
ATOM     15  C   UNL     1      -0.198   1.219   4.929  0.00  0.00    +0.249 C 
ATOM     16  O   UNL     1       0.801   0.533   5.028  0.00  0.00    -0.270 OA
ATOM     17  N   UNL     1      -0.675   1.545   3.712  0.00  0.00    -0.308 N 
ATOM     18  H   UNL     1      -1.472   2.092   3.633  0.00  0.00    +0.149 HD
BRANCH  17  19
ATOM     19  C   UNL     1       0.011   1.072   2.506  0.00  0.00    +0.139 C 
BRANCH  19  20
ATOM     20  C   UNL     1      -0.729   1.579   1.267  0.00  0.00    +0.081 C 
ATOM     21  C   UNL     1      -0.013   1.086   0.008  0.00  0.00    +0.036 C 
ATOM     22  C   UNL     1      -0.753   1.593  -1.232  0.00  0.00    +0.003 C 
ATOM     23  C   UNL     1      -0.773   3.123  -1.223  0.00  0.00    +0.000 C 
ATOM     24  C   UNL     1      -1.490   3.616   0.036  0.00  0.00    +0.003 C 
ATOM     25  C   UNL     1      -0.750   3.109   1.275  0.00  0.00    +0.036 C 
BRANCH  20  26
ATOM     26  O   UNL     1      -2.070   1.085   1.277  0.00  0.00    -0.387 OA
ATOM     27  H   UNL     1      -2.584   1.359   2.048  0.00  0.00    +0.210 HD
ENDBRANCH  20  26
ENDBRANCH  19  20
ENDBRANCH  17  19
ENDBRANCH   5  15
BRANCH   3  28
ATOM     28  C   UNL     1      -3.857   3.736   6.972  0.00  0.00    +0.156 C 
BRANCH  28  29
ATOM     29  C   UNL     1      -3.464   5.189   6.910  0.00  0.00    -0.028 A 
ATOM     30  C   UNL     1      -3.406   5.939   8.069  0.00  0.00    +0.005 A 
ATOM     31  C   UNL     1      -3.040   7.271   8.013  0.00  0.00    +0.000 A 
ATOM     32  C   UNL     1      -2.742   7.855   6.796  0.00  0.00    +0.000 A 
ATOM     33  C   UNL     1      -2.804   7.106   5.636  0.00  0.00    +0.000 A 
ATOM     34  C   UNL     1      -3.165   5.773   5.693  0.00  0.00    +0.005 A 
ENDBRANCH  28  29
ENDBRANCH   3  28
TORSDOF 8
