REMARK  Name = ZINC61625037
REMARK  10 active torsions:
REMARK  status: ('A' for Active; 'I' for Inactive)
REMARK    1  A    between atoms: C_1  and  C_2
REMARK    2  A    between atoms: C_3  and  C_15
REMARK    3  A    between atoms: C_10  and  C_14
REMARK    4  A    between atoms: N_12  and  C_13
REMARK    5  A    between atoms: C_15  and  C_16
REMARK    6  A    between atoms: C_16  and  C_17
REMARK    7  A    between atoms: N_19  and  C_20
REMARK    8  A    between atoms: C_20  and  C_21
REMARK    9  A    between atoms: C_20  and  C_28
REMARK   10  A    between atoms: C_21  and  C_22
REMARK                            x       y       z     vdW  Elec       q    Type
REMARK                         _______ _______ _______ _____ _____    ______ ____
ROOT
ATOM      1  C   UNL     1       1.002   0.867  -4.466  0.00  0.00    +0.214 C 
ATOM      2  O   UNL     1      -0.074   1.312  -4.804  0.00  0.00    -0.276 OA
ATOM      3  N   UNL     1       2.082   1.043  -5.255  0.00  0.00    -0.304 N 
ATOM      4  H   UNL     1       2.943   0.688  -4.984  0.00  0.00    +0.149 HD
ENDROOT
BRANCH   1   5
ATOM      5  C   UNL     1       1.134   0.118  -3.165  0.00  0.00    +0.100 C 
BRANCH   5   6
ATOM      6  C   UNL     1      -0.228   0.061  -2.470  0.00  0.00    +0.050 C 
BRANCH   6   9
ATOM      7  C   UNL     1       0.244   1.494  -0.021  0.00  0.00    +0.045 C 
ATOM      8  C   UNL     1       0.126  -0.008  -0.013  0.00  0.00    -0.030 A 
ATOM      9  C   UNL     1      -0.096  -0.688  -1.169  0.00  0.00    +0.021 A 
ATOM     10  C   UNL     1      -0.204  -2.090  -1.150  0.00  0.00    +0.254 A 
ATOM     11  O   UNL     1      -0.404  -2.692  -2.192  0.00  0.00    -0.268 OA
ATOM     12  N   UNL     1      -0.089  -2.776   0.002  0.00  0.00    -0.307 N 
ATOM     13  H   UNL     1      -0.166  -3.743  -0.004  0.00  0.00    +0.170 HD
ATOM     14  C   UNL     1       0.135  -2.121   1.183  0.00  0.00    +0.139 A 
ATOM     15  C   UNL     1       0.251  -0.730   1.196  0.00  0.00    +0.043 A 
ATOM     16  C   UNL     1       0.483  -0.345   2.538  0.00  0.00    +0.069 A 
ATOM     17  N   UNL     1       0.508  -1.423   3.270  0.00  0.00    -0.174 NA
ATOM     18  N   UNL     1       0.288  -2.541   2.458  0.00  0.00    -0.251 N 
ATOM     19  C   UNL     1       0.244  -3.933   2.912  0.00  0.00    +0.174 C 
ATOM     20  C   UNL     1       0.669   1.066   3.034  0.00  0.00    +0.068 C 
ENDBRANCH   6   9
ENDBRANCH   5   6
ENDBRANCH   1   5
BRANCH   3  21
ATOM     21  C   UNL     1       1.954   1.771  -6.519  0.00  0.00    +0.163 C 
BRANCH  21  22
ATOM     22  C   UNL     1       1.498   0.825  -7.600  0.00  0.00    +0.231 C 
ATOM     23  O   UNL     1       1.300  -0.343  -7.339  0.00  0.00    -0.274 OA
ATOM     24  N   UNL     1       1.311   1.276  -8.856  0.00  0.00    -0.328 N 
ATOM     25  H   UNL     1       1.470   2.210  -9.065  0.00  0.00    +0.145 HD
ATOM     26  H   UNL     1       1.018   0.667  -9.552  0.00  0.00    +0.145 HD
ENDBRANCH  21  22
BRANCH  21  27
ATOM     27  C   UNL     1       3.309   2.369  -6.903  0.00  0.00    +0.067 C 
BRANCH  27  28
ATOM     28  C   UNL     1       3.707   3.406  -5.884  0.00  0.00    -0.045 A 
ATOM     29  C   UNL     1       3.330   4.725  -6.057  0.00  0.00    +0.004 A 
ATOM     30  C   UNL     1       3.695   5.676  -5.123  0.00  0.00    +0.000 A 
ATOM     31  C   UNL     1       4.436   5.309  -4.016  0.00  0.00    +0.000 A 
ATOM     32  C   UNL     1       4.812   3.990  -3.842  0.00  0.00    +0.000 A 
ATOM     33  C   UNL     1       4.444   3.038  -4.774  0.00  0.00    +0.004 A 
ENDBRANCH  27  28
ENDBRANCH  21  27
ENDBRANCH   3  21
TORSDOF 7
