REMARK  Name = ZINC05680580
REMARK  6 active torsions:
REMARK  status: ('A' for Active; 'I' for Inactive)
REMARK    1  A    between atoms: C_1  and  C_2
REMARK    2  A    between atoms: C_5  and  O_27
REMARK    3  A    between atoms: C_6  and  N_8
REMARK    4  A    between atoms: C_9  and  C_11
REMARK    5  A    between atoms: C_11  and  N_12
REMARK    6  A    between atoms: O_27  and  C_28
REMARK                            x       y       z     vdW  Elec       q    Type
REMARK                         _______ _______ _______ _____ _____    ______ ____
ROOT
ATOM      1  N   UNL     1       0.369  -1.951   5.978  0.00  0.00    -0.215 N 
ATOM      2  C   UNL     1       1.527  -1.443   6.451  0.00  0.00    +0.251 C 
ATOM      3  O   UNL     1       2.647  -1.671   6.049  0.00  0.00    -0.272 OA
ATOM      4  C   UNL     1       1.130  -0.531   7.586  0.00  0.00    +0.139 C 
ATOM      5  C   UNL     1       1.758  -0.985   8.896  0.00  0.00    +0.040 C 
ATOM      6  C   UNL     1       1.490   0.047   9.996  0.00  0.00    +0.008 C 
ATOM      7  C   UNL     1       2.286   1.323   9.684  0.00  0.00    +0.043 C 
ATOM      8  C   UNL     1       2.060   1.687   8.253  0.00  0.00    -0.005 A 
ATOM      9  C   UNL     1       1.544   0.896   7.271  0.00  0.00    -0.005 A 
ATOM     10  C   UNL     1       1.428   1.473   6.006  0.00  0.00    +0.014 A 
ATOM     11  C   UNL     1       1.820   2.751   5.805  0.00  0.00    +0.046 A 
ATOM     12  S   UNL     1       2.390   3.222   7.431  0.00  0.00    -0.101 S 
ATOM     13  N   UNL     1      -0.332  -0.631   7.636  0.00  0.00    -0.281 N 
ATOM     14  C   UNL     1      -0.688  -1.481   6.653  0.00  0.00    +0.310 C 
ATOM     15  O   UNL     1      -1.838  -1.789   6.409  0.00  0.00    -0.252 OA
ATOM     16  H   UNL     1      -0.925  -0.173   8.252  0.00  0.00    +0.152 HD
ENDROOT
BRANCH   1  17
ATOM     17  C   UNL     1       0.279  -2.894   4.860  0.00  0.00    +0.214 C 
BRANCH  17  19
ATOM     18  N   UNL     1       0.050  -2.795   2.399  0.00  0.00    -0.281 N 
ATOM     19  C   UNL     1       0.149  -2.130   3.568  0.00  0.00    +0.235 C 
ATOM     20  O   UNL     1       0.134  -0.917   3.579  0.00  0.00    -0.274 OA
ATOM     21  H   UNL     1      -0.002  -3.763   2.395  0.00  0.00    +0.155 HD
BRANCH  18  27
ATOM     22  C   UNL     1      -1.307   1.189  -0.143  0.00  0.00    +0.044 C 
ATOM     23  C   UNL     1      -0.627  -0.153  -0.071  0.00  0.00    -0.048 A 
ATOM     24  C   UNL     1      -0.029  -0.685  -1.199  0.00  0.00    +0.007 A 
ATOM     25  C   UNL     1       0.596  -1.917  -1.139  0.00  0.00    +0.048 A 
ATOM     26  C   UNL     1       0.625  -2.622   0.054  0.00  0.00    +0.141 A 
ATOM     27  C   UNL     1       0.024  -2.086   1.191  0.00  0.00    +0.076 A 
ATOM     28  C   UNL     1      -0.597  -0.847   1.124  0.00  0.00    +0.030 A 
BRANCH  26  29
ATOM     29  O   UNL     1       1.239  -3.834   0.115  0.00  0.00    -0.493 OA
ATOM     30  C   UNL     1       1.834  -4.321  -1.090  0.00  0.00    +0.277 C 
ENDBRANCH  26  29
ENDBRANCH  18  27
ENDBRANCH  17  19
ENDBRANCH   1  17
TORSDOF 4
