REMARK  Name = ZINC04338860
REMARK  4 active torsions:
REMARK  status: ('A' for Active; 'I' for Inactive)
REMARK    1  A    between atoms: C_1  and  C_2
REMARK    2  A    between atoms: C_10  and  S_12
REMARK    3  A    between atoms: S_12  and  C_13
REMARK    4  A    between atoms: C_13  and  C_14
REMARK                            x       y       z     vdW  Elec       q    Type
REMARK                         _______ _______ _______ _____ _____    ______ ____
ROOT
ATOM      1  C   UNL     1      -0.018   1.503   0.010  0.00  0.00    +0.073 C 
ATOM      2  C   UNL     1       0.002  -0.004   0.002  0.00  0.00    +0.127 A 
ATOM      3  C   UNL     1      -1.203  -0.715   0.004  0.00  0.00    +0.297 A 
ATOM      4  O   UNL     1      -2.271  -0.122   0.012  0.00  0.00    -0.264 OA
ATOM      5  N   UNL     1      -1.169  -2.081  -0.004  0.00  0.00    -0.167 N 
ATOM      6  C   UNL     1       0.080  -2.639  -0.013  0.00  0.00    +0.220 A 
ATOM      7  N   UNL     1       1.182  -1.931  -0.014  0.00  0.00    -0.122 NA
ATOM      8  N   UNL     1       1.154  -0.642  -0.012  0.00  0.00    -0.146 NA
ATOM      9  S   UNL     1      -0.275  -4.381  -0.020  0.00  0.00    -0.020 S 
ATOM     10  C   UNL     1      -2.057  -4.259  -0.011  0.00  0.00    +0.159 A 
ATOM     11  N   UNL     1      -2.242  -2.963  -0.003  0.00  0.00    -0.148 NA
ENDROOT
BRANCH  10  12
ATOM     12  S   UNL     1      -3.256  -5.550  -0.012  0.00  0.00    -0.092 S 
BRANCH  12  13
ATOM     13  C   UNL     1      -4.845  -4.673  -0.001  0.00  0.00    +0.113 C 
BRANCH  13  14
ATOM     14  C   UNL     1      -5.971  -5.674  -0.001  0.00  0.00    -0.019 A 
ATOM     15  C   UNL     1      -6.489  -6.132  -1.198  0.00  0.00    +0.006 A 
ATOM     16  C   UNL     1      -7.522  -7.050  -1.197  0.00  0.00    +0.000 A 
ATOM     17  C   UNL     1      -8.038  -7.512  -0.000  0.00  0.00    +0.001 A 
ATOM     18  C   UNL     1      -7.521  -7.055   1.197  0.00  0.00    +0.020 A 
ATOM     19  C   UNL     1      -6.482  -6.140   1.198  0.00  0.00    +0.045 A 
ATOM     20 CL   UNL     1      -5.828  -5.570   2.701  0.00  0.00    -0.083 Cl
ENDBRANCH  13  14
ENDBRANCH  12  13
ENDBRANCH  10  12
TORSDOF 3
