REMARK  Name = ZINC09207958
REMARK  8 active torsions:
REMARK  status: ('A' for Active; 'I' for Inactive)
REMARK    1  A    between atoms: C_1  and  C_2
REMARK    2  A    between atoms: C_2  and  C_4
REMARK    3  A    between atoms: C_2  and  N_62
REMARK    4  A    between atoms: N_6  and  C_7
REMARK    5  A    between atoms: C_8  and  C_17
REMARK    6  A    between atoms: N_21  and  C_24
REMARK    7  A    between atoms: C_27  and  C_31
REMARK    8  A    between atoms: C_31  and  C_33
REMARK                            x       y       z     vdW  Elec       q    Type
REMARK                         _______ _______ _______ _____ _____    ______ ____
ROOT
ATOM      1  C   UNL     1       4.654  -3.091   0.787  0.00  0.00    -0.004 C 
ATOM      2  C   UNL     1       5.407  -2.109  -0.113  0.00  0.00    +0.017 C 
ENDROOT
BRANCH   2   8
ATOM      3  C   UNL     1       5.237   0.049  -1.198  0.00  0.00    -0.059 C 
ATOM      4  C   UNL     1       4.502   1.391  -1.169  0.00  0.00    +0.086 C 
ATOM      5  N   UNL     1       3.067   1.166  -1.395  0.00  0.00    -0.331 N 
ATOM      6  C   UNL     1       2.507   0.281  -0.365  0.00  0.00    +0.086 C 
ATOM      7  C   UNL     1       3.242  -1.061  -0.394  0.00  0.00    -0.059 C 
ATOM      8  N   UNL     1       4.679  -0.823  -0.143  0.00  0.00    +0.389 N 
ATOM      9  H   UNL     1       4.787  -0.358   0.766  0.00  0.00    -0.081 HD
BRANCH   5  10
ATOM     10  C   UNL     1       2.376   2.371  -1.447  0.00  0.00    +0.065 A 
ATOM     11  C   UNL     1       2.390   3.227  -0.349  0.00  0.00    +0.027 A 
ATOM     12  C   UNL     1       1.710   4.410  -0.391  0.00  0.00    +0.013 A 
ATOM     13  C   UNL     1       1.001   4.772  -1.543  0.00  0.00    +0.020 A 
ATOM     14  C   UNL     1       0.984   3.912  -2.650  0.00  0.00    +0.051 A 
ATOM     15  C   UNL     1       1.669   2.718  -2.598  0.00  0.00    +0.145 A 
ATOM     16  F   UNL     1       1.657   1.885  -3.661  0.00  0.00    -0.204 F 
BRANCH  13  17
ATOM     17  C   UNL     1       0.273   6.045  -1.590  0.00  0.00    +0.160 C 
ATOM     18  O   UNL     1       0.374   6.835  -0.675  0.00  0.00    -0.292 OA
ATOM     19  C   UNL     1      -0.600   6.371  -2.775  0.00  0.00    +0.091 C 
ENDBRANCH  13  17
ENDBRANCH   5  10
ENDBRANCH   2   8
BRANCH   2  20
ATOM     20  C   UNL     1       5.519  -2.684  -1.501  0.00  0.00    +0.204 C 
ATOM     21  O   UNL     1       4.675  -2.427  -2.334  0.00  0.00    -0.277 OA
ATOM     22  N   UNL     1       6.556  -3.485  -1.818  0.00  0.00    -0.280 N 
ATOM     23  H   UNL     1       7.231  -3.691  -1.152  0.00  0.00    +0.155 HD
BRANCH  22  24
ATOM     24  C   UNL     1       6.659  -4.015  -3.097  0.00  0.00    +0.090 A 
ATOM     25  C   UNL     1       7.640  -4.848  -3.607  0.00  0.00    +0.084 A 
ATOM     26  C   UNL     1       7.516  -5.271  -4.995  0.00  0.00    -0.018 A 
ATOM     27  C   UNL     1       6.438  -4.782  -5.645  0.00  0.00    -0.004 A 
ATOM     28  S   UNL     1       5.587  -3.800  -4.440  0.00  0.00    -0.077 S 
ATOM     29  C   UNL     1       6.043  -5.017  -7.069  0.00  0.00    +0.043 C 
ATOM     30  C   UNL     1       6.098  -6.521  -7.368  0.00  0.00    +0.005 C 
ATOM     31  C   UNL     1       7.503  -6.867  -7.853  0.00  0.00    +0.001 C 
ATOM     32  C   UNL     1       8.531  -5.972  -7.165  0.00  0.00    +0.005 C 
ATOM     33  C   UNL     1       8.520  -6.206  -5.658  0.00  0.00    +0.037 C 
BRANCH  25  34
ATOM     34  C   UNL     1       8.739  -5.281  -2.797  0.00  0.00    +0.102 C 
ATOM     35  N   UNL     1       9.610  -5.624  -2.154  0.00  0.00    -0.191 NA
ENDBRANCH  25  34
ENDBRANCH  22  24
ENDBRANCH   2  20
TORSDOF 6
