REMARK  Name = ZINC37202984
REMARK  3 active torsions:
REMARK  status: ('A' for Active; 'I' for Inactive)
REMARK    1  A    between atoms: C_4  and  N_9
REMARK    2  A    between atoms: C_5  and  C_7
REMARK    3  A    between atoms: N_9  and  C_10
REMARK                            x       y       z     vdW  Elec       q    Type
REMARK                         _______ _______ _______ _____ _____    ______ ____
ROOT
ATOM      1  C   UNL     1       4.893   0.144  -0.046  0.00  0.00    +0.104 C 
ATOM      2  C   UNL     1       5.967  -0.693  -0.718  0.00  0.00    +0.050 C 
ATOM      3  C   UNL     1       7.267   0.123  -0.794  0.00  0.00    +0.174 C 
ATOM      4  S   UNL     1       7.917   0.240   0.900  0.00  0.00    -0.003 S 
ATOM      5  O   UNL     1       8.337  -1.039   1.355  0.00  0.00    -0.169 OA
ATOM      6  O   UNL     1       8.767   1.372   1.024  0.00  0.00    -0.169 OA
ATOM      7  C   UNL     1       6.495   0.625   1.876  0.00  0.00    +0.093 A 
ATOM      8  C   UNL     1       5.223   0.537   1.363  0.00  0.00    -0.002 A 
ATOM      9  C   UNL     1       4.145   0.837   2.196  0.00  0.00    +0.007 A 
ATOM     10  C   UNL     1       4.345   1.222   3.503  0.00  0.00    +0.000 A 
ATOM     11  C   UNL     1       5.629   1.314   4.006  0.00  0.00    +0.002 A 
ATOM     12  C   UNL     1       6.696   1.019   3.190  0.00  0.00    +0.027 A 
ENDROOT
BRANCH   1  13
ATOM     13  N   UNL     1       3.643  -0.620  -0.037  0.00  0.00    -0.336 N 
ATOM     14  H   UNL     1       3.668  -1.590  -0.043  0.00  0.00    +0.147 HD
BRANCH  13  18
ATOM     15  C   UNL     1      -0.017   1.374   0.010  0.00  0.00    +0.001 A 
ATOM     16  C   UNL     1       1.170   2.090   0.002  0.00  0.00    +0.002 A 
ATOM     17  C   UNL     1       2.383   1.432  -0.013  0.00  0.00    +0.024 A 
ATOM     18  C   UNL     1       2.422   0.044  -0.021  0.00  0.00    +0.045 A 
ATOM     19  C   UNL     1       1.222  -0.684  -0.013  0.00  0.00    +0.073 A 
ATOM     20  C   UNL     1       0.002  -0.004   0.002  0.00  0.00    +0.021 A 
BRANCH  19  21
ATOM     21  C   UNL     1       1.249  -2.116  -0.021  0.00  0.00    +0.101 C 
ATOM     22  N   UNL     1       1.270  -3.252  -0.027  0.00  0.00    -0.191 NA
ENDBRANCH  19  21
ENDBRANCH  13  18
ENDBRANCH   1  13
TORSDOF 3
