REMARK  Name = ZINC15357181
REMARK  4 active torsions:
REMARK  status: ('A' for Active; 'I' for Inactive)
REMARK    1  A    between atoms: C_1  and  C_2
REMARK    2  A    between atoms: N_5  and  S_6
REMARK    3  A    between atoms: S_6  and  C_9
REMARK    4  A    between atoms: C_13  and  N_15
REMARK                            x       y       z     vdW  Elec       q    Type
REMARK                         _______ _______ _______ _____ _____    ______ ____
ROOT
ATOM      1  S   UNL     1      -1.554   2.239   0.022  0.00  0.00    +0.099 S 
ATOM      2  O   UNL     1      -1.304   3.527  -0.523  0.00  0.00    -0.146 OA
ATOM      3  O   UNL     1      -2.519   1.353  -0.529  0.00  0.00    -0.146 OA
ENDROOT
BRANCH   1   8
ATOM      4  C   UNL     1      -6.006   4.728   0.043  0.00  0.00    +0.048 C 
ATOM      5  C   UNL     1      -5.105   4.222   1.140  0.00  0.00    -0.000 C 
ATOM      6  C   UNL     1      -3.964   3.584   0.830  0.00  0.00    +0.038 C 
ATOM      7  C   UNL     1      -3.083   3.088   1.905  0.00  0.00    +0.106 C 
ATOM      8  N   UNL     1      -1.974   2.469   1.607  0.00  0.00    -0.128 NA
ATOM      9  C   UNL     1      -3.462   3.289   3.317  0.00  0.00    +0.090 C 
ATOM     10  C   UNL     1      -4.605   3.935   3.619  0.00  0.00    +0.108 C 
ATOM     11  C   UNL     1      -5.477   4.426   2.546  0.00  0.00    +0.202 C 
ATOM     12  O   UNL     1      -6.512   5.005   2.822  0.00  0.00    -0.286 OA
ATOM     13 CL   UNL     1      -5.050   4.179   5.279  0.00  0.00    -0.078 Cl
ATOM     14 CL   UNL     1      -2.433   2.701   4.585  0.00  0.00    -0.080 Cl
ENDBRANCH   1   8
BRANCH   1  15
ATOM     15  C   UNL     1      -0.017   1.378   0.010  0.00  0.00    +0.115 A 
ATOM     16  C   UNL     1       0.002  -0.004   0.002  0.00  0.00    +0.029 A 
ATOM     17  C   UNL     1       1.208  -0.679  -0.013  0.00  0.00    +0.004 A 
ATOM     18  C   UNL     1       2.396   0.029  -0.021  0.00  0.00    +0.033 A 
ATOM     19  C   UNL     1       2.377   1.411  -0.015  0.00  0.00    +0.128 A 
ATOM     20  C   UNL     1       1.171   2.086   0.002  0.00  0.00    +0.061 A 
BRANCH  19  21
ATOM     21  N   UNL     1       3.649   2.168  -0.024  0.00  0.00    +0.056 N 
ATOM     22  O   UNL     1       4.712   1.574  -0.036  0.00  0.00    -0.126 OA
ATOM     23  O   UNL     1       3.632   3.386  -0.018  0.00  0.00    -0.126 OA
ENDBRANCH  19  21
ENDBRANCH   1  15
TORSDOF 3
