REMARK  Name = ZINC08931838
REMARK  6 active torsions:
REMARK  status: ('A' for Active; 'I' for Inactive)
REMARK    1  A    between atoms: C_1  and  C_2
REMARK    2  A    between atoms: C_9  and  N_13
REMARK    3  A    between atoms: C_10  and  C_12
REMARK    4  A    between atoms: C_14  and  C_16
REMARK    5  A    between atoms: C_19  and  S_22
REMARK    6  A    between atoms: S_22  and  N_25
REMARK                            x       y       z     vdW  Elec       q    Type
REMARK                         _______ _______ _______ _____ _____    ______ ____
ROOT
ATOM      1  N   UNL     1      -2.919   4.281   5.432  0.00  0.00    -0.276 N 
ATOM      2  C   UNL     1      -3.115   3.063   4.889  0.00  0.00    +0.248 C 
ATOM      3  O   UNL     1      -3.923   2.300   5.384  0.00  0.00    -0.270 OA
ATOM      4  H   UNL     1      -2.227   4.863   5.081  0.00  0.00    +0.155 HD
ENDROOT
BRANCH   1  13
ATOM      5  C   UNL     1      -3.843   2.553  10.272  0.00  0.00    +0.064 C 
ATOM      6  C   UNL     1      -4.627   3.806   9.979  0.00  0.00    +0.033 A 
ATOM      7  C   UNL     1      -5.424   4.316  10.918  0.00  0.00    +0.070 A 
ATOM      8  S   UNL     1      -6.097   5.747  10.089  0.00  0.00    -0.057 S 
ATOM      9  C   UNL     1      -5.246   5.541   8.540  0.00  0.00    +0.181 A 
ATOM     10  N   UNL     1      -4.508   4.405   8.747  0.00  0.00    -0.258 N 
ATOM     11  C   UNL     1      -3.730   3.984   7.706  0.00  0.00    +0.281 A 
ATOM     12  O   UNL     1      -3.046   2.979   7.821  0.00  0.00    -0.265 OA
ATOM     13  C   UNL     1      -3.717   4.708   6.507  0.00  0.00    +0.121 A 
ATOM     14  C   UNL     1      -4.491   5.848   6.389  0.00  0.00    +0.068 A 
ATOM     15  N   UNL     1      -5.241   6.223   7.423  0.00  0.00    -0.226 NA
ATOM     16  C   UNL     1      -4.490   6.647   5.111  0.00  0.00    +0.068 C 
ENDBRANCH   1  13
BRANCH   2  17
ATOM     17  C   UNL     1      -2.349   2.655   3.693  0.00  0.00    +0.037 A 
ATOM     18  C   UNL     1      -2.549   1.394   3.129  0.00  0.00    +0.015 A 
ATOM     19  C   UNL     1      -1.830   1.019   2.013  0.00  0.00    +0.029 A 
ATOM     20  C   UNL     1      -0.912   1.890   1.453  0.00  0.00    +0.106 A 
ATOM     21  C   UNL     1      -0.704   3.139   2.011  0.00  0.00    +0.029 A 
ATOM     22  C   UNL     1      -1.421   3.528   3.124  0.00  0.00    +0.015 A 
BRANCH  20  23
ATOM     23  S   UNL     1       0.002   1.403   0.027  0.00  0.00    +0.061 S 
ATOM     24  O   UNL     1       0.025  -0.017   0.025  0.00  0.00    -0.153 OA
ATOM     25  O   UNL     1       1.189   2.185   0.020  0.00  0.00    -0.153 OA
BRANCH  23  26
ATOM     26  N   UNL     1      -0.877   1.865  -1.298  0.00  0.00    -0.172 NA
ATOM     27  C   UNL     1      -1.864   0.958  -1.906  0.00  0.00    +0.137 C 
ATOM     28  C   UNL     1      -3.186   1.726  -2.064  0.00  0.00    +0.177 C 
ATOM     29  O   UNL     1      -2.937   2.950  -2.759  0.00  0.00    -0.377 OA
ATOM     30  C   UNL     1      -2.064   3.848  -2.069  0.00  0.00    +0.177 C 
ATOM     31  C   UNL     1      -0.689   3.191  -1.908  0.00  0.00    +0.137 C 
ENDBRANCH  23  26
ENDBRANCH  20  23
ENDBRANCH   2  17
TORSDOF 4
