REMARK  Name = ZINC55054429
REMARK  3 active torsions:
REMARK  status: ('A' for Active; 'I' for Inactive)
REMARK    1  A    between atoms: C_1  and  C_2
REMARK    2  A    between atoms: C_2  and  C_3
REMARK    3  A    between atoms: C_18  and  C_21
REMARK                            x       y       z     vdW  Elec       q    Type
REMARK                         _______ _______ _______ _____ _____    ______ ____
ROOT
ATOM      1  C   UNL     1       0.719  -0.498  -1.258  0.00  0.00    +0.124 C 
ATOM      2  C   UNL     1       0.826  -2.006  -1.232  0.00  0.00    +0.039 A 
ATOM      3  C   UNL     1       1.609  -2.758  -0.442  0.00  0.00    +0.024 A 
ATOM      4  C   UNL     1       1.363  -4.107  -0.771  0.00  0.00    +0.019 A 
ATOM      5  C   UNL     1       0.437  -4.122  -1.754  0.00  0.00    +0.086 A 
ATOM      6  N   UNL     1       0.104  -2.836  -2.046  0.00  0.00    -0.347 N 
ATOM      7  C   UNL     1      -0.854  -2.382  -3.060  0.00  0.00    +0.140 C 
ATOM      8  C   UNL     1      -1.267  -0.938  -2.753  0.00  0.00    +0.131 C 
ATOM      9  N   UNL     1      -0.067  -0.141  -2.454  0.00  0.00    -0.275 N 
ATOM     10  C   UNL     1       0.305   0.883  -3.247  0.00  0.00    +0.309 C 
ATOM     11  O   UNL     1      -0.300   1.104  -4.278  0.00  0.00    -0.252 OA
ATOM     12  N   UNL     1       1.348   1.662  -2.898  0.00  0.00    -0.247 N 
ATOM     13  C   UNL     1       1.665   2.778  -3.659  0.00  0.00    +0.186 A 
ATOM     14  N   UNL     1       2.642   3.648  -3.478  0.00  0.00    -0.204 NA
ATOM     15  C   UNL     1       2.747   4.642  -4.344  0.00  0.00    +0.170 A 
ATOM     16  N   UNL     1       1.871   4.697  -5.327  0.00  0.00    -0.187 NA
ATOM     17  S   UNL     1       0.907   3.355  -5.043  0.00  0.00    +0.050 S 
ATOM     18  H   UNL     1       1.876   1.443  -2.114  0.00  0.00    +0.158 HD
ENDROOT
BRANCH  15  19
ATOM     19  C   UNL     1       3.816   5.662  -4.213  0.00  0.00    +0.020 A 
ATOM     20  C   UNL     1       4.735   5.582  -3.169  0.00  0.00    +0.011 A 
ATOM     21  C   UNL     1       5.727   6.534  -3.052  0.00  0.00    +0.001 A 
ATOM     22  C   UNL     1       5.811   7.566  -3.969  0.00  0.00    +0.000 A 
ATOM     23  C   UNL     1       4.901   7.651  -5.008  0.00  0.00    +0.001 A 
ATOM     24  C   UNL     1       3.908   6.701  -5.137  0.00  0.00    +0.011 A 
ENDBRANCH  15  19
BRANCH   1  26
ATOM     25  C   UNL     1      -0.013   1.526   0.011  0.00  0.00    +0.006 C 
ATOM     26  C   UNL     1       0.005  -0.004   0.002  0.00  0.00    +0.025 C 
ENDBRANCH   1  26
TORSDOF 2
