REMARK  Name = ZINC01277640
REMARK  3 active torsions:
REMARK  status: ('A' for Active; 'I' for Inactive)
REMARK    1  A    between atoms: C_4  and  N_7
REMARK    2  A    between atoms: C_8  and  C_9
REMARK    3  A    between atoms: C_14  and  O_15
REMARK                            x       y       z     vdW  Elec       q    Type
REMARK                         _______ _______ _______ _____ _____    ______ ____
ROOT
ATOM      1  C   UNL     1       5.951  -0.639  -0.060  0.00  0.00    +0.037 A 
ATOM      2  C   UNL     1       7.154   0.077  -0.062  0.00  0.00    +0.033 A 
ATOM      3  C   UNL     1       8.355  -0.598  -0.078  0.00  0.00    +0.043 A 
ATOM      4  C   UNL     1       8.378  -1.984  -0.092  0.00  0.00    +0.043 A 
ATOM      5  C   UNL     1       7.198  -2.704  -0.089  0.00  0.00    +0.084 A 
ATOM      6  C   UNL     1       5.980  -2.041  -0.068  0.00  0.00    +0.144 A 
ATOM      7 CL   UNL     1       7.241  -4.439  -0.108  0.00  0.00    -0.080 Cl
ATOM      8 CL   UNL     1       9.846   0.291  -0.081  0.00  0.00    -0.083 Cl
ENDROOT
BRANCH   1  10
ATOM      9  N   UNL     1       3.547  -0.597  -0.035  0.00  0.00    -0.234 NA
ATOM     10  C   UNL     1       4.666   0.074  -0.043  0.00  0.00    +0.124 C 
BRANCH   9  14
ATOM     11  C   UNL     1      -0.016   1.318   0.009  0.00  0.00    +0.130 A 
ATOM     12  C   UNL     1       1.169   2.033   0.002  0.00  0.00    +0.133 A 
ATOM     13  N   UNL     1       2.327   1.398  -0.013  0.00  0.00    -0.233 NA
ATOM     14  C   UNL     1       2.353   0.066  -0.020  0.00  0.00    +0.171 A 
ATOM     15  C   UNL     1       1.152  -0.651  -0.013  0.00  0.00    +0.158 A 
ATOM     16  N   UNL     1       0.002  -0.004   0.002  0.00  0.00    -0.258 NA
ENDBRANCH   9  14
ENDBRANCH   1  10
BRANCH   6  17
ATOM     17  O   UNL     1       4.820  -2.747  -0.059  0.00  0.00    -0.505 OA
ATOM     18  H   UNL     1       4.475  -2.947  -0.940  0.00  0.00    +0.292 HD
ENDBRANCH   6  17
TORSDOF 3
