REMARK  Name = ZINC04342491
REMARK  5 active torsions:
REMARK  status: ('A' for Active; 'I' for Inactive)
REMARK    1  A    between atoms: C_1  and  C_2
REMARK    2  A    between atoms: C_2  and  C_27
REMARK    3  A    between atoms: C_7  and  C_9
REMARK    4  A    between atoms: C_14  and  O_15
REMARK    5  A    between atoms: N_18  and  C_21
REMARK                            x       y       z     vdW  Elec       q    Type
REMARK                         _______ _______ _______ _____ _____    ______ ____
ROOT
ATOM      1  C   UNL     1       1.840   1.939  -1.553  0.00  0.00    +0.002 C 
ATOM      2  C   UNL     1       1.364   1.615  -0.136  0.00  0.00    +0.045 C 
ATOM      3  C   UNL     1       2.534   1.080   0.715  0.00  0.00    +0.086 C 
ATOM      4  C   UNL     1       3.084   2.323   1.464  0.00  0.00    +0.077 C 
ATOM      5  C   UNL     1       2.193   3.493   0.996  0.00  0.00    -0.023 C 
ATOM      6  C   UNL     1       2.782   2.018   2.915  0.00  0.00    +0.229 C 
ATOM      7  O   UNL     1       3.049   2.739   3.852  0.00  0.00    -0.275 OA
ATOM      8  N   UNL     1       2.174   0.830   3.002  0.00  0.00    -0.210 N 
ATOM      9  C   UNL     1       1.986   0.202   1.818  0.00  0.00    +0.229 C 
ATOM     10  O   UNL     1       1.464  -0.881   1.658  0.00  0.00    -0.275 OA
ATOM     11  N   UNL     1       0.960   2.840   0.555  0.00  0.00    +0.395 N 
ATOM     12  H   UNL     1       0.371   2.613   1.365  0.00  0.00    -0.083 HD
ATOM     13  H   UNL     1       0.443   3.454  -0.084  0.00  0.00    -0.083 HD
ENDROOT
BRANCH   5  14
ATOM     14  C   UNL     1       1.936   4.446   2.135  0.00  0.00    -0.019 A 
ATOM     15  C   UNL     1       0.787   4.322   2.893  0.00  0.00    +0.005 A 
ATOM     16  C   UNL     1       0.551   5.195   3.939  0.00  0.00    +0.000 A 
ATOM     17  C   UNL     1       1.463   6.194   4.228  0.00  0.00    +0.004 A 
ATOM     18  C   UNL     1       2.612   6.322   3.473  0.00  0.00    +0.045 A 
ATOM     19  C   UNL     1       2.854   5.443   2.426  0.00  0.00    +0.118 A 
BRANCH  19  20
ATOM     20  O   UNL     1       3.987   5.563   1.686  0.00  0.00    -0.507 OA
ATOM     21  H   UNL     1       3.896   6.145   0.919  0.00  0.00    +0.292 HD
ENDBRANCH  19  20
ENDBRANCH   5  14
BRANCH   8  22
ATOM     22  C   UNL     1       1.769   0.273   4.223  0.00  0.00    +0.044 A 
ATOM     23  C   UNL     1       0.418   0.133   4.509  0.00  0.00    +0.024 A 
ATOM     24  C   UNL     1       0.022  -0.421   5.711  0.00  0.00    +0.002 A 
ATOM     25  C   UNL     1       0.969  -0.825   6.633  0.00  0.00    +0.000 A 
ATOM     26  C   UNL     1       2.316  -0.682   6.353  0.00  0.00    +0.002 A 
ATOM     27  C   UNL     1       2.718  -0.134   5.151  0.00  0.00    +0.024 A 
ENDBRANCH   8  22
BRANCH   2  28
ATOM     28  C   UNL     1       0.241   0.611  -0.177  0.00  0.00    +0.346 C 
ATOM     29  O   UNL     1       0.179  -0.189  -1.080  0.00  0.00    -0.248 OA
ATOM     30  O   UNL     1      -0.693   0.609   0.787  0.00  0.00    -0.248 OA
ENDBRANCH   2  28
TORSDOF 4
