REMARK  Name = ZINC50832558
REMARK  3 active torsions:
REMARK  status: ('A' for Active; 'I' for Inactive)
REMARK    1  A    between atoms: C_3  and  O_9
REMARK    2  A    between atoms: O_9  and  C_10
REMARK    3  A    between atoms: C_10  and  C_11
REMARK                            x       y       z     vdW  Elec       q    Type
REMARK                         _______ _______ _______ _____ _____    ______ ____
ROOT
ATOM      1  C   UNL     1       4.838   4.129  -0.023  0.00  0.00    +0.169 A 
ATOM      2  N   UNL     1       5.445   4.373   1.125  0.00  0.00    -0.214 NA
ATOM      3  C   UNL     1       6.660   4.894   1.182  0.00  0.00    +0.128 A 
ATOM      4  C   UNL     1       7.339   5.204  -0.028  0.00  0.00    +0.047 A 
ATOM      5  C   UNL     1       8.660   5.774  -0.232  0.00  0.00    +0.021 A 
ATOM      6  C   UNL     1       9.098   5.980  -1.483  0.00  0.00    +0.048 A 
ATOM      7  S   UNL     1       7.745   5.413  -2.497  0.00  0.00    -0.077 S 
ATOM      8  C   UNL     1       6.628   4.915  -1.213  0.00  0.00    +0.114 A 
ATOM      9  N   UNL     1       5.419   4.389  -1.178  0.00  0.00    -0.221 NA
ATOM     10  N   UNL     1       7.260   5.136   2.404  0.00  0.00    -0.343 N 
ATOM     11  H   UNL     1       6.791   4.923   3.226  0.00  0.00    +0.144 HD
ATOM     12  H   UNL     1       8.151   5.518   2.440  0.00  0.00    +0.144 HD
ENDROOT
BRANCH   1  13
ATOM     13  C   UNL     1       3.454   3.533  -0.013  0.00  0.00    +0.305 C 
BRANCH  13  14
ATOM     14  O   UNL     1       3.548   2.107  -0.021  0.00  0.00    -0.483 OA
BRANCH  14  17
ATOM     15  C   UNL     1      -0.017   1.378   0.010  0.00  0.00    +0.005 A 
ATOM     16  C   UNL     1       1.169   2.087   0.002  0.00  0.00    +0.047 A 
ATOM     17  C   UNL     1       2.381   1.411  -0.013  0.00  0.00    +0.141 A 
ATOM     18  C   UNL     1       2.399   0.023  -0.021  0.00  0.00    +0.101 A 
ATOM     19  C   UNL     1       1.209  -0.682  -0.013  0.00  0.00    +0.063 A 
ATOM     20  C   UNL     1       0.002  -0.004   0.002  0.00  0.00    +0.022 A 
ATOM     21 CL   UNL     1       1.229  -2.418  -0.023  0.00  0.00    -0.082 Cl
ATOM     22 CL   UNL     1       3.912  -0.826  -0.040  0.00  0.00    -0.078 Cl
ENDBRANCH  14  17
ENDBRANCH  13  14
ENDBRANCH   1  13
TORSDOF 3
