REMARK  Name = ZINC01298520
REMARK  5 active torsions:
REMARK  status: ('A' for Active; 'I' for Inactive)
REMARK    1  A    between atoms: C_6  and  N_7
REMARK    2  A    between atoms: C_8  and  C_10
REMARK    3  A    between atoms: C_10  and  N_11
REMARK    4  A    between atoms: C_15  and  C_16
REMARK    5  A    between atoms: N_18  and  C_19
REMARK                            x       y       z     vdW  Elec       q    Type
REMARK                         _______ _______ _______ _____ _____    ______ ____
ROOT
ATOM      1  N   UNL     1      -1.654  -4.196  -0.266  0.00  0.00    -0.219 N 
ATOM      2  C   UNL     1      -1.666  -4.752  -1.466  0.00  0.00    +0.261 C 
ATOM      3  O   UNL     1      -1.873  -4.103  -2.471  0.00  0.00    -0.269 OA
ATOM      4  C   UNL     1      -1.412  -6.221  -1.514  0.00  0.00    +0.084 C 
ATOM      5  C   UNL     1      -1.363  -7.056  -2.580  0.00  0.00    +0.088 C 
ATOM      6  S   UNL     1      -1.189  -6.577   0.224  0.00  0.00    -0.026 S 
ATOM      7  C   UNL     1      -1.418  -4.920   0.847  0.00  0.00    +0.286 C 
ATOM      8  O   UNL     1      -1.374  -4.536   1.999  0.00  0.00    -0.262 OA
ENDROOT
BRANCH   5   9
ATOM      9  C   UNL     1      -1.094  -8.484  -2.382  0.00  0.00    +0.242 C 
ATOM     10  O   UNL     1      -0.914  -8.919  -1.261  0.00  0.00    -0.270 OA
ATOM     11  N   UNL     1      -1.045  -9.314  -3.443  0.00  0.00    -0.282 N 
ATOM     12  H   UNL     1      -1.114  -8.956  -4.342  0.00  0.00    +0.155 HD
BRANCH  11  13
ATOM     13  C   UNL     1      -0.895 -10.690  -3.248  0.00  0.00    +0.034 A 
ATOM     14  C   UNL     1      -0.182 -11.450  -4.166  0.00  0.00    +0.025 A 
ATOM     15  C   UNL     1      -0.035 -12.809  -3.971  0.00  0.00    +0.022 A 
ATOM     16  C   UNL     1      -0.598 -13.414  -2.861  0.00  0.00    +0.041 A 
ATOM     17  C   UNL     1      -1.309 -12.660  -1.944  0.00  0.00    +0.022 A 
ATOM     18  C   UNL     1      -1.454 -11.299  -2.131  0.00  0.00    +0.025 A 
ATOM     19 CL   UNL     1      -0.412 -15.123  -2.618  0.00  0.00    -0.084 Cl
ENDBRANCH  11  13
ENDBRANCH   5   9
BRANCH   1  20
ATOM     20  C   UNL     1      -1.896  -2.756  -0.143  0.00  0.00    +0.213 C 
BRANCH  20  22
ATOM     21  N   UNL     1      -0.563  -0.672  -0.147  0.00  0.00    -0.284 N 
ATOM     22  C   UNL     1      -0.586  -2.017  -0.235  0.00  0.00    +0.235 C 
ATOM     23  O   UNL     1       0.448  -2.632  -0.388  0.00  0.00    -0.274 OA
ATOM     24  H   UNL     1      -1.379  -0.185   0.049  0.00  0.00    +0.155 HD
BRANCH  21  30
ATOM     25  C   UNL     1       1.585  -0.463  -1.231  0.00  0.00    +0.026 A 
ATOM     26  C   UNL     1       2.769   0.224  -1.420  0.00  0.00    +0.040 A 
ATOM     27  C   UNL     1       3.010   1.395  -0.721  0.00  0.00    +0.124 A 
ATOM     28  C   UNL     1       2.067   1.880   0.168  0.00  0.00    +0.040 A 
ATOM     29  C   UNL     1       0.882   1.196   0.360  0.00  0.00    +0.026 A 
ATOM     30  C   UNL     1       0.637   0.022  -0.340  0.00  0.00    +0.034 A 
ATOM     31  F   UNL     1       4.169   2.064  -0.907  0.00  0.00    -0.205 F 
ENDBRANCH  21  30
ENDBRANCH  20  22
ENDBRANCH   1  20
TORSDOF 5
