REMARK  Name = ZINC15980874
REMARK  7 active torsions:
REMARK  status: ('A' for Active; 'I' for Inactive)
REMARK    1  A    between atoms: C_1  and  C_2
REMARK    2  A    between atoms: C_2  and  N_3
REMARK    3  A    between atoms: N_5  and  N_18
REMARK    4  A    between atoms: C_6  and  C_9
REMARK    5  A    between atoms: C_19  and  C_20
REMARK    6  A    between atoms: C_23  and  N_26
REMARK    7  A    between atoms: C_27  and  C_29
REMARK                            x       y       z     vdW  Elec       q    Type
REMARK                         _______ _______ _______ _____ _____    ______ ____
ROOT
ATOM      1  N   UNL     1      -7.611  -0.193   0.149  0.00  0.00    -0.260 NA
ATOM      2  C   UNL     1      -6.899   0.890  -0.035  0.00  0.00    +0.190 A 
ATOM      3  N   UNL     1      -5.526   1.036  -0.071  0.00  0.00    -0.205 N 
ATOM      4  C   UNL     1      -5.007   2.287  -0.282  0.00  0.00    +0.117 A 
ATOM      5  C   UNL     1      -5.843   3.338  -0.442  0.00  0.00    +0.080 A 
ATOM      6  S   UNL     1      -7.448   2.567  -0.307  0.00  0.00    -0.056 S 
ENDROOT
BRANCH   4   7
ATOM      7  C   UNL     1      -3.549   2.486  -0.327  0.00  0.00    +0.155 A 
ATOM      8  C   UNL     1      -2.929   3.677  -0.528  0.00  0.00    +0.060 A 
ATOM      9  C   UNL     1      -1.492   3.397  -0.494  0.00  0.00    +0.021 A 
ATOM     10  C   UNL     1      -0.345   4.180  -0.632  0.00  0.00    +0.011 A 
ATOM     11  C   UNL     1       0.888   3.596  -0.546  0.00  0.00    +0.001 A 
ATOM     12  C   UNL     1       1.005   2.232  -0.321  0.00  0.00    +0.004 A 
ATOM     13  C   UNL     1      -0.117   1.442  -0.182  0.00  0.00    +0.047 A 
ATOM     14  C   UNL     1      -1.379   2.013  -0.272  0.00  0.00    +0.136 A 
ATOM     15  O   UNL     1      -2.629   1.513  -0.174  0.00  0.00    -0.453 OA
ENDBRANCH   4   7
BRANCH   1  17
ATOM     16  C   UNL     1      -9.630  -1.004  -0.966  0.00  0.00    +0.029 C 
ATOM     17  C   UNL     1      -9.074  -0.117   0.149  0.00  0.00    +0.141 C 
ENDBRANCH   1  17
BRANCH   3  18
ATOM     18  N   UNL     1      -4.684  -0.070   0.105  0.00  0.00    -0.172 NA
ATOM     19  C   UNL     1      -5.119  -1.126   0.722  0.00  0.00    +0.141 C 
BRANCH  19  20
ATOM     20  C   UNL     1      -4.281  -2.337   0.792  0.00  0.00    -0.005 A 
ATOM     21  C   UNL     1      -3.021  -2.352   0.189  0.00  0.00    +0.011 A 
ATOM     22  C   UNL     1      -2.239  -3.484   0.260  0.00  0.00    +0.024 A 
ATOM     23  C   UNL     1      -2.706  -4.614   0.921  0.00  0.00    +0.033 A 
ATOM     24  C   UNL     1      -3.962  -4.604   1.518  0.00  0.00    +0.024 A 
ATOM     25  C   UNL     1      -4.748  -3.475   1.456  0.00  0.00    +0.011 A 
BRANCH  23  26
ATOM     26  N   UNL     1      -1.912  -5.762   0.986  0.00  0.00    -0.286 N 
ATOM     27  C   UNL     1      -2.488  -6.981   0.978  0.00  0.00    +0.214 C 
ATOM     28  O   UNL     1      -3.696  -7.081   0.999  0.00  0.00    -0.276 OA
ATOM     29  C   UNL     1      -1.630  -8.219   0.943  0.00  0.00    +0.109 C 
ATOM     30  H   UNL     1      -0.947  -5.682   1.037  0.00  0.00    +0.155 HD
ENDBRANCH  23  26
ENDBRANCH  19  20
ENDBRANCH   3  18
TORSDOF 5
