REMARK  Name = ZINC44223814
REMARK  6 active torsions:
REMARK  status: ('A' for Active; 'I' for Inactive)
REMARK    1  A    between atoms: C_1  and  C_2
REMARK    2  A    between atoms: N_10  and  C_11
REMARK    3  A    between atoms: C_11  and  C_13
REMARK    4  A    between atoms: C_14  and  C_18
REMARK    5  A    between atoms: N_19  and  C_20
REMARK    6  A    between atoms: C_20  and  C_21
REMARK                            x       y       z     vdW  Elec       q    Type
REMARK                         _______ _______ _______ _____ _____    ______ ____
ROOT
ATOM      1  C   UNL     1      -0.018   1.503   0.010  0.00  0.00    +0.044 C 
ATOM      2  C   UNL     1       0.002  -0.004   0.002  0.00  0.00    -0.049 A 
ATOM      3  C   UNL     1       0.006  -0.697  -1.197  0.00  0.00    +0.005 A 
ATOM      4  C   UNL     1       0.024  -2.072  -1.225  0.00  0.00    +0.027 A 
ATOM      5  C   UNL     1       0.040  -2.810  -0.034  0.00  0.00    +0.058 A 
ATOM      6  C   UNL     1       0.036  -2.084   1.166  0.00  0.00    +0.039 A 
ATOM      7  C   UNL     1       0.023  -0.709   1.192  0.00  0.00    +0.020 A 
ATOM      8  S   UNL     1       0.059  -3.352   2.406  0.00  0.00    -0.052 S 
ATOM      9  C   UNL     1       0.072  -4.698   1.400  0.00  0.00    +0.168 A 
ATOM     10  N   UNL     1       0.091  -5.979   1.753  0.00  0.00    -0.152 NA
ATOM     11  N   UNL     1       0.059  -4.181   0.144  0.00  0.00    -0.310 N 
ENDROOT
BRANCH  10  12
ATOM     12  C   UNL     1       0.102  -6.315   3.049  0.00  0.00    +0.279 C 
ATOM     13  O   UNL     1       0.095  -5.447   3.904  0.00  0.00    -0.267 OA
BRANCH  12  14
ATOM     14  C   UNL     1       0.123  -7.737   3.441  0.00  0.00    +0.119 A 
ATOM     15  C   UNL     1       0.132  -8.309   4.696  0.00  0.00    +0.081 A 
ATOM     16  N   UNL     1       0.150  -9.620   4.700  0.00  0.00    -0.146 NA
ATOM     17  N   UNL     1       0.160 -10.309   3.615  0.00  0.00    -0.110 NA
ATOM     18  S   UNL     1       0.137  -9.206   2.426  0.00  0.00    +0.042 S 
ATOM     19  C   UNL     1       0.121  -7.492   5.962  0.00  0.00    +0.069 C 
ENDBRANCH  12  14
ENDBRANCH  10  12
BRANCH  11  20
ATOM     20  C   UNL     1       0.067  -5.072  -1.018  0.00  0.00    +0.212 C 
BRANCH  20  21
ATOM     21  C   UNL     1       1.457  -5.352  -1.414  0.00  0.00    -0.084 C 
ATOM     22  C   UNL     1       2.565  -5.575  -1.729  0.00  0.00    +0.005 C 
ENDBRANCH  20  21
ENDBRANCH  11  20
TORSDOF 4
