REMARK  Name = ZINC64694664
REMARK  6 active torsions:
REMARK  status: ('A' for Active; 'I' for Inactive)
REMARK    1  A    between atoms: C_1  and  C_2
REMARK    2  A    between atoms: C_2  and  O_3
REMARK    3  A    between atoms: O_3  and  C_4
REMARK    4  A    between atoms: C_9  and  N_12
REMARK    5  A    between atoms: C_13  and  C_15
REMARK    6  A    between atoms: C_15  and  N_16
REMARK                            x       y       z     vdW  Elec       q    Type
REMARK                         _______ _______ _______ _____ _____    ______ ____
ROOT
ATOM      1  N   UNL     1       5.013  -3.648   4.126  0.00  0.00    -0.314 N 
ATOM      2  C   UNL     1       5.333  -4.712   4.889  0.00  0.00    +0.197 C 
ATOM      3  O   UNL     1       4.458  -5.381   5.396  0.00  0.00    -0.278 OA
ATOM      4  H   UNL     1       5.713  -3.114   3.721  0.00  0.00    +0.149 HD
ENDROOT
BRANCH   1  10
ATOM      5  C   UNL     1       0.801  -1.812   1.304  0.00  0.00    +0.403 C 
ATOM      6  O   UNL     1       0.321  -2.554   0.470  0.00  0.00    -0.226 OA
ATOM      7  N   UNL     1       1.441  -2.324   2.374  0.00  0.00    -0.267 N 
ATOM      8  C   UNL     1       2.021  -1.440   3.394  0.00  0.00    +0.113 C 
ATOM      9  C   UNL     1       3.495  -1.808   3.585  0.00  0.00    +0.041 C 
ATOM     10  C   UNL     1       3.607  -3.299   3.910  0.00  0.00    +0.076 C 
ATOM     11  C   UNL     1       3.051  -4.120   2.744  0.00  0.00    +0.041 C 
ATOM     12  C   UNL     1       1.567  -3.778   2.546  0.00  0.00    +0.113 C 
BRANCH   5  13
ATOM     13  O   UNL     1       0.693  -0.477   1.160  0.00  0.00    -0.451 OA
BRANCH  13  15
ATOM     14  C   UNL     1      -0.019   1.526   0.010  0.00  0.00    +0.048 C 
ATOM     15  C   UNL     1       0.002  -0.004   0.002  0.00  0.00    +0.230 C 
ENDBRANCH  13  15
ENDBRANCH   5  13
ENDBRANCH   1  10
BRANCH   2  16
ATOM     16  C   UNL     1       6.780  -5.071   5.112  0.00  0.00    +0.019 C 
BRANCH  16  17
ATOM     17  N   UNL     1       6.863  -6.260   5.971  0.00  0.00    +0.386 N 
ATOM     18  C   UNL     1       6.225  -7.381   5.291  0.00  0.00    -0.077 C 
ATOM     19  C   UNL     1       5.542  -8.313   6.318  0.00  0.00    -0.003 C 
ATOM     20  C   UNL     1       6.396  -8.527   7.549  0.00  0.00    +0.083 C 
ATOM     21  N   UNL     1       7.806  -8.707   7.189  0.00  0.00    -0.301 NA
ATOM     22  C   UNL     1       8.480  -9.668   8.090  0.00  0.00    +0.084 C 
ATOM     23  C   UNL     1       9.969  -9.262   8.055  0.00  0.00    +0.017 C 
ATOM     24  C   UNL     1       9.970  -7.773   7.648  0.00  0.00    +0.018 C 
ATOM     25  C   UNL     1       8.487  -7.400   7.479  0.00  0.00    +0.040 C 
ATOM     26  C   UNL     1       8.267  -6.527   6.277  0.00  0.00    -0.059 C 
ATOM     27  H   UNL     1       6.370  -6.076   6.832  0.00  0.00    -0.081 HD
ENDBRANCH  16  17
ENDBRANCH   2  16
TORSDOF 5
