REMARK  Name = ZINC09430615
REMARK  9 active torsions:
REMARK  status: ('A' for Active; 'I' for Inactive)
REMARK    1  A    between atoms: C_1  and  C_2
REMARK    2  A    between atoms: C_7  and  S_15
REMARK    3  A    between atoms: C_12  and  C_14
REMARK    4  A    between atoms: S_15  and  N_18
REMARK    5  A    between atoms: N_18  and  C_19
REMARK    6  A    between atoms: C_19  and  C_20
REMARK    7  A    between atoms: C_23  and  C_26
REMARK    8  A    between atoms: N_28  and  C_29
REMARK    9  A    between atoms: C_32  and  C_35
REMARK                            x       y       z     vdW  Elec       q    Type
REMARK                         _______ _______ _______ _____ _____    ______ ____
ROOT
ATOM      1  N   UNL     1      -3.478  -4.905   3.603  0.00  0.00    -0.190 NA
ATOM      2  H   UNL     1      -4.316  -5.124   3.165  0.00  0.00    +0.148 HD
ENDROOT
BRANCH   1   3
ATOM      3  S   UNL     1      -3.299  -3.446   4.365  0.00  0.00    +0.058 S 
ATOM      4  O   UNL     1      -2.767  -3.723   5.653  0.00  0.00    -0.153 OA
ATOM      5  O   UNL     1      -4.517  -2.738   4.180  0.00  0.00    -0.153 OA
BRANCH   3  11
ATOM      6  C   UNL     1       0.050   1.874   0.481  0.00  0.00    +0.029 C 
ATOM      7  C   UNL     1      -0.099   0.362   0.301  0.00  0.00    +0.083 C 
ATOM      8  C   UNL     1      -1.548  -0.069   0.583  0.00  0.00    +0.059 C 
ATOM      9  C   UNL     1      -1.441  -1.023   1.751  0.00  0.00    -0.022 A 
ATOM     10  C   UNL     1      -2.412  -1.726   2.438  0.00  0.00    +0.034 A 
ATOM     11  C   UNL     1      -2.059  -2.550   3.490  0.00  0.00    +0.106 A 
ATOM     12  C   UNL     1      -0.730  -2.671   3.853  0.00  0.00    +0.030 A 
ATOM     13  C   UNL     1       0.242  -1.972   3.170  0.00  0.00    +0.026 A 
ATOM     14  C   UNL     1      -0.107  -1.137   2.107  0.00  0.00    +0.040 A 
ATOM     15  N   UNL     1       0.715  -0.350   1.290  0.00  0.00    -0.268 N 
ATOM     16  C   UNL     1       2.055  -0.260   1.397  0.00  0.00    +0.217 C 
ATOM     17  O   UNL     1       2.646  -0.940   2.210  0.00  0.00    -0.276 OA
ATOM     18  C   UNL     1       2.820   0.686   0.508  0.00  0.00    +0.109 C 
ENDBRANCH   3  11
ENDBRANCH   1   3
BRANCH   1  19
ATOM     19  C   UNL     1      -2.373  -5.866   3.591  0.00  0.00    +0.109 C 
BRANCH  19  20
ATOM     20  C   UNL     1      -2.897  -7.241   3.171  0.00  0.00    +0.005 C 
ATOM     21  C   UNL     1      -3.873  -7.760   4.229  0.00  0.00    +0.005 C 
ATOM     22  C   UNL     1      -4.396  -9.135   3.809  0.00  0.00    +0.013 C 
ATOM     23  C   UNL     1      -3.224 -10.108   3.675  0.00  0.00    +0.075 C 
ATOM     24  C   UNL     1      -2.248  -9.589   2.618  0.00  0.00    +0.013 C 
ATOM     25  C   UNL     1      -1.724  -8.214   3.038  0.00  0.00    +0.005 C 
BRANCH  23  26
ATOM     26  C   UNL     1      -3.739 -11.462   3.262  0.00  0.00    +0.216 C 
ATOM     27  O   UNL     1      -4.928 -11.632   3.090  0.00  0.00    -0.276 OA
ATOM     28  N   UNL     1      -2.880 -12.485   3.082  0.00  0.00    -0.312 N 
ATOM     29  H   UNL     1      -1.929 -12.349   3.219  0.00  0.00    +0.149 HD
BRANCH  28  30
ATOM     30  C   UNL     1      -3.381 -13.801   2.679  0.00  0.00    +0.073 C 
ATOM     31  C   UNL     1      -3.820 -14.581   3.921  0.00  0.00    +0.022 C 
ATOM     32  C   UNL     1      -2.627 -14.756   4.862  0.00  0.00    +0.005 C 
ATOM     33  C   UNL     1      -1.518 -15.526   4.141  0.00  0.00    -0.014 C 
ATOM     34  C   UNL     1      -1.079 -14.746   2.900  0.00  0.00    +0.005 C 
ATOM     35  C   UNL     1      -2.272 -14.571   1.959  0.00  0.00    +0.022 C 
ATOM     36  C   UNL     1      -0.324 -15.700   5.082  0.00  0.00    +0.007 C 
ENDBRANCH  28  30
ENDBRANCH  23  26
ENDBRANCH  19  20
ENDBRANCH   1  19
TORSDOF 6
