REMARK  Name = ZINC05316221
REMARK  6 active torsions:
REMARK  status: ('A' for Active; 'I' for Inactive)
REMARK    1  A    between atoms: C_1  and  C_2
REMARK    2  A    between atoms: C_7  and  C_8
REMARK    3  A    between atoms: C_8  and  C_9
REMARK    4  A    between atoms: C_8  and  C_10
REMARK    5  A    between atoms: C_11  and  C_16
REMARK    6  A    between atoms: C_16  and  N_17
REMARK                            x       y       z     vdW  Elec       q    Type
REMARK                         _______ _______ _______ _____ _____    ______ ____
ROOT
ATOM      1  C   UNL     1       2.505   0.078  -0.265  0.00  0.00    +0.044 C 
ATOM      2  C   UNL     1       1.212  -0.688  -0.144  0.00  0.00    -0.044 A 
ATOM      3  C   UNL     1       1.194  -2.042  -0.404  0.00  0.00    +0.050 A 
ATOM      4  C   UNL     1       0.005  -2.751  -0.294  0.00  0.00    +0.140 A 
ATOM      5  C   UNL     1      -1.168  -2.074   0.083  0.00  0.00    +0.023 A 
ATOM      6  C   UNL     1      -1.127  -0.702   0.348  0.00  0.00    +0.016 A 
ATOM      7  C   UNL     1       0.053  -0.023   0.228  0.00  0.00    -0.041 A 
ATOM      8  C   UNL     1      -2.420  -2.829   0.196  0.00  0.00    -0.010 A 
ATOM      9  C   UNL     1      -2.392  -4.159  -0.070  0.00  0.00    +0.098 A 
ATOM     10  C   UNL     1      -1.177  -4.774  -0.443  0.00  0.00    +0.338 A 
ATOM     11  O   UNL     1      -1.166  -5.969  -0.679  0.00  0.00    -0.245 OA
ATOM     12  O   UNL     1      -0.036  -4.077  -0.545  0.00  0.00    -0.422 OA
ENDROOT
BRANCH   7  13
ATOM     13  C   UNL     1       0.097   1.457   0.508  0.00  0.00    +0.013 C 
ATOM     14  C   UNL     1      -0.730   2.200  -0.543  0.00  0.00    +0.012 C 
ATOM     15  C   UNL     1      -0.481   1.730   1.898  0.00  0.00    +0.012 C 
ENDBRANCH   7  13
BRANCH   8  16
ATOM     16  C   UNL     1      -3.702  -2.146   0.598  0.00  0.00    +0.162 C 
BRANCH  16  17
ATOM     17  N   UNL     1      -4.759  -3.148   0.759  0.00  0.00    -0.294 N 
ATOM     18  C   UNL     1      -4.903  -3.789   1.948  0.00  0.00    +0.203 A 
ATOM     19  N   UNL     1      -5.814  -4.687   2.170  0.00  0.00    -0.237 NA
ATOM     20  C   UNL     1      -6.699  -5.054   1.210  0.00  0.00    +0.078 A 
ATOM     21  C   UNL     1      -7.679  -6.020   1.447  0.00  0.00    +0.028 A 
ATOM     22  C   UNL     1      -8.557  -6.361   0.443  0.00  0.00    +0.002 A 
ATOM     23  C   UNL     1      -8.482  -5.756  -0.804  0.00  0.00    +0.001 A 
ATOM     24  C   UNL     1      -7.524  -4.800  -1.063  0.00  0.00    +0.015 A 
ATOM     25  C   UNL     1      -6.625  -4.441  -0.061  0.00  0.00    +0.065 A 
ATOM     26  C   UNL     1      -5.586  -3.423  -0.276  0.00  0.00    +0.262 A 
ATOM     27  O   UNL     1      -5.471  -2.853  -1.346  0.00  0.00    -0.267 OA
ENDBRANCH  16  17
ENDBRANCH   8  16
TORSDOF 3
