REMARK  Name = ZINC40929339
REMARK  6 active torsions:
REMARK  status: ('A' for Active; 'I' for Inactive)
REMARK    1  A    between atoms: C_1  and  C_2
REMARK    2  A    between atoms: C_6  and  C_8
REMARK    3  A    between atoms: N_11  and  C_14
REMARK    4  A    between atoms: C_14  and  C_15
REMARK    5  A    between atoms: C_17  and  C_20
REMARK    6  A    between atoms: C_23  and  C_26
REMARK                            x       y       z     vdW  Elec       q    Type
REMARK                         _______ _______ _______ _____ _____    ______ ____
ROOT
ATOM      1  C   UNL     1       3.787  -2.795   7.664  0.00  0.00    +0.211 A 
ATOM      2  N   UNL     1       4.367  -1.911   8.424  0.00  0.00    -0.193 NA
ATOM      3  C   UNL     1       5.627  -2.295   8.698  0.00  0.00    +0.202 A 
ATOM      4  N   UNL     1       5.854  -3.441   8.105  0.00  0.00    -0.056 NA
ATOM      5  O   UNL     1       4.655  -3.787   7.426  0.00  0.00    -0.340 OA
ENDROOT
BRANCH   3   6
ATOM      6  C   UNL     1       6.598  -1.545   9.533  0.00  0.00    +0.022 A 
ATOM      7  C   UNL     1       6.231  -0.334  10.116  0.00  0.00    +0.012 A 
ATOM      8  C   UNL     1       7.138   0.359  10.891  0.00  0.00    +0.013 A 
ATOM      9  C   UNL     1       8.410  -0.146  11.091  0.00  0.00    +0.055 A 
ATOM     10  C   UNL     1       8.780  -1.349  10.515  0.00  0.00    +0.013 A 
ATOM     11  C   UNL     1       7.878  -2.053   9.742  0.00  0.00    +0.012 A 
BRANCH   9  12
ATOM     12  C   UNL     1       9.396   0.615  11.938  0.00  0.00    +0.417 C 
ATOM     13  F   UNL     1       9.278   0.208  13.271  0.00  0.00    -0.166 F 
ATOM     14  F   UNL     1      10.695   0.359  11.485  0.00  0.00    -0.166 F 
ATOM     15  F   UNL     1       9.131   1.986  11.843  0.00  0.00    -0.166 F 
ENDBRANCH   9  12
ENDBRANCH   3   6
BRANCH   1  16
ATOM     16  C   UNL     1       2.374  -2.719   7.145  0.00  0.00    +0.022 C 
BRANCH  16  20
ATOM     17  C   UNL     1       1.746  -1.829   3.026  0.00  0.00    +0.072 C 
ATOM     18  C   UNL     1       0.960  -1.059   4.091  0.00  0.00    -0.006 C 
ATOM     19  C   UNL     1       0.979  -1.849   5.401  0.00  0.00    -0.077 C 
ATOM     20  N   UNL     1       2.365  -2.029   5.848  0.00  0.00    +0.386 N 
ATOM     21  C   UNL     1       3.106  -2.828   4.865  0.00  0.00    -0.077 C 
ATOM     22  C   UNL     1       3.169  -2.075   3.534  0.00  0.00    -0.006 C 
ATOM     23  H   UNL     1       2.805  -1.126   5.947  0.00  0.00    -0.081 HD
BRANCH  17  28
ATOM     24  C   UNL     1      -0.019   1.526   0.010  0.00  0.00    +0.029 C 
ATOM     25  C   UNL     1       0.002  -0.004   0.002  0.00  0.00    +0.090 C 
ATOM     26  C   UNL     1      -0.814  -0.731   1.073  0.00  0.00    +0.130 C 
ATOM     27  N   UNL     1       0.656  -0.681   1.125  0.00  0.00    -0.295 N 
ATOM     28  C   UNL     1       1.798  -1.020   1.755  0.00  0.00    +0.219 C 
ATOM     29  O   UNL     1       2.868  -0.674   1.300  0.00  0.00    -0.275 OA
ENDBRANCH  17  28
ENDBRANCH  16  20
ENDBRANCH   1  16
TORSDOF 5
