REMARK  Name = ZINC35829833
REMARK  8 active torsions:
REMARK  status: ('A' for Active; 'I' for Inactive)
REMARK    1  A    between atoms: C_1  and  C_2
REMARK    2  A    between atoms: C_2  and  C_3
REMARK    3  A    between atoms: C_3  and  N_4
REMARK    4  A    between atoms: N_4  and  C_5
REMARK    5  A    between atoms: C_5  and  C_6
REMARK    6  A    between atoms: C_16  and  C_18
REMARK    7  A    between atoms: C_21  and  C_24
REMARK    8  A    between atoms: C_25  and  C_27
REMARK                            x       y       z     vdW  Elec       q    Type
REMARK                         _______ _______ _______ _____ _____    ______ ____
ROOT
ATOM      1  C   UNL     1       2.404  -3.601   1.660  0.00  0.00    +0.234 C 
ATOM      2  O   UNL     1       2.690  -3.145   2.747  0.00  0.00    -0.274 OA
ATOM      3  N   UNL     1       3.371  -4.094   0.860  0.00  0.00    -0.286 N 
ATOM      4  C   UNL     1       3.037  -4.764  -0.405  0.00  0.00    +0.130 C 
ATOM      5  C   UNL     1       3.604  -3.951  -1.574  0.00  0.00    +0.140 C 
ATOM      6  N   UNL     1       4.991  -3.577  -1.274  0.00  0.00    -0.347 N 
ATOM      7  C   UNL     1       5.940  -3.176  -2.163  0.00  0.00    +0.086 A 
ATOM      8  C   UNL     1       7.075  -2.917  -1.481  0.00  0.00    +0.019 A 
ATOM      9  C   UNL     1       6.818  -3.170  -0.118  0.00  0.00    +0.025 A 
ATOM     10  C   UNL     1       5.542  -3.575  -0.021  0.00  0.00    +0.044 A 
ATOM     11  C   UNL     1       4.794  -3.971   1.226  0.00  0.00    +0.153 C 
ENDROOT
BRANCH  11  12
ATOM     12  C   UNL     1       4.964  -2.913   2.285  0.00  0.00    -0.021 A 
ATOM     13  C   UNL     1       4.449  -1.646   2.085  0.00  0.00    +0.006 A 
ATOM     14  C   UNL     1       4.604  -0.675   3.056  0.00  0.00    +0.004 A 
ATOM     15  C   UNL     1       5.275  -0.971   4.228  0.00  0.00    -0.050 A 
ATOM     16  C   UNL     1       5.789  -2.239   4.429  0.00  0.00    +0.004 A 
ATOM     17  C   UNL     1       5.630  -3.211   3.459  0.00  0.00    +0.006 A 
ATOM     18  C   UNL     1       5.446   0.087   5.287  0.00  0.00    +0.044 C 
ENDBRANCH  11  12
BRANCH   1  19
ATOM     19  C   UNL     1       0.968  -3.616   1.204  0.00  0.00    +0.204 C 
BRANCH  19  20
ATOM     20  N   UNL     1       0.119  -3.030   2.243  0.00  0.00    -0.289 N 
ATOM     21  C   UNL     1      -0.519  -3.828   3.122  0.00  0.00    +0.247 C 
ATOM     22  O   UNL     1      -1.288  -3.348   3.932  0.00  0.00    -0.270 OA
BRANCH  21  23
ATOM     23  C   UNL     1      -0.284  -5.287   3.101  0.00  0.00    +0.037 A 
ATOM     24  C   UNL     1       1.014  -5.785   2.977  0.00  0.00    +0.014 A 
ATOM     25  C   UNL     1       1.227  -7.148   2.958  0.00  0.00    +0.021 A 
ATOM     26  C   UNL     1       0.157  -8.021   3.062  0.00  0.00    +0.041 A 
ATOM     27  C   UNL     1      -1.133  -7.532   3.186  0.00  0.00    +0.021 A 
ATOM     28  C   UNL     1      -1.358  -6.171   3.211  0.00  0.00    +0.014 A 
ATOM     29 CL   UNL     1       0.433  -9.734   3.037  0.00  0.00    -0.084 Cl
ENDBRANCH  21  23
BRANCH  20  30
ATOM     30  C   UNL     1      -0.037  -1.575   2.328  0.00  0.00    +0.108 C 
BRANCH  30  32
ATOM     31  C   UNL     1      -1.310   0.393   1.464  0.00  0.00    +0.005 C 
ATOM     32  C   UNL     1      -1.147  -1.125   1.376  0.00  0.00    +0.016 C 
ENDBRANCH  30  32
ENDBRANCH  20  30
ENDBRANCH  19  20
ENDBRANCH   1  19
TORSDOF 6
