REMARK  Name = ZINC57426917
REMARK  8 active torsions:
REMARK  status: ('A' for Active; 'I' for Inactive)
REMARK    1  A    between atoms: C_1  and  C_2
REMARK    2  A    between atoms: C_5  and  C_9
REMARK    3  A    between atoms: C_7  and  C_8
REMARK    4  A    between atoms: C_9  and  N_10
REMARK    5  A    between atoms: N_18  and  C_21
REMARK    6  A    between atoms: C_21  and  C_22
REMARK    7  A    between atoms: N_24  and  C_25
REMARK    8  A    between atoms: C_25  and  C_26
REMARK                            x       y       z     vdW  Elec       q    Type
REMARK                         _______ _______ _______ _____ _____    ______ ____
ROOT
ATOM      1  N   UNL     1       1.447  -4.746  -0.032  0.00  0.00    -0.256 N 
ATOM      2  C   UNL     1       2.081  -4.951  -1.209  0.00  0.00    +0.271 A 
ATOM      3  O   UNL     1       1.507  -4.747  -2.264  0.00  0.00    -0.266 OA
ATOM      4  C   UNL     1       3.405  -5.400  -1.196  0.00  0.00    +0.100 A 
ATOM      5  C   UNL     1       4.081  -5.639   0.004  0.00  0.00    +0.066 A 
ATOM      6  C   UNL     1       5.389  -6.082  -0.169  0.00  0.00    +0.034 A 
ATOM      7  C   UNL     1       5.883  -6.239  -1.416  0.00  0.00    +0.048 A 
ATOM      8  S   UNL     1       4.614  -5.800  -2.427  0.00  0.00    -0.090 S 
ATOM      9  N   UNL     1       3.356  -5.404   1.181  0.00  0.00    -0.284 N 
ATOM     10  C   UNL     1       2.088  -4.967   1.129  0.00  0.00    +0.333 A 
ATOM     11  O   UNL     1       1.494  -4.769   2.171  0.00  0.00    -0.246 OA
ENDROOT
BRANCH   1  12
ATOM     12  C   UNL     1       0.059  -4.275  -0.021  0.00  0.00    +0.165 C 
BRANCH  12  17
ATOM     13  C   UNL     1      -0.018   1.503   0.010  0.00  0.00    +0.044 C 
ATOM     14  C   UNL     1       0.002  -0.004   0.002  0.00  0.00    -0.048 A 
ATOM     15  C   UNL     1       0.006  -0.689  -1.199  0.00  0.00    +0.004 A 
ATOM     16  C   UNL     1       0.025  -2.071  -1.207  0.00  0.00    +0.005 A 
ATOM     17  C   UNL     1       0.040  -2.768  -0.013  0.00  0.00    -0.027 A 
ATOM     18  C   UNL     1       0.037  -2.084   1.188  0.00  0.00    +0.009 A 
ATOM     19  C   UNL     1       0.023  -0.702   1.195  0.00  0.00    -0.047 A 
ATOM     20  C   UNL     1       0.025   0.045   2.504  0.00  0.00    +0.044 C 
ENDBRANCH  12  17
ENDBRANCH   1  12
BRANCH   9  21
ATOM     21  C   UNL     1       3.991  -5.630   2.482  0.00  0.00    +0.222 C 
BRANCH  21  22
ATOM     22  C   UNL     1       4.665  -4.363   2.940  0.00  0.00    +0.233 C 
ATOM     23  O   UNL     1       4.619  -3.368   2.248  0.00  0.00    -0.274 OA
ATOM     24  N   UNL     1       5.319  -4.334   4.118  0.00  0.00    -0.307 N 
ATOM     25  H   UNL     1       5.355  -5.130   4.671  0.00  0.00    +0.149 HD
BRANCH  24  26
ATOM     26  C   UNL     1       5.974  -3.102   4.563  0.00  0.00    +0.178 C 
BRANCH  26  27
ATOM     27  C   UNL     1       6.627  -3.335   5.901  0.00  0.00    +0.122 A 
ATOM     28  C   UNL     1       7.889  -3.759   6.097  0.00  0.00    +0.046 A 
ATOM     29  C   UNL     1       8.081  -3.838   7.495  0.00  0.00    +0.041 A 
ATOM     30  C   UNL     1       6.926  -3.459   8.070  0.00  0.00    +0.195 A 
ATOM     31  O   UNL     1       6.051  -3.150   7.099  0.00  0.00    -0.466 OA
ENDBRANCH  26  27
ENDBRANCH  24  26
ENDBRANCH  21  22
ENDBRANCH   9  21
TORSDOF 6
