REMARK  Name = ZINC00505622
REMARK  4 active torsions:
REMARK  status: ('A' for Active; 'I' for Inactive)
REMARK    1  A    between atoms: C_1  and  C_2
REMARK    2  A    between atoms: C_5  and  N_8
REMARK    3  A    between atoms: C_9  and  N_15
REMARK    4  A    between atoms: C_10  and  C_13
REMARK                            x       y       z     vdW  Elec       q    Type
REMARK                         _______ _______ _______ _____ _____    ______ ____
ROOT
ATOM      1  N   UNL     1       0.002  -0.004   0.002  0.00  0.00    -0.213 N 
ATOM      2  C   UNL     1      -0.886  -0.819   0.640  0.00  0.00    +0.175 A 
ATOM      3  C   UNL     1      -0.496  -2.134   0.367  0.00  0.00    +0.115 A 
ATOM      4  C   UNL     1       0.651  -2.063  -0.453  0.00  0.00    +0.156 A 
ATOM      5  N   UNL     1       0.932  -0.808  -0.666  0.00  0.00    -0.172 NA
ENDROOT
BRANCH   2   6
ATOM      6  N   UNL     1      -1.945  -0.428   1.395  0.00  0.00    -0.220 NA
ATOM      7  C   UNL     1      -3.113  -0.244   0.838  0.00  0.00    +0.186 C 
ATOM      8  N   UNL     1      -4.177   0.148   1.596  0.00  0.00    -0.321 N 
ATOM      9  C   UNL     1      -4.027   0.362   3.042  0.00  0.00    +0.106 C 
ATOM     10  C   UNL     1      -4.537   1.770   3.383  0.00  0.00    +0.019 C 
ATOM     11  C   UNL     1      -5.970   1.926   2.870  0.00  0.00    +0.003 C 
ATOM     12  C   UNL     1      -5.990   1.762   1.349  0.00  0.00    +0.019 C 
ATOM     13  C   UNL     1      -5.495   0.359   0.984  0.00  0.00    +0.106 C 
ENDBRANCH   2   6
BRANCH   1  18
ATOM     14  C   UNL     1      -0.075   5.670   0.033  0.00  0.00    +0.044 C 
ATOM     15  C   UNL     1      -0.054   4.163   0.025  0.00  0.00    -0.050 A 
ATOM     16  C   UNL     1       1.153   3.489   0.010  0.00  0.00    +0.005 A 
ATOM     17  C   UNL     1       1.175   2.108   0.002  0.00  0.00    +0.028 A 
ATOM     18  C   UNL     1      -0.017   1.396   0.010  0.00  0.00    +0.068 A 
ATOM     19  C   UNL     1      -1.228   2.076   0.019  0.00  0.00    +0.028 A 
ATOM     20  C   UNL     1      -1.243   3.457   0.033  0.00  0.00    +0.005 A 
ENDBRANCH   1  18
BRANCH   3  21
ATOM     21  C   UNL     1      -1.139  -3.327   0.831  0.00  0.00    +0.104 C 
ATOM     22  N   UNL     1      -1.649  -4.273   1.199  0.00  0.00    -0.191 NA
ENDBRANCH   3  21
TORSDOF 3
