REMARK  Name = ZINC35513179
REMARK  10 active torsions:
REMARK  status: ('A' for Active; 'I' for Inactive)
REMARK    1  A    between atoms: C_1  and  C_2
REMARK    2  A    between atoms: C_7  and  N_12
REMARK    3  A    between atoms: C_9  and  C_11
REMARK    4  A    between atoms: C_13  and  C_15
REMARK    5  A    between atoms: C_15  and  O_16
REMARK    6  A    between atoms: O_16  and  C_17
REMARK    7  A    between atoms: C_17  and  C_19
REMARK    8  A    between atoms: C_19  and  C_20
REMARK    9  A    between atoms: C_20  and  C_22
REMARK   10  A    between atoms: C_20  and  N_29
REMARK                            x       y       z     vdW  Elec       q    Type
REMARK                         _______ _______ _______ _____ _____    ______ ____
ROOT
ATOM      1  C   UNL     1       3.842  -6.041   4.833  0.00  0.00    +0.310 C 
ATOM      2  O   UNL     1       4.189  -5.591   5.899  0.00  0.00    -0.251 OA
ENDROOT
BRANCH   1   3
ATOM      3  O   UNL     1       2.989  -5.353   4.059  0.00  0.00    -0.455 OA
BRANCH   3   4
ATOM      4  C   UNL     1       2.530  -4.095   4.558  0.00  0.00    +0.327 C 
BRANCH   4   6
ATOM      5  N   UNL     1       1.026  -2.274   3.821  0.00  0.00    -0.309 N 
ATOM      6  C   UNL     1       1.587  -3.472   3.561  0.00  0.00    +0.251 C 
ATOM      7  O   UNL     1       1.333  -4.048   2.525  0.00  0.00    -0.272 OA
ATOM      8  H   UNL     1       1.230  -1.813   4.650  0.00  0.00    +0.149 HD
BRANCH   5  14
ATOM      9  C   UNL     1      -0.857   2.002   2.206  0.00  0.00    +0.008 C 
ATOM     10  C   UNL     1      -0.852   0.483   2.023  0.00  0.00    -0.009 C 
ATOM     11  C   UNL     1      -2.264  -0.062   2.247  0.00  0.00    +0.003 C 
ATOM     12  C   UNL     1      -2.259  -1.581   2.064  0.00  0.00    +0.002 C 
ATOM     13  C   UNL     1      -1.302  -2.214   3.076  0.00  0.00    +0.022 C 
ATOM     14  C   UNL     1       0.110  -1.669   2.852  0.00  0.00    +0.076 C 
ATOM     15  C   UNL     1       0.105  -0.150   3.035  0.00  0.00    +0.009 C 
ATOM     16  C   UNL     1      -0.354   0.192   4.454  0.00  0.00    +0.009 C 
ENDBRANCH   5  14
ENDBRANCH   4   6
ENDBRANCH   3   4
ENDBRANCH   1   3
BRANCH   1  17
ATOM     17  C   UNL     1       4.369  -7.376   4.372  0.00  0.00    +0.147 C 
BRANCH  17  18
ATOM     18  C   UNL     1       5.315  -7.945   5.431  0.00  0.00    +0.117 C 
BRANCH  18  19
ATOM     19  C   UNL     1       5.745  -9.332   5.028  0.00  0.00    -0.008 A 
ATOM     20  C   UNL     1       5.539  -9.770   3.733  0.00  0.00    +0.007 A 
ATOM     21  C   UNL     1       5.933 -11.043   3.363  0.00  0.00    +0.000 A 
ATOM     22  C   UNL     1       6.534 -11.877   4.288  0.00  0.00    +0.001 A 
ATOM     23  C   UNL     1       6.741 -11.439   5.582  0.00  0.00    +0.020 A 
ATOM     24  C   UNL     1       6.351 -10.164   5.952  0.00  0.00    +0.046 A 
ATOM     25 CL   UNL     1       6.617  -9.611   7.576  0.00  0.00    -0.083 Cl
ENDBRANCH  18  19
BRANCH  18  26
ATOM     26  N   UNL     1       6.494  -7.082   5.546  0.00  0.00    -0.292 N 
ATOM     27  C   UNL     1       7.340  -6.956   4.505  0.00  0.00    +0.298 C 
ATOM     28  O   UNL     1       7.078  -7.481   3.441  0.00  0.00    -0.253 OA
ATOM     29  N   UNL     1       8.478  -6.247   4.644  0.00  0.00    -0.313 N 
ATOM     30  H   UNL     1       6.664  -6.602   6.371  0.00  0.00    +0.151 HD
ATOM     31  H   UNL     1       8.687  -5.827   5.494  0.00  0.00    +0.146 HD
ATOM     32  H   UNL     1       9.088  -6.155   3.895  0.00  0.00    +0.146 HD
ENDBRANCH  18  26
ENDBRANCH  17  18
ENDBRANCH   1  17
TORSDOF 8
