REMARK  Name = ZINC49546167
REMARK  5 active torsions:
REMARK  status: ('A' for Active; 'I' for Inactive)
REMARK    1  A    between atoms: C_1  and  N_2
REMARK    2  A    between atoms: C_7  and  C_13
REMARK    3  A    between atoms: C_10  and  O_12
REMARK    4  A    between atoms: C_16  and  O_19
REMARK    5  A    between atoms: O_19  and  C_20
REMARK                            x       y       z     vdW  Elec       q    Type
REMARK                         _______ _______ _______ _____ _____    ______ ____
ROOT
ATOM      1  C   UNL     1      -0.221   1.640  -0.932  0.00  0.00    +0.174 C 
ATOM      2  N   UNL     1      -0.129   0.201  -0.678  0.00  0.00    -0.250 N 
ATOM      3  C   UNL     1      -0.120  -0.774  -1.612  0.00  0.00    +0.158 A 
ATOM      4  C   UNL     1      -0.025  -1.986  -0.939  0.00  0.00    +0.024 A 
ATOM      5  C   UNL     1       0.028  -1.716   0.415  0.00  0.00    +0.140 A 
ATOM      6  N   UNL     1      -0.028  -0.414   0.581  0.00  0.00    -0.178 NA
ATOM      7  C   UNL     1       0.001  -3.299  -1.679  0.00  0.00    +0.063 C 
ATOM      8  C   UNL     1      -0.783  -3.114  -2.983  0.00  0.00    +0.108 C 
ATOM      9  C   UNL     1      -0.470  -1.800  -3.635  0.00  0.00    +0.190 C 
ATOM     10  N   UNL     1      -0.181  -0.719  -2.974  0.00  0.00    -0.198 NA
ENDROOT
BRANCH   7  11
ATOM     11  C   UNL     1       1.425  -3.684  -1.987  0.00  0.00    -0.039 A 
ATOM     12  C   UNL     1       2.214  -2.850  -2.758  0.00  0.00    +0.008 A 
ATOM     13  C   UNL     1       3.519  -3.201  -3.042  0.00  0.00    +0.046 A 
ATOM     14  C   UNL     1       4.039  -4.391  -2.553  0.00  0.00    +0.121 A 
ATOM     15  C   UNL     1       3.245  -5.225  -1.779  0.00  0.00    +0.046 A 
ATOM     16  C   UNL     1       1.942  -4.867  -1.493  0.00  0.00    +0.008 A 
BRANCH  14  17
ATOM     17  O   UNL     1       5.323  -4.738  -2.831  0.00  0.00    -0.489 OA
BRANCH  17  18
ATOM     18  C   UNL     1       6.118  -3.778  -3.530  0.00  0.00    +0.173 C 
ATOM     19  C   UNL     1       5.925  -3.940  -5.052  0.00  0.00    +0.044 C 
ATOM     20  C   UNL     1       7.330  -3.666  -5.644  0.00  0.00    +0.004 C 
ATOM     21  C   UNL     1       8.273  -4.326  -4.607  0.00  0.00    +0.004 C 
ATOM     22  C   UNL     1       7.610  -4.024  -3.247  0.00  0.00    +0.044 C 
ENDBRANCH  17  18
ENDBRANCH  14  17
ENDBRANCH   7  11
BRANCH   9  23
ATOM     23  O   UNL     1      -0.490  -1.737  -4.983  0.00  0.00    -0.495 OA
ATOM     24  H   UNL     1      -0.280  -0.863  -5.339  0.00  0.00    +0.293 HD
ENDBRANCH   9  23
TORSDOF 4
