REMARK  Name = ZINC31649410
REMARK  8 active torsions:
REMARK  status: ('A' for Active; 'I' for Inactive)
REMARK    1  A    between atoms: C_1  and  C_2
REMARK    2  A    between atoms: C_5  and  C_8
REMARK    3  A    between atoms: N_11  and  C_13
REMARK    4  A    between atoms: C_13  and  C_15
REMARK    5  A    between atoms: C_13  and  C_16
REMARK    6  A    between atoms: N_18  and  C_19
REMARK    7  A    between atoms: C_23  and  C_26
REMARK    8  A    between atoms: C_24  and  C_25
REMARK                            x       y       z     vdW  Elec       q    Type
REMARK                         _______ _______ _______ _____ _____    ______ ____
ROOT
ATOM      1  C   UNL     1      -1.329   1.945   0.034  0.00  0.00    +0.213 C 
ATOM      2  C   UNL     1      -1.409   2.810   1.294  0.00  0.00    +0.044 C 
ENDROOT
BRANCH   1   6
ATOM      3  C   UNL     1      -4.156  -0.092  -0.524  0.00  0.00    +0.205 A 
ATOM      4  N   UNL     1      -3.686  -0.595   0.626  0.00  0.00    -0.108 NA
ATOM      5  N   UNL     1      -2.630   0.079   0.934  0.00  0.00    -0.045 NA
ATOM      6  N   UNL     1      -2.430   0.978   0.035  0.00  0.00    -0.151 N 
ATOM      7  N   UNL     1      -3.347   0.891  -0.866  0.00  0.00    -0.130 NA
BRANCH   3  12
ATOM      8  C   UNL     1      -8.808  -1.878  -3.413  0.00  0.00    +0.044 C 
ATOM      9  C   UNL     1      -7.591  -1.411  -2.658  0.00  0.00    -0.050 A 
ATOM     10  C   UNL     1      -7.231  -2.035  -1.477  0.00  0.00    +0.004 A 
ATOM     11  C   UNL     1      -6.118  -1.611  -0.780  0.00  0.00    +0.012 A 
ATOM     12  C   UNL     1      -5.355  -0.552  -1.269  0.00  0.00    +0.023 A 
ATOM     13  C   UNL     1      -5.725   0.076  -2.456  0.00  0.00    +0.012 A 
ATOM     14  C   UNL     1      -6.837  -0.360  -3.147  0.00  0.00    +0.004 A 
ENDBRANCH   3  12
ENDBRANCH   1   6
BRANCH   1  15
ATOM     15  C   UNL     1      -0.015   1.209   0.012  0.00  0.00    +0.243 C 
ATOM     16  O   UNL     1       0.002  -0.004  -0.001  0.00  0.00    -0.273 OA
ATOM     17  N   UNL     1       1.143   1.898   0.001  0.00  0.00    -0.283 N 
ATOM     18  H   UNL     1       1.130   2.995  -0.078  0.00  0.00    +0.155 HD
BRANCH  17  19
ATOM     19  C   UNL     1       2.363   1.219   0.092  0.00  0.00    +0.037 A 
ATOM     20  C   UNL     1       2.420  -0.033   0.691  0.00  0.00    +0.023 A 
ATOM     21  C   UNL     1       3.625  -0.701   0.778  0.00  0.00    +0.002 A 
ATOM     22  C   UNL     1       4.775  -0.125   0.271  0.00  0.00    +0.004 A 
ATOM     23  C   UNL     1       4.723   1.121  -0.326  0.00  0.00    -0.046 A 
ATOM     24  C   UNL     1       3.519   1.792  -0.422  0.00  0.00    -0.026 A 
ATOM     25  C   UNL     1       3.461   3.147  -1.078  0.00  0.00    +0.046 C 
ATOM     26  C   UNL     1       5.978   1.745  -0.878  0.00  0.00    +0.044 C 
ENDBRANCH  17  19
ENDBRANCH   1  15
TORSDOF 4
