REMARK  Name = ZINC39195926
REMARK  6 active torsions:
REMARK  status: ('A' for Active; 'I' for Inactive)
REMARK    1  A    between atoms: C_1  and  C_2
REMARK    2  A    between atoms: C_2  and  C_3
REMARK    3  A    between atoms: C_3  and  C_4
REMARK    4  A    between atoms: C_16  and  C_18
REMARK    5  A    between atoms: C_23  and  O_24
REMARK    6  A    between atoms: O_24  and  C_25
REMARK                            x       y       z     vdW  Elec       q    Type
REMARK                         _______ _______ _______ _____ _____    ______ ____
ROOT
ATOM      1  C   UNL     1       0.671  -2.022  -1.217  0.00  0.00    +0.064 C 
ATOM      2  C   UNL     1      -0.720  -2.652  -1.454  0.00  0.00    +0.134 C 
ATOM      3  N   UNL     1      -0.543  -3.764  -2.399  0.00  0.00    -0.295 N 
ATOM      4  C   UNL     1       0.889  -3.878  -2.733  0.00  0.00    +0.123 C 
ATOM      5  C   UNL     1       1.475  -2.478  -2.451  0.00  0.00    +0.117 C 
ATOM      6  C   UNL     1       2.936  -2.576  -2.141  0.00  0.00    +0.227 C 
ATOM      7  O   UNL     1       3.740  -2.428  -3.036  0.00  0.00    -0.275 OA
ATOM      8  N   UNL     1       3.381  -2.825  -0.899  0.00  0.00    -0.240 N 
ATOM      9  C   UNL     1       2.527  -2.902   0.135  0.00  0.00    +0.306 C 
ATOM     10  O   UNL     1       2.942  -3.265   1.218  0.00  0.00    -0.252 OA
ATOM     11  N   UNL     1       1.244  -2.575   0.005  0.00  0.00    -0.291 N 
ATOM     12  C   UNL     1      -1.526  -4.549  -2.881  0.00  0.00    +0.250 C 
ATOM     13  O   UNL     1      -2.667  -4.407  -2.484  0.00  0.00    -0.270 OA
ATOM     14  H   UNL     1       4.330  -2.951  -0.746  0.00  0.00    +0.159 HD
ATOM     15  H   UNL     1       0.659  -2.724   0.765  0.00  0.00    +0.151 HD
ENDROOT
BRANCH  12  16
ATOM     16  C   UNL     1      -1.219  -5.582  -3.889  0.00  0.00    +0.079 A 
ATOM     17  C   UNL     1      -0.014  -6.286  -3.829  0.00  0.00    +0.017 A 
ATOM     18  C   UNL     1       0.266  -7.249  -4.773  0.00  0.00    +0.001 A 
ATOM     19  C   UNL     1      -0.641  -7.523  -5.784  0.00  0.00    +0.004 A 
ATOM     20  C   UNL     1      -1.835  -6.834  -5.856  0.00  0.00    +0.047 A 
ATOM     21  C   UNL     1      -2.137  -5.865  -4.910  0.00  0.00    +0.141 A 
BRANCH  21  22
ATOM     22  O   UNL     1      -3.313  -5.192  -4.975  0.00  0.00    -0.455 OA
BRANCH  22  23
ATOM     23  C   UNL     1      -4.218  -5.578  -5.912  0.00  0.00    +0.128 A 
ATOM     24  C   UNL     1      -4.830  -6.820  -5.817  0.00  0.00    +0.046 A 
ATOM     25  C   UNL     1      -5.749  -7.210  -6.771  0.00  0.00    +0.004 A 
ATOM     26  C   UNL     1      -6.060  -6.364  -7.820  0.00  0.00    +0.000 A 
ATOM     27  C   UNL     1      -5.452  -5.127  -7.917  0.00  0.00    +0.004 A 
ATOM     28  C   UNL     1      -4.536  -4.729  -6.963  0.00  0.00    +0.046 A 
ENDBRANCH  22  23
ENDBRANCH  21  22
ENDBRANCH  12  16
BRANCH   1  29
ATOM     29  C   UNL     1       0.585  -0.496  -1.145  0.00  0.00    +0.028 C 
BRANCH  29  31
ATOM     30  C   UNL     1      -0.197   1.440   0.228  0.00  0.00    +0.004 C 
ATOM     31  C   UNL     1      -0.111  -0.086   0.155  0.00  0.00    -0.001 C 
ENDBRANCH  29  31
ENDBRANCH   1  29
TORSDOF 5
