REMARK  Name = ZINC02253111
REMARK  3 active torsions:
REMARK  status: ('A' for Active; 'I' for Inactive)
REMARK    1  A    between atoms: C_3  and  C_6
REMARK    2  A    between atoms: C_14  and  C_26
REMARK    3  A    between atoms: C_17  and  C_19
REMARK                            x       y       z     vdW  Elec       q    Type
REMARK                         _______ _______ _______ _____ _____    ______ ____
ROOT
ATOM      1  C   UNL     1       3.561   0.619  -0.029  0.00  0.00    +0.286 C 
ATOM      2  O   UNL     1       4.194   1.658  -0.030  0.00  0.00    -0.266 OA
ATOM      3  N   UNL     1       4.206  -0.564  -0.042  0.00  0.00    -0.247 N 
ATOM      4  C   UNL     1       5.603  -0.598  -0.055  0.00  0.00    +0.243 A 
ATOM      5  N   UNL     1       6.403   0.474  -0.052  0.00  0.00    -0.176 NA
ATOM      6  C   UNL     1       7.655   0.089  -0.071  0.00  0.00    +0.251 A 
ATOM      7  N   UNL     1       7.667  -1.279  -0.079  0.00  0.00    -0.220 N 
ATOM      8  N   UNL     1       6.339  -1.691  -0.068  0.00  0.00    -0.131 NA
ATOM      9  C   UNL     1       8.906  -2.057  -0.083  0.00  0.00    +0.147 C 
ATOM     10  C   UNL     1       9.984  -1.228  -0.789  0.00  0.00    +0.087 C 
ATOM     11  C   UNL     1       9.928   0.211  -0.359  0.00  0.00    +0.055 C 
ATOM     12  N   UNL     1       8.807   0.812  -0.061  0.00  0.00    -0.215 NA
ATOM     13  H   UNL     1       3.701  -1.392  -0.041  0.00  0.00    +0.158 HD
ENDROOT
BRANCH  11  14
ATOM     14  C   UNL     1      11.183   0.972  -0.269  0.00  0.00    -0.003 A 
ATOM     15  C   UNL     1      12.400   0.360  -0.587  0.00  0.00    +0.011 A 
ATOM     16  C   UNL     1      13.573   1.079  -0.501  0.00  0.00    +0.020 A 
ATOM     17  C   UNL     1      13.548   2.405  -0.101  0.00  0.00    +0.041 A 
ATOM     18  C   UNL     1      12.347   3.018   0.215  0.00  0.00    +0.020 A 
ATOM     19  C   UNL     1      11.166   2.313   0.128  0.00  0.00    +0.011 A 
ATOM     20 CL   UNL     1      15.030   3.303   0.004  0.00  0.00    -0.084 Cl
ENDBRANCH  11  14
BRANCH   9  21
ATOM     21  C   UNL     1       8.691  -3.352  -0.823  0.00  0.00    -0.022 A 
ATOM     22  C   UNL     1       8.315  -3.333  -2.153  0.00  0.00    +0.008 A 
ATOM     23  C   UNL     1       8.118  -4.521  -2.833  0.00  0.00    +0.038 A 
ATOM     24  C   UNL     1       8.299  -5.729  -2.181  0.00  0.00    +0.123 A 
ATOM     25  C   UNL     1       8.676  -5.746  -0.849  0.00  0.00    +0.038 A 
ATOM     26  C   UNL     1       8.877  -4.558  -0.173  0.00  0.00    +0.008 A 
ATOM     27  F   UNL     1       8.106  -6.890  -2.845  0.00  0.00    -0.205 F 
ENDBRANCH   9  21
BRANCH   1  30
ATOM     28  C   UNL     1      -0.016   1.347   0.009  0.00  0.00    +0.042 A 
ATOM     29  C   UNL     1       1.319   1.778  -0.001  0.00  0.00    +0.054 A 
ATOM     30  C   UNL     1       2.095   0.654  -0.014  0.00  0.00    +0.189 A 
ATOM     31  O   UNL     1       1.276  -0.418  -0.012  0.00  0.00    -0.458 OA
ATOM     32  C   UNL     1       0.002  -0.004   0.002  0.00  0.00    +0.196 A 
ENDBRANCH   1  30
TORSDOF 3
