REMARK  Name = ZINC04985146
REMARK  8 active torsions:
REMARK  status: ('A' for Active; 'I' for Inactive)
REMARK    1  A    between atoms: C_1  and  C_2
REMARK    2  A    between atoms: C_5  and  S_14
REMARK    3  A    between atoms: N_6  and  C_7
REMARK    4  A    between atoms: C_7  and  C_8
REMARK    5  A    between atoms: S_14  and  C_15
REMARK    6  A    between atoms: C_15  and  C_16
REMARK    7  A    between atoms: C_28  and  C_29
REMARK    8  A    between atoms: C_28  and  C_30
REMARK                            x       y       z     vdW  Elec       q    Type
REMARK                         _______ _______ _______ _____ _____    ______ ____
ROOT
ATOM      1  C   UNL     1      -2.509   1.437   0.341  0.00  0.00    +0.231 C 
ATOM      2  O   UNL     1      -3.506   2.008   0.730  0.00  0.00    -0.274 OA
ATOM      3  N   UNL     1      -1.301   2.019   0.482  0.00  0.00    -0.255 N 
ATOM      4  C   UNL     1      -1.182   3.338   0.946  0.00  0.00    +0.059 A 
ATOM      5  C   UNL     1      -2.179   4.269   0.715  0.00  0.00    +0.025 A 
ATOM      6  C   UNL     1      -2.029   5.564   1.177  0.00  0.00    +0.002 A 
ATOM      7  C   UNL     1      -0.887   5.929   1.866  0.00  0.00    +0.002 A 
ATOM      8  C   UNL     1       0.113   5.003   2.102  0.00  0.00    +0.025 A 
ATOM      9  C   UNL     1      -0.030   3.702   1.645  0.00  0.00    +0.055 A 
ATOM     10  N   UNL     1       0.964   2.747   1.882  0.00  0.00    -0.282 N 
ATOM     11  C   UNL     1       0.968   1.578   1.214  0.00  0.00    +0.241 C 
ATOM     12  O   UNL     1       1.814   0.746   1.466  0.00  0.00    -0.273 OA
ATOM     13  C   UNL     1      -0.066   1.291   0.155  0.00  0.00    +0.113 C 
ATOM     14  C   UNL     1       0.455   1.752  -1.208  0.00  0.00    +0.042 C 
ATOM     15  C   UNL     1      -0.351  -0.212   0.113  0.00  0.00    +0.042 C 
ATOM     16  H   UNL     1       1.658   2.929   2.535  0.00  0.00    +0.155 HD
ENDROOT
BRANCH   1  17
ATOM     17  C   UNL     1      -2.620   0.077  -0.299  0.00  0.00    +0.173 C 
BRANCH  17  18
ATOM     18  S   UNL     1      -4.365  -0.325  -0.561  0.00  0.00    -0.077 S 
BRANCH  18  23
ATOM     19  C   UNL     1      -5.323  -5.045  -2.808  0.00  0.00    +0.088 C 
ATOM     20  C   UNL     1      -4.624  -3.847  -2.218  0.00  0.00    +0.131 A 
ATOM     21  N   UNL     1      -3.337  -3.690  -2.089  0.00  0.00    -0.134 NA
ATOM     22  N   UNL     1      -3.083  -2.553  -1.547  0.00  0.00    -0.122 NA
ATOM     23  C   UNL     1      -4.205  -1.917  -1.298  0.00  0.00    +0.192 A 
ATOM     24  N   UNL     1      -5.223  -2.726  -1.714  0.00  0.00    -0.302 N 
BRANCH  24  25
ATOM     25  C   UNL     1      -6.660  -2.449  -1.638  0.00  0.00    +0.160 C 
BRANCH  25  26
ATOM     26  C   UNL     1      -7.104  -1.754  -2.899  0.00  0.00    -0.028 A 
ATOM     27  C   UNL     1      -7.082  -0.373  -2.972  0.00  0.00    +0.005 A 
ATOM     28  C   UNL     1      -7.486   0.264  -4.131  0.00  0.00    +0.000 A 
ATOM     29  C   UNL     1      -7.921  -0.479  -5.213  0.00  0.00    +0.000 A 
ATOM     30  C   UNL     1      -7.948  -1.859  -5.138  0.00  0.00    +0.000 A 
ATOM     31  C   UNL     1      -7.540  -2.496  -3.981  0.00  0.00    +0.005 A 
ENDBRANCH  25  26
ENDBRANCH  24  25
ENDBRANCH  18  23
ENDBRANCH  17  18
ENDBRANCH   1  17
TORSDOF 5
