REMARK  Name = ZINC35991899
REMARK  12 active torsions:
REMARK  status: ('A' for Active; 'I' for Inactive)
REMARK    1  A    between atoms: C_1  and  C_2
REMARK    2  A    between atoms: C_2  and  O_3
REMARK    3  A    between atoms: O_3  and  C_4
REMARK    4  A    between atoms: C_4  and  C_6
REMARK    5  A    between atoms: C_7  and  C_23
REMARK    6  A    between atoms: N_8  and  C_22
REMARK    7  A    between atoms: C_12  and  C_14
REMARK    8  A    between atoms: C_19  and  O_20
REMARK    9  A    between atoms: O_20  and  C_21
REMARK   10  A    between atoms: C_23  and  N_24
REMARK   11  A    between atoms: C_28  and  C_31
REMARK   12  A    between atoms: C_32  and  C_34
REMARK                            x       y       z     vdW  Elec       q    Type
REMARK                         _______ _______ _______ _____ _____    ______ ____
ROOT
ATOM      1  C   UNL     1       0.454  -1.600   0.002  0.00  0.00    +0.080 C 
ATOM      2  C   UNL     1       0.695  -2.905   0.249  0.00  0.00    +0.041 C 
ATOM      3  N   UNL     1       1.022  -3.337   1.502  0.00  0.00    -0.260 N 
ATOM      4  C   UNL     1       1.128  -2.527   2.563  0.00  0.00    +0.307 C 
ATOM      5  O   UNL     1       1.424  -3.004   3.640  0.00  0.00    -0.252 OA
ATOM      6  N   UNL     1       0.917  -1.198   2.474  0.00  0.00    -0.288 N 
ATOM      7  C   UNL     1       0.565  -0.631   1.162  0.00  0.00    +0.147 C 
ATOM      8  C   UNL     1       1.270  -4.768   1.698  0.00  0.00    +0.139 C 
ATOM      9  H   UNL     1       0.999  -0.629   3.255  0.00  0.00    +0.151 HD
ENDROOT
BRANCH   7  10
ATOM     10  C   UNL     1       1.600   0.405   0.805  0.00  0.00    +0.019 A 
ATOM     11  C   UNL     1       2.916   0.226   1.186  0.00  0.00    +0.009 A 
ATOM     12  C   UNL     1       3.866   1.176   0.859  0.00  0.00    +0.001 A 
ATOM     13  C   UNL     1       3.502   2.306   0.150  0.00  0.00    +0.004 A 
ATOM     14  C   UNL     1       2.188   2.489  -0.234  0.00  0.00    +0.046 A 
ATOM     15  C   UNL     1       1.234   1.534   0.088  0.00  0.00    +0.125 A 
BRANCH  15  16
ATOM     16  O   UNL     1      -0.059   1.709  -0.293  0.00  0.00    -0.495 OA
ATOM     17  C   UNL     1      -0.345   2.841  -1.117  0.00  0.00    +0.277 C 
ENDBRANCH  15  16
ENDBRANCH   7  10
BRANCH   1  18
ATOM     18  C   UNL     1       0.116  -1.151  -1.296  0.00  0.00    +0.339 C 
ATOM     19  O   UNL     1      -1.047  -0.930  -1.580  0.00  0.00    -0.245 OA
BRANCH  18  20
ATOM     20  O   UNL     1       1.082  -0.968  -2.220  0.00  0.00    -0.462 OA
BRANCH  20  22
ATOM     21  C   UNL     1       1.881  -0.389  -4.426  0.00  0.00    +0.048 C 
ATOM     22  C   UNL     1       0.684  -0.408  -3.473  0.00  0.00    +0.229 C 
ENDBRANCH  20  22
ENDBRANCH  18  20
ENDBRANCH   1  18
BRANCH   2  23
ATOM     23  C   UNL     1       0.601  -3.902  -0.878  0.00  0.00    +0.136 C 
BRANCH  23  24
ATOM     24  N   UNL     1       1.924  -4.492  -1.121  0.00  0.00    -0.294 NA
ATOM     25  C   UNL     1       2.868  -3.482  -1.617  0.00  0.00    +0.104 C 
ATOM     26  C   UNL     1       4.272  -4.090  -1.686  0.00  0.00    +0.124 C 
ATOM     27  N   UNL     1       4.208  -5.325  -2.482  0.00  0.00    -0.292 N 
ATOM     28  C   UNL     1       3.192  -6.329  -2.129  0.00  0.00    +0.087 C 
ATOM     29  C   UNL     1       1.830  -5.632  -2.043  0.00  0.00    +0.107 C 
ATOM     30  C   UNL     1       3.151  -7.417  -3.203  0.00  0.00    +0.029 C 
ATOM     31  C   UNL     1       5.059  -5.532  -3.507  0.00  0.00    +0.247 C 
ATOM     32  O   UNL     1       4.921  -6.504  -4.224  0.00  0.00    -0.270 OA
BRANCH  31  33
ATOM     33  C   UNL     1       6.158  -4.579  -3.759  0.00  0.00    +0.037 A 
ATOM     34  C   UNL     1       6.689  -3.828  -2.708  0.00  0.00    +0.016 A 
ATOM     35  C   UNL     1       7.715  -2.939  -2.948  0.00  0.00    +0.039 A 
ATOM     36  C   UNL     1       8.219  -2.790  -4.231  0.00  0.00    +0.123 A 
ATOM     37  C   UNL     1       7.696  -3.533  -5.278  0.00  0.00    +0.039 A 
ATOM     38  C   UNL     1       6.674  -4.429  -5.048  0.00  0.00    +0.016 A 
ATOM     39  F   UNL     1       9.224  -1.917  -4.462  0.00  0.00    -0.205 F 
ENDBRANCH  31  33
ENDBRANCH  23  24
ENDBRANCH   2  23
TORSDOF 8
