REMARK  Name = ZINC26511148
REMARK  3 active torsions:
REMARK  status: ('A' for Active; 'I' for Inactive)
REMARK    1  A    between atoms: C_1  and  C_2
REMARK    2  A    between atoms: C_5  and  C_22
REMARK    3  A    between atoms: N_8  and  C_10
REMARK                            x       y       z     vdW  Elec       q    Type
REMARK                         _______ _______ _______ _____ _____    ______ ____
ROOT
ATOM      1  C   UNL     1       3.584   1.883  -0.021  0.00  0.00    +0.102 A 
ATOM      2  C   UNL     1       2.445   1.149  -0.015  0.00  0.00    +0.050 A 
ATOM      3  C   UNL     1       1.187   1.797   0.000  0.00  0.00    -0.010 A 
ATOM      4  C   UNL     1      -0.013   1.076   0.008  0.00  0.00    +0.009 A 
ATOM      5  C   UNL     1      -1.202   1.747   0.017  0.00  0.00    +0.001 A 
ATOM      6  C   UNL     1      -1.238   3.137   0.032  0.00  0.00    +0.001 A 
ATOM      7  C   UNL     1      -0.084   3.868   0.024  0.00  0.00    +0.014 A 
ATOM      8  C   UNL     1       1.148   3.212   0.008  0.00  0.00    +0.047 A 
ATOM      9  C   UNL     1       2.416   3.946   0.001  0.00  0.00    +0.258 A 
ATOM     10  O   UNL     1       2.426   5.165   0.007  0.00  0.00    -0.267 OA
ATOM     11  N   UNL     1       3.572   3.251  -0.014  0.00  0.00    -0.310 N 
ATOM     12  H   UNL     1       4.519   3.810  -0.019  0.00  0.00    +0.170 HD
ENDROOT
BRANCH   1  18
ATOM     13  C   UNL     1       6.163  -1.337  -0.201  0.00  0.00    +0.009 C 
ATOM     14  C   UNL     1       6.243  -0.439   1.035  0.00  0.00    +0.004 C 
ATOM     15  C   UNL     1       7.437   0.511   0.900  0.00  0.00    +0.009 C 
ATOM     16  C   UNL     1       7.226   1.413  -0.320  0.00  0.00    +0.004 C 
ATOM     17  C   UNL     1       5.911   2.179  -0.161  0.00  0.00    +0.109 C 
ATOM     18  N   UNL     1       4.800   1.226  -0.036  0.00  0.00    -0.316 N 
ATOM     19  C   UNL     1       4.956   0.381   1.155  0.00  0.00    +0.109 C 
ATOM     20  C   UNL     1       8.385   2.405  -0.427  0.00  0.00    +0.009 C 
ENDBRANCH   1  18
TORSDOF 1
