REMARK  Name = ZINC32841634
REMARK  8 active torsions:
REMARK  status: ('A' for Active; 'I' for Inactive)
REMARK    1  A    between atoms: C_1  and  C_2
REMARK    2  A    between atoms: C_2  and  C_4
REMARK    3  A    between atoms: C_2  and  N_14
REMARK    4  A    between atoms: C_7  and  S_10
REMARK    5  A    between atoms: S_10  and  N_13
REMARK    6  A    between atoms: N_14  and  C_15
REMARK    7  A    between atoms: C_16  and  C_18
REMARK    8  A    between atoms: C_18  and  C_19
REMARK                            x       y       z     vdW  Elec       q    Type
REMARK                         _______ _______ _______ _____ _____    ______ ____
ROOT
ATOM      1  N   UNL     1      -2.225   3.695   5.873  0.00  0.00    -0.297 N 
ATOM      2  C   UNL     1      -1.561   4.959   5.546  0.00  0.00    +0.132 C 
ATOM      3  C   UNL     1      -2.007   3.108   7.067  0.00  0.00    +0.220 C 
ATOM      4  O   UNL     1      -2.557   2.062   7.338  0.00  0.00    -0.275 OA
ENDROOT
BRANCH   1   6
ATOM      5  C   UNL     1      -4.209   4.069   4.493  0.00  0.00    +0.033 C 
ATOM      6  C   UNL     1      -3.126   3.069   4.903  0.00  0.00    +0.103 C 
BRANCH   6   7
ATOM      7  C   UNL     1      -2.342   2.650   3.686  0.00  0.00    -0.027 A 
ATOM      8  C   UNL     1      -1.014   2.284   3.812  0.00  0.00    +0.007 A 
ATOM      9  C   UNL     1      -0.295   1.901   2.696  0.00  0.00    +0.029 A 
ATOM     10  C   UNL     1      -0.903   1.881   1.454  0.00  0.00    +0.105 A 
ATOM     11  C   UNL     1      -2.228   2.252   1.328  0.00  0.00    +0.029 A 
ATOM     12  C   UNL     1      -2.949   2.631   2.445  0.00  0.00    +0.007 A 
BRANCH  10  13
ATOM     13  S   UNL     1       0.015   1.392   0.032  0.00  0.00    +0.056 S 
ATOM     14  O   UNL     1       1.384   1.623   0.332  0.00  0.00    -0.153 OA
ATOM     15  O   UNL     1      -0.629   1.982  -1.089  0.00  0.00    -0.153 OA
BRANCH  13  16
ATOM     16  N   UNL     1      -0.166  -0.246  -0.127  0.00  0.00    -0.204 NA
ATOM     17  H   UNL     1       0.395  -0.593  -1.008  0.00  0.00    +0.144 HD
ATOM     18  H   UNL     1      -1.231  -0.488  -0.252  0.00  0.00    +0.144 HD
ENDBRANCH  13  16
ENDBRANCH  10  13
ENDBRANCH   6   7
ENDBRANCH   1   6
BRANCH   3  19
ATOM     19  C   UNL     1      -1.080   3.753   8.065  0.00  0.00    +0.131 C 
BRANCH  19  20
ATOM     20  C   UNL     1      -1.010   2.902   9.308  0.00  0.00    -0.034 A 
ATOM     21  C   UNL     1      -0.054   1.907   9.409  0.00  0.00    +0.053 A 
ATOM     22  C   UNL     1       0.007   1.128  10.552  0.00  0.00    +0.164 A 
ATOM     23  C   UNL     1      -0.887   1.345  11.590  0.00  0.00    +0.180 A 
ATOM     24  C   UNL     1      -1.844   2.342  11.486  0.00  0.00    +0.086 A 
ATOM     25  C   UNL     1      -1.898   3.123  10.344  0.00  0.00    +0.028 A 
ATOM     26 CL   UNL     1      -2.963   2.616  12.784  0.00  0.00    -0.080 Cl
ATOM     27  O   UNL     1      -0.819   0.571  12.712  0.00  0.00    -0.487 OA
ATOM     28  C   UNL     1       0.338   0.757  13.530  0.00  0.00    +0.232 C 
ATOM     29  C   UNL     1       1.500  -0.079  13.018  0.00  0.00    +0.082 C 
ATOM     30  C   UNL     1       1.966   0.361  11.639  0.00  0.00    +0.232 C 
ATOM     31  O   UNL     1       0.944   0.142  10.664  0.00  0.00    -0.488 OA
ENDBRANCH  19  20
ENDBRANCH   3  19
TORSDOF 6
