REMARK  Name = ZINC60167556
REMARK  6 active torsions:
REMARK  status: ('A' for Active; 'I' for Inactive)
REMARK    1  A    between atoms: C_1  and  C_2
REMARK    2  A    between atoms: C_5  and  N_8
REMARK    3  A    between atoms: C_10  and  C_15
REMARK    4  A    between atoms: N_17  and  C_18
REMARK    5  A    between atoms: N_21  and  C_24
REMARK    6  A    between atoms: C_24  and  C_25
REMARK                            x       y       z     vdW  Elec       q    Type
REMARK                         _______ _______ _______ _____ _____    ______ ____
ROOT
ATOM      1  C   UNL     1      -1.849  -6.443   1.141  0.00  0.00    +0.218 C 
ATOM      2  O   UNL     1      -2.546  -5.507   1.474  0.00  0.00    -0.275 OA
ATOM      3  N   UNL     1      -2.404  -7.652   0.923  0.00  0.00    -0.312 N 
ATOM      4  H   UNL     1      -1.847  -8.400   0.657  0.00  0.00    +0.149 HD
ENDROOT
BRANCH   3   5
ATOM      5  C   UNL     1      -3.848  -7.836   1.089  0.00  0.00    +0.069 C 
ATOM      6  C   UNL     1      -4.566  -7.448  -0.206  0.00  0.00    +0.003 C 
ATOM      7  C   UNL     1      -6.064  -7.718  -0.053  0.00  0.00    -0.077 C 
ATOM      8  N   UNL     1      -6.282  -9.144   0.221  0.00  0.00    +0.380 N 
ATOM      9  C   UNL     1      -5.657  -9.507   1.498  0.00  0.00    -0.077 C 
ATOM     10  C   UNL     1      -4.143  -9.306   1.405  0.00  0.00    +0.003 C 
ATOM     11  H   UNL     1      -5.875  -9.694  -0.520  0.00  0.00    -0.082 HD
BRANCH   8  12
ATOM     12  C   UNL     1      -7.725  -9.412   0.290  0.00  0.00    -0.075 C 
BRANCH  12  13
ATOM     13  C   UNL     1      -7.958 -10.918   0.422  0.00  0.00    -0.028 C 
ATOM     14  C   UNL     1      -9.455 -11.191   0.578  0.00  0.00    +0.002 C 
ATOM     15  C   UNL     1      -9.688 -12.698   0.711  0.00  0.00    +0.000 C 
ATOM     16  C   UNL     1      -9.168 -13.406  -0.542  0.00  0.00    +0.000 C 
ATOM     17  C   UNL     1      -7.670 -13.133  -0.698  0.00  0.00    +0.000 C 
ATOM     18  C   UNL     1      -7.438 -11.627  -0.830  0.00  0.00    +0.002 C 
ENDBRANCH  12  13
ENDBRANCH   8  12
ENDBRANCH   3   5
BRANCH   1  21
ATOM     19  N   UNL     1       0.014  -4.104  -0.025  0.00  0.00    -0.271 N 
ATOM     20  C   UNL     1       0.045  -4.794   1.270  0.00  0.00    +0.127 C 
ATOM     21  C   UNL     1      -0.364  -6.253   0.970  0.00  0.00    +0.101 C 
ATOM     22  C   UNL     1       0.046  -6.396  -0.514  0.00  0.00    +0.110 C 
ATOM     23  C   UNL     1       0.013  -4.980  -1.045  0.00  0.00    +0.221 C 
ATOM     24  O   UNL     1      -0.007  -4.678  -2.220  0.00  0.00    -0.275 OA
BRANCH  19  29
ATOM     25  C   UNL     1      -0.114   1.533  -0.648  0.00  0.00    +0.044 C 
ATOM     26  C   UNL     1      -0.080   0.036  -0.482  0.00  0.00    -0.050 A 
ATOM     27  C   UNL     1       0.025  -0.779  -1.595  0.00  0.00    +0.005 A 
ATOM     28  C   UNL     1       0.057  -2.152  -1.446  0.00  0.00    +0.024 A 
ATOM     29  C   UNL     1      -0.017  -2.714  -0.179  0.00  0.00    +0.036 A 
ATOM     30  C   UNL     1      -0.123  -1.893   0.936  0.00  0.00    +0.024 A 
ATOM     31  C   UNL     1      -0.149  -0.520   0.782  0.00  0.00    +0.005 A 
ENDBRANCH  19  29
ENDBRANCH   1  21
TORSDOF 5
