REMARK  Name = ZINC01901616
REMARK  5 active torsions:
REMARK  status: ('A' for Active; 'I' for Inactive)
REMARK    1  A    between atoms: C_1  and  C_2
REMARK    2  A    between atoms: C_11  and  C_12
REMARK    3  A    between atoms: C_11  and  C_16
REMARK    4  A    between atoms: C_12  and  O_14
REMARK    5  A    between atoms: O_14  and  C_15
REMARK                            x       y       z     vdW  Elec       q    Type
REMARK                         _______ _______ _______ _____ _____    ______ ____
ROOT
ATOM      1  C   UNL     1      -0.018   1.503   0.010  0.00  0.00    +0.086 C 
ATOM      2  C   UNL     1       0.002  -0.004   0.002  0.00  0.00    +0.110 A 
ATOM      3  C   UNL     1      -1.165  -0.663   0.004  0.00  0.00    +0.089 A 
ATOM      4  C   UNL     1      -1.191  -2.091  -0.004  0.00  0.00    +0.153 A 
ATOM      5  C   UNL     1       0.058  -2.711  -0.013  0.00  0.00    +0.142 A 
ATOM      6  C   UNL     1       1.241  -1.980  -0.014  0.00  0.00    +0.355 A 
ATOM      7  O   UNL     1       2.318  -2.553  -0.023  0.00  0.00    -0.244 OA
ATOM      8  O   UNL     1       1.188  -0.632  -0.013  0.00  0.00    -0.427 OA
ATOM      9  S   UNL     1      -0.355  -4.438  -0.020  0.00  0.00    -0.040 S 
ATOM     10  C   UNL     1      -2.133  -4.243  -0.011  0.00  0.00    +0.186 C 
ATOM     11  C   UNL     1      -3.114  -5.212  -0.010  0.00  0.00    +0.187 C 
ATOM     12  O   UNL     1      -2.263  -2.899  -0.003  0.00  0.00    -0.447 OA
ENDROOT
BRANCH  11  13
ATOM     13  C   UNL     1      -2.733  -6.670  -0.020  0.00  0.00    +0.428 C 
ATOM     14  F   UNL     1      -1.339  -6.788  -0.028  0.00  0.00    -0.165 F 
ATOM     15  F   UNL     1      -3.247  -7.294   1.122  0.00  0.00    -0.165 F 
ATOM     16  F   UNL     1      -3.259  -7.282  -1.163  0.00  0.00    -0.165 F 
ENDBRANCH  11  13
BRANCH  11  17
ATOM     17  C   UNL     1      -4.462  -4.842  -0.001  0.00  0.00    +0.348 C 
ATOM     18  O   UNL     1      -4.770  -3.663   0.006  0.00  0.00    -0.245 OA
BRANCH  17  19
ATOM     19  O   UNL     1      -5.423  -5.792  -0.001  0.00  0.00    -0.464 OA
ATOM     20  C   UNL     1      -6.779  -5.342   0.008  0.00  0.00    +0.280 C 
ENDBRANCH  17  19
ENDBRANCH  11  17
TORSDOF 3
