REMARK  Name = ZINC10814149
REMARK  9 active torsions:
REMARK  status: ('A' for Active; 'I' for Inactive)
REMARK    1  A    between atoms: C_1  and  N_52
REMARK    2  A    between atoms: C_2  and  N_52
REMARK    3  A    between atoms: C_3  and  C_4
REMARK    4  A    between atoms: C_3  and  N_52
REMARK    5  A    between atoms: C_4  and  N_5
REMARK    6  A    between atoms: C_14  and  S_15
REMARK    7  A    between atoms: S_15  and  C_18
REMARK    8  A    between atoms: C_19  and  C_21
REMARK    9  A    between atoms: C_22  and  C_23
REMARK                            x       y       z     vdW  Elec       q    Type
REMARK                         _______ _______ _______ _____ _____    ______ ____
ROOT
ATOM      1  N   UNL     1       3.645  -0.305  -0.035  0.00  0.00    -0.249 N 
ATOM      2  C   UNL     1       2.333   0.135  -0.019  0.00  0.00    +0.168 A 
ATOM      3  N   UNL     1       1.227  -0.572  -0.013  0.00  0.00    -0.222 NA
ATOM      4  C   UNL     1       0.002  -0.004   0.002  0.00  0.00    +0.105 A 
ATOM      5  C   UNL     1      -0.017   1.410   0.010  0.00  0.00    +0.043 A 
ATOM      6  S   UNL     1       1.714   1.811  -0.005  0.00  0.00    -0.052 S 
ATOM      7  C   UNL     1      -1.182   2.134   0.030  0.00  0.00    +0.017 A 
ATOM      8  C   UNL     1      -2.397   1.474   0.034  0.00  0.00    +0.003 A 
ATOM      9  C   UNL     1      -2.416   0.087   0.026  0.00  0.00    +0.029 A 
ATOM     10  C   UNL     1      -1.258  -0.645   0.011  0.00  0.00    +0.114 A 
ATOM     11  C   UNL     1       3.912  -1.626  -0.045  0.00  0.00    +0.245 C 
ATOM     12  O   UNL     1       3.000  -2.432  -0.041  0.00  0.00    -0.270 OA
ENDROOT
BRANCH  10  13
ATOM     13  S   UNL     1      -1.340  -2.406   0.002  0.00  0.00    -0.004 S 
ATOM     14  O   UNL     1      -0.482  -2.814   1.059  0.00  0.00    -0.170 OA
ATOM     15  O   UNL     1      -2.728  -2.704   0.039  0.00  0.00    -0.170 OA
ATOM     16  C   UNL     1      -0.637  -2.897  -1.597  0.00  0.00    +0.200 C 
ENDBRANCH  10  13
BRANCH  11  17
ATOM     17  C   UNL     1       5.300  -2.092  -0.062  0.00  0.00    +0.068 C 
ATOM     18  C   UNL     1       5.567  -3.413  -0.072  0.00  0.00    +0.013 C 
BRANCH  18  19
ATOM     19  C   UNL     1       6.963  -3.882  -0.089  0.00  0.00    -0.025 A 
ATOM     20  C   UNL     1       8.013  -2.959  -0.100  0.00  0.00    +0.008 A 
ATOM     21  C   UNL     1       9.318  -3.406  -0.110  0.00  0.00    +0.001 A 
ATOM     22  C   UNL     1       9.588  -4.763  -0.121  0.00  0.00    +0.000 A 
ATOM     23  C   UNL     1       8.554  -5.682  -0.116  0.00  0.00    +0.001 A 
ATOM     24  C   UNL     1       7.244  -5.252  -0.100  0.00  0.00    +0.008 A 
ENDBRANCH  18  19
ENDBRANCH  11  17
BRANCH   1  25
ATOM     25  C   UNL     1       4.743   0.665  -0.040  0.00  0.00    +0.097 C 
BRANCH  25  26
ATOM     26  C   UNL     1       5.139   0.994   1.400  0.00  0.00    -0.060 C 
BRANCH  26  29
ATOM     27  C   UNL     1       6.491   2.485   2.747  0.00  0.00    -0.097 C 
ATOM     28  C   UNL     1       7.459   1.378   0.823  0.00  0.00    -0.097 C 
ATOM     29  N   UNL     1       6.233   1.988   1.379  0.00  0.00    +0.377 N 
ATOM     30  H   UNL     1       5.954   2.777   0.784  0.00  0.00    -0.083 HD
ENDBRANCH  26  29
ENDBRANCH  25  26
ENDBRANCH   1  25
TORSDOF 6
