REMARK  Name = ZINC40386698
REMARK  5 active torsions:
REMARK  status: ('A' for Active; 'I' for Inactive)
REMARK    1  A    between atoms: C_4  and  N_22
REMARK    2  A    between atoms: C_5  and  C_7
REMARK    3  A    between atoms: N_9  and  C_14
REMARK    4  A    between atoms: C_23  and  C_25
REMARK    5  A    between atoms: C_29  and  N_31
REMARK                            x       y       z     vdW  Elec       q    Type
REMARK                         _______ _______ _______ _____ _____    ______ ____
ROOT
ATOM      1  C   UNL     1      -0.017   1.398  -0.032  0.00  0.00    +0.000 A 
ATOM      2  C   UNL     1       1.168   2.109   0.022  0.00  0.00    +0.002 A 
ATOM      3  C   UNL     1       2.374   1.439   0.084  0.00  0.00    +0.023 A 
ATOM      4  C   UNL     1       2.396   0.050   0.092  0.00  0.00    +0.039 A 
ATOM      5  C   UNL     1       1.204  -0.660   0.037  0.00  0.00    +0.005 A 
ATOM      6  C   UNL     1       0.001   0.015  -0.025  0.00  0.00    +0.008 A 
ENDROOT
BRANCH   5   7
ATOM      7  C   UNL     1       1.223  -2.167   0.046  0.00  0.00    +0.172 C 
ATOM      8  N   UNL     1       0.803  -2.695   1.358  0.00  0.00    -0.251 N 
ATOM      9  C   UNL     1      -0.092  -3.674   1.406  0.00  0.00    +0.231 C 
ATOM     10  O   UNL     1      -0.459  -4.138   2.465  0.00  0.00    -0.274 OA
ATOM     11  C   UNL     1      -0.640  -4.192   0.086  0.00  0.00    +0.167 C 
ATOM     12  S   UNL     1      -0.087  -2.853  -1.057  0.00  0.00    -0.124 S 
BRANCH   8  13
ATOM     13  C   UNL     1       1.343  -2.170   2.539  0.00  0.00    +0.073 A 
ATOM     14  C   UNL     1       0.669  -1.171   3.227  0.00  0.00    +0.029 A 
ATOM     15  C   UNL     1       1.203  -0.654   4.392  0.00  0.00    +0.040 A 
ATOM     16  C   UNL     1       2.410  -1.131   4.874  0.00  0.00    +0.126 A 
ATOM     17  C   UNL     1       3.086  -2.127   4.190  0.00  0.00    +0.078 A 
ATOM     18  C   UNL     1       2.553  -2.652   3.026  0.00  0.00    +0.147 A 
ATOM     19  F   UNL     1       3.209  -3.628   2.361  0.00  0.00    -0.203 F 
ATOM     20  F   UNL     1       2.930  -0.624   6.013  0.00  0.00    -0.205 F 
ENDBRANCH   8  13
ENDBRANCH   5   7
BRANCH   4  21
ATOM     21  N   UNL     1       3.615  -0.631   0.154  0.00  0.00    -0.281 N 
ATOM     22  C   UNL     1       4.709  -0.110  -0.436  0.00  0.00    +0.248 C 
ATOM     23  O   UNL     1       4.615   0.896  -1.111  0.00  0.00    -0.270 OA
ATOM     24  H   UNL     1       3.674  -1.479   0.622  0.00  0.00    +0.155 HD
BRANCH  22  25
ATOM     25  C   UNL     1       6.024  -0.762  -0.263  0.00  0.00    +0.039 A 
ATOM     26  C   UNL     1       6.136  -1.922   0.507  0.00  0.00    +0.013 A 
ATOM     27  C   UNL     1       7.366  -2.526   0.664  0.00  0.00    +0.003 A 
ATOM     28  C   UNL     1       8.488  -1.985   0.062  0.00  0.00    +0.033 A 
ATOM     29  C   UNL     1       8.385  -0.836  -0.702  0.00  0.00    +0.127 A 
ATOM     30  C   UNL     1       7.159  -0.225  -0.873  0.00  0.00    +0.045 A 
BRANCH  29  31
ATOM     31  N   UNL     1       9.590  -0.265  -1.343  0.00  0.00    +0.056 N 
ATOM     32  O   UNL     1      10.664  -0.801  -1.198  0.00  0.00    -0.126 OA
ATOM     33  O   UNL     1       9.501   0.739  -2.011  0.00  0.00    -0.126 OA
ENDBRANCH  29  31
ENDBRANCH  22  25
ENDBRANCH   4  21
TORSDOF 5
