REMARK  Name = ZINC54758693
REMARK  3 active torsions:
REMARK  status: ('A' for Active; 'I' for Inactive)
REMARK    1  A    between atoms: C_1  and  C_2
REMARK    2  A    between atoms: C_4  and  C_14
REMARK    3  A    between atoms: C_22  and  N_25
REMARK                            x       y       z     vdW  Elec       q    Type
REMARK                         _______ _______ _______ _____ _____    ______ ____
ROOT
ATOM      1  C   UNL     1      -2.059  -0.128   1.457  0.00  0.00    +0.264 C 
ATOM      2  O   UNL     1      -2.258  -0.940   2.336  0.00  0.00    -0.271 OA
ATOM      3  N   UNL     1      -2.398   1.163   1.643  0.00  0.00    -0.268 N 
ATOM      4  C   UNL     1      -2.326   2.207   0.617  0.00  0.00    +0.118 C 
ATOM      5  C   UNL     1      -2.813   3.489   1.311  0.00  0.00    +0.056 C 
ATOM      6  C   UNL     1      -3.134   3.058   2.725  0.00  0.00    -0.024 A 
ATOM      7  C   UNL     1      -2.876   1.702   2.842  0.00  0.00    +0.042 A 
ATOM      8  C   UNL     1      -3.104   1.071   4.066  0.00  0.00    +0.056 A 
ATOM      9  C   UNL     1      -3.585   1.791   5.140  0.00  0.00    +0.128 A 
ATOM     10  C   UNL     1      -3.844   3.143   5.011  0.00  0.00    +0.033 A 
ATOM     11  C   UNL     1      -3.611   3.776   3.804  0.00  0.00    +0.008 A 
ENDROOT
BRANCH   1  14
ATOM     12  C   UNL     1       0.477   1.012   0.542  0.00  0.00    +0.056 C 
ATOM     13  C   UNL     1       0.093  -0.440   0.251  0.00  0.00    +0.220 C 
ATOM     14  C   UNL     1      -1.433  -0.563   0.157  0.00  0.00    +0.299 C 
ATOM     15  O   UNL     1      -1.758  -1.933  -0.102  0.00  0.00    -0.472 OA
ATOM     16  C   UNL     1      -1.120  -2.866   0.656  0.00  0.00    +0.163 A 
ATOM     17  C   UNL     1      -1.630  -4.154   0.723  0.00  0.00    +0.049 A 
ATOM     18  C   UNL     1      -0.991  -5.114   1.486  0.00  0.00    +0.004 A 
ATOM     19  C   UNL     1       0.159  -4.792   2.183  0.00  0.00    +0.004 A 
ATOM     20  C   UNL     1       0.672  -3.511   2.122  0.00  0.00    +0.049 A 
ATOM     21  C   UNL     1       0.034  -2.543   1.360  0.00  0.00    +0.163 A 
ATOM     22  O   UNL     1       0.547  -1.282   1.316  0.00  0.00    -0.481 OA
ENDBRANCH   1  14
BRANCH   9  23
ATOM     23  N   UNL     1      -3.824   1.114   6.434  0.00  0.00    +0.056 N 
ATOM     24  O   UNL     1      -3.599  -0.069   6.548  0.00  0.00    -0.126 OA
ATOM     25  O   UNL     1      -4.246   1.743   7.376  0.00  0.00    -0.126 OA
ENDBRANCH   9  23
TORSDOF 2
