REMARK  Name = ZINC63882973
REMARK  2 active torsions:
REMARK  status: ('A' for Active; 'I' for Inactive)
REMARK    1  A    between atoms: C_2  and  C_11
REMARK    2  A    between atoms: C_19  and  C_23
REMARK                            x       y       z     vdW  Elec       q    Type
REMARK                         _______ _______ _______ _____ _____    ______ ____
ROOT
ATOM      1  C   UNL     1       1.715   3.203   0.003  0.00  0.00    +0.251 C 
ATOM      2  O   UNL     1       1.345   2.047  -0.077  0.00  0.00    -0.270 OA
ATOM      3  N   UNL     1       0.809   4.194   0.118  0.00  0.00    -0.293 N 
ATOM      4  C   UNL     1      -0.626   3.899   0.249  0.00  0.00    +0.114 C 
ATOM      5  C   UNL     1      -1.122   4.386   1.615  0.00  0.00    +0.076 C 
ATOM      6  C   UNL     1      -0.593   5.781   1.862  0.00  0.00    +0.067 C 
ATOM      7  C   UNL     1       0.443   6.303   1.196  0.00  0.00    -0.003 C 
ATOM      8  C   UNL     1       1.227   5.610   0.124  0.00  0.00    +0.143 C 
ATOM      9  C   UNL     1       0.618   7.686   1.766  0.00  0.00    +0.160 C 
ATOM     10  N   UNL     1      -0.458   7.756   2.774  0.00  0.00    -0.179 NA
ATOM     11  N   UNL     1      -1.063   6.680   2.756  0.00  0.00    -0.158 NA
ENDROOT
BRANCH   1  13
ATOM     12  C   UNL     1       3.765   4.538  -0.697  0.00  0.00    +0.209 A 
ATOM     13  C   UNL     1       3.153   3.519  -0.028  0.00  0.00    +0.085 A 
ATOM     14  C   UNL     1       4.235   2.808   0.655  0.00  0.00    +0.070 A 
ATOM     15  C   UNL     1       5.395   3.467   0.334  0.00  0.00    +0.116 A 
ATOM     16  O   UNL     1       5.086   4.482  -0.467  0.00  0.00    -0.466 OA
ATOM     17  C   UNL     1       6.746   3.040   0.851  0.00  0.00    +0.075 C 
ATOM     18  C   UNL     1       6.560   2.179   2.104  0.00  0.00    +0.016 C 
ATOM     19  C   UNL     1       5.584   1.030   1.831  0.00  0.00    +0.080 C 
ATOM     20  C   UNL     1       4.218   1.628   1.525  0.00  0.00    +0.167 C 
ATOM     21  O   UNL     1       3.189   1.163   1.970  0.00  0.00    -0.292 OA
ENDBRANCH   1  13
BRANCH   9  22
ATOM     22  C   UNL     1       1.993   7.833   2.421  0.00  0.00    +0.020 C 
ATOM     23  C   UNL     1       2.053   7.285   3.857  0.00  0.00    +0.006 C 
ATOM     24  C   UNL     1       2.921   8.506   4.203  0.00  0.00    +0.001 C 
ATOM     25  C   UNL     1       2.241   9.225   3.026  0.00  0.00    +0.006 C 
ENDBRANCH   9  22
TORSDOF 2
