REMARK  Name = ZINC15046584
REMARK  10 active torsions:
REMARK  status: ('A' for Active; 'I' for Inactive)
REMARK    1  A    between atoms: C_1  and  C_2
REMARK    2  A    between atoms: C_2  and  C_4
REMARK    3  A    between atoms: C_2  and  N_17
REMARK    4  A    between atoms: N_6  and  C_7
REMARK    5  A    between atoms: C_9  and  N_14
REMARK    6  A    between atoms: N_17  and  C_18
REMARK    7  A    between atoms: N_17  and  C_19
REMARK    8  A    between atoms: C_19  and  C_20
REMARK    9  A    between atoms: C_20  and  O_21
REMARK   10  A    between atoms: O_21  and  C_22
REMARK                            x       y       z     vdW  Elec       q    Type
REMARK                         _______ _______ _______ _____ _____    ______ ____
ROOT
ATOM      1  C   UNL     1      -1.126   1.361  -0.625  0.00  0.00    -0.004 C 
ATOM      2  C   UNL     1      -0.427   0.044  -0.283  0.00  0.00    +0.016 C 
ENDROOT
BRANCH   2   3
ATOM      3  C   UNL     1       0.230  -0.512  -1.521  0.00  0.00    +0.203 C 
ATOM      4  O   UNL     1      -0.323  -1.381  -2.163  0.00  0.00    -0.277 OA
ATOM      5  N   UNL     1       1.431  -0.045  -1.914  0.00  0.00    -0.286 N 
ATOM      6  H   UNL     1       1.909   0.592  -1.360  0.00  0.00    +0.155 HD
BRANCH   5   7
ATOM      7  C   UNL     1       1.990  -0.480  -3.121  0.00  0.00    +0.054 A 
ATOM      8  C   UNL     1       1.183  -1.050  -4.096  0.00  0.00    +0.057 A 
ATOM      9  C   UNL     1       1.737  -1.477  -5.287  0.00  0.00    +0.128 A 
ATOM     10  C   UNL     1       3.095  -1.338  -5.509  0.00  0.00    +0.034 A 
ATOM     11  C   UNL     1       3.902  -0.770  -4.541  0.00  0.00    +0.024 A 
ATOM     12  C   UNL     1       3.353  -0.336  -3.349  0.00  0.00    +0.062 A 
ATOM     13 CL   UNL     1       4.366   0.383  -2.137  0.00  0.00    -0.082 Cl
BRANCH   9  14
ATOM     14  N   UNL     1       0.877  -2.086  -6.326  0.00  0.00    +0.056 N 
ATOM     15  O   UNL     1      -0.310  -2.209  -6.133  0.00  0.00    -0.126 OA
ATOM     16  O   UNL     1       1.361  -2.460  -7.369  0.00  0.00    -0.126 OA
ENDBRANCH   9  14
ENDBRANCH   5   7
ENDBRANCH   2   3
BRANCH   2  17
ATOM     17  N   UNL     1      -1.415  -0.919   0.221  0.00  0.00    +0.387 N 
ATOM     18  C   UNL     1      -0.730  -2.149   0.642  0.00  0.00    -0.095 C 
ATOM     19  H   UNL     1      -2.077  -1.136  -0.509  0.00  0.00    -0.081 HD
BRANCH  17  20
ATOM     20  C   UNL     1      -2.125  -0.337   1.368  0.00  0.00    -0.037 C 
BRANCH  20  21
ATOM     21  C   UNL     1      -3.232  -1.291   1.821  0.00  0.00    +0.211 C 
BRANCH  21  22
ATOM     22  O   UNL     1      -2.647  -2.471   2.375  0.00  0.00    -0.491 OA
BRANCH  22  23
ATOM     23  C   UNL     1      -3.499  -3.428   2.828  0.00  0.00    +0.155 A 
ATOM     24  C   UNL     1      -4.870  -3.238   2.736  0.00  0.00    +0.048 A 
ATOM     25  C   UNL     1      -5.735  -4.212   3.197  0.00  0.00    +0.004 A 
ATOM     26  C   UNL     1      -5.235  -5.376   3.751  0.00  0.00    +0.003 A 
ATOM     27  C   UNL     1      -3.870  -5.570   3.845  0.00  0.00    +0.042 A 
ATOM     28  C   UNL     1      -2.999  -4.601   3.379  0.00  0.00    +0.165 A 
ATOM     29  F   UNL     1      -1.665  -4.793   3.465  0.00  0.00    -0.202 F 
ENDBRANCH  22  23
ENDBRANCH  21  22
ENDBRANCH  20  21
ENDBRANCH  17  20
ENDBRANCH   2  17
TORSDOF 8
