REMARK  Name = ZINC13793760
REMARK  7 active torsions:
REMARK  status: ('A' for Active; 'I' for Inactive)
REMARK    1  A    between atoms: C_1  and  C_2
REMARK    2  A    between atoms: C_7  and  C_8
REMARK    3  A    between atoms: N_12  and  C_13
REMARK    4  A    between atoms: C_13  and  C_14
REMARK    5  A    between atoms: C_20  and  C_22
REMARK    6  A    between atoms: N_28  and  S_29
REMARK    7  A    between atoms: S_29  and  C_32
REMARK                            x       y       z     vdW  Elec       q    Type
REMARK                         _______ _______ _______ _____ _____    ______ ____
ROOT
ATOM      1  C   UNL     1       5.652  -4.691   1.055  0.00  0.00    +0.044 C 
ATOM      2  C   UNL     1       5.117  -3.322   0.720  0.00  0.00    -0.045 A 
ATOM      3  C   UNL     1       3.783  -3.064   0.895  0.00  0.00    +0.032 A 
ATOM      4  C   UNL     1       3.247  -1.791   0.591  0.00  0.00    +0.081 A 
ATOM      5  C   UNL     1       4.162  -0.829   0.105  0.00  0.00    +0.041 A 
ATOM      6  C   UNL     1       5.497  -1.097  -0.067  0.00  0.00    +0.021 A 
ATOM      7  C   UNL     1       5.987  -2.353   0.241  0.00  0.00    -0.046 A 
ATOM      8  C   UNL     1       7.449  -2.666   0.058  0.00  0.00    +0.044 C 
ATOM      9  S   UNL     1       3.121   0.589  -0.148  0.00  0.00    -0.052 S 
ATOM     10  C   UNL     1       1.589  -0.159   0.389  0.00  0.00    +0.168 A 
ATOM     11  N   UNL     1       1.968  -1.374   0.710  0.00  0.00    -0.224 NA
ATOM     12  N   UNL     1       0.325   0.402   0.454  0.00  0.00    -0.247 N 
ATOM     13  C   UNL     1       0.136   1.683   0.081  0.00  0.00    +0.240 C 
ATOM     14  O   UNL     1       1.087   2.377  -0.209  0.00  0.00    -0.273 OA
ENDROOT
BRANCH  13  15
ATOM     15  C   UNL     1      -1.258   2.252   0.018  0.00  0.00    +0.166 C 
ATOM     16  C   UNL     1      -1.437   3.299   1.122  0.00  0.00    +0.030 C 
ATOM     17  C   UNL     1      -2.803   3.971   0.966  0.00  0.00    +0.003 C 
ATOM     18  C   UNL     1      -2.872   4.681  -0.387  0.00  0.00    +0.017 C 
ATOM     19  C   UNL     1      -2.710   3.651  -1.509  0.00  0.00    +0.110 C 
ATOM     20  N   UNL     1      -1.467   2.899  -1.285  0.00  0.00    -0.170 NA
BRANCH  20  21
ATOM     21  S   UNL     1      -0.324   2.784  -2.478  0.00  0.00    +0.030 S 
ATOM     22  O   UNL     1       0.322   1.541  -2.242  0.00  0.00    -0.158 OA
ATOM     23  O   UNL     1      -1.036   3.013  -3.686  0.00  0.00    -0.158 OA
ATOM     24  C   UNL     1       0.822   4.154  -2.159  0.00  0.00    +0.215 C 
ENDBRANCH  20  21
ENDBRANCH  13  15
BRANCH  12  25
ATOM     25  C   UNL     1      -0.808  -0.397   0.930  0.00  0.00    +0.147 C 
BRANCH  25  26
ATOM     26  C   UNL     1      -1.378  -1.214  -0.231  0.00  0.00    +0.136 C 
ATOM     27  C   UNL     1      -2.570  -2.059   0.259  0.00  0.00    +0.035 C 
ATOM     28  C   UNL     1      -3.752  -1.596  -0.627  0.00  0.00    +0.031 C 
ATOM     29  C   UNL     1      -3.021  -0.974  -1.845  0.00  0.00    +0.160 C 
ATOM     30  O   UNL     1      -1.870  -0.333  -1.255  0.00  0.00    -0.375 OA
ENDBRANCH  25  26
ENDBRANCH  12  25
TORSDOF 4
