REMARK  Name = ZINC42336406
REMARK  5 active torsions:
REMARK  status: ('A' for Active; 'I' for Inactive)
REMARK    1  A    between atoms: C_1  and  C_2
REMARK    2  A    between atoms: C_2  and  C_3
REMARK    3  A    between atoms: C_7  and  C_21
REMARK    4  A    between atoms: C_11  and  C_13
REMARK    5  A    between atoms: C_18  and  O_19
REMARK                            x       y       z     vdW  Elec       q    Type
REMARK                         _______ _______ _______ _____ _____    ______ ____
ROOT
ATOM      1  C   UNL     1      -1.248  -0.320   0.070  0.00  0.00    +0.102 C 
ATOM      2  C   UNL     1      -0.948  -1.823   0.086  0.00  0.00    +0.182 C 
ATOM      3  O   UNL     1      -0.261  -2.153   1.295  0.00  0.00    -0.373 OA
ATOM      4  C   UNL     1      -1.018  -1.911   2.483  0.00  0.00    +0.133 C 
ATOM      5  C   UNL     1      -1.322  -0.412   2.591  0.00  0.00    +0.139 C 
ATOM      6  N   UNL     1      -1.931   0.030   1.326  0.00  0.00    -0.290 N 
ATOM      7  C   UNL     1      -3.081   0.734   1.317  0.00  0.00    +0.251 C 
ATOM      8  O   UNL     1      -3.531   1.151   0.268  0.00  0.00    -0.270 OA
ATOM      9  C   UNL     1      -0.210  -2.358   3.704  0.00  0.00    +0.039 C 
ENDROOT
BRANCH   7  10
ATOM     10  C   UNL     1      -3.793   0.999   2.582  0.00  0.00    +0.078 A 
ATOM     11  C   UNL     1      -3.115   1.565   3.664  0.00  0.00    +0.018 A 
ATOM     12  C   UNL     1      -3.785   1.810   4.842  0.00  0.00    +0.021 A 
ATOM     13  C   UNL     1      -5.131   1.496   4.960  0.00  0.00    +0.044 A 
ATOM     14  C   UNL     1      -5.813   0.936   3.896  0.00  0.00    +0.066 A 
ATOM     15  C   UNL     1      -5.155   0.688   2.701  0.00  0.00    +0.130 A 
ATOM     16 CL   UNL     1      -5.964   1.809   6.450  0.00  0.00    -0.083 Cl
BRANCH  15  17
ATOM     17  O   UNL     1      -5.824   0.143   1.655  0.00  0.00    -0.506 OA
ATOM     18  H   UNL     1      -5.808  -0.824   1.639  0.00  0.00    +0.292 HD
ENDBRANCH  15  17
ENDBRANCH   7  10
BRANCH   1  20
ATOM     19  C   UNL     1      -0.252   1.959  -0.169  0.00  0.00    +0.006 C 
ATOM     20  C   UNL     1       0.059   0.466  -0.041  0.00  0.00    +0.021 C 
ENDBRANCH   1  20
TORSDOF 3
