REMARK  Name = ZINC66379413
REMARK  8 active torsions:
REMARK  status: ('A' for Active; 'I' for Inactive)
REMARK    1  A    between atoms: C_1  and  C_2
REMARK    2  A    between atoms: C_4  and  C_26
REMARK    3  A    between atoms: C_9  and  N_14
REMARK    4  A    between atoms: C_11  and  C_13
REMARK    5  A    between atoms: C_15  and  C_17
REMARK    6  A    between atoms: C_17  and  N_18
REMARK    7  A    between atoms: C_19  and  C_25
REMARK    8  A    between atoms: C_21  and  C_23
REMARK                            x       y       z     vdW  Elec       q    Type
REMARK                         _______ _______ _______ _____ _____    ______ ____
ROOT
ATOM      1  C   UNL     1      -0.018   1.503   0.010  0.00  0.00    +0.066 C 
ATOM      2  C   UNL     1       0.002  -0.004   0.002  0.00  0.00    +0.044 A 
ATOM      3  C   UNL     1       0.006  -0.699  -1.197  0.00  0.00    +0.046 A 
ATOM      4  C   UNL     1       0.025  -2.085  -1.159  0.00  0.00    +0.044 A 
ATOM      5  N   UNL     1       0.039  -2.697   0.013  0.00  0.00    -0.216 NA
ATOM      6  C   UNL     1       0.035  -2.003   1.140  0.00  0.00    +0.253 A 
ATOM      7  N   UNL     1       0.022  -0.680   1.139  0.00  0.00    -0.216 NA
ATOM      8  N   UNL     1       0.049  -2.682   2.357  0.00  0.00    -0.183 N 
ATOM      9  C   UNL     1       0.042  -2.113   3.595  0.00  0.00    +0.132 A 
ATOM     10  C   UNL     1       0.061  -3.121   4.508  0.00  0.00    +0.068 A 
ATOM     11  C   UNL     1       0.081  -4.332   3.809  0.00  0.00    +0.062 A 
ATOM     12  N   UNL     1       0.069  -4.073   2.527  0.00  0.00    -0.167 NA
ATOM     13  C   UNL     1       0.107  -5.706   4.428  0.00  0.00    +0.067 C 
ATOM     14  C   UNL     1       0.029  -2.883  -2.437  0.00  0.00    +0.066 C 
ENDROOT
BRANCH   9  15
ATOM     15  N   UNL     1       0.019  -0.747   3.874  0.00  0.00    -0.269 N 
ATOM     16  C   UNL     1       0.014  -0.322   5.153  0.00  0.00    +0.240 C 
ATOM     17  O   UNL     1       0.029  -1.126   6.061  0.00  0.00    -0.273 OA
ATOM     18  H   UNL     1       0.007  -0.104   3.149  0.00  0.00    +0.156 HD
BRANCH  16  19
ATOM     19  C   UNL     1      -0.010   1.155   5.456  0.00  0.00    +0.239 C 
BRANCH  19  20
ATOM     20  N   UNL     1      -0.011   1.356   6.907  0.00  0.00    -0.258 N 
ATOM     21  C   UNL     1      -1.103   1.441   7.696  0.00  0.00    +0.055 A 
ATOM     22  C   UNL     1      -0.679   1.627   8.968  0.00  0.00    +0.084 A 
ATOM     23  C   UNL     1       0.720   1.655   8.955  0.00  0.00    +0.078 A 
ATOM     24  N   UNL     1       1.121   1.488   7.721  0.00  0.00    -0.174 NA
ATOM     25  C   UNL     1       1.611   1.841  10.156  0.00  0.00    +0.069 C 
ATOM     26 CL   UNL     1      -1.691   1.799  10.368  0.00  0.00    -0.080 Cl
ATOM     27  C   UNL     1      -2.537   1.348   7.242  0.00  0.00    +0.067 C 
ENDBRANCH  19  20
ENDBRANCH  16  19
ENDBRANCH   9  15
TORSDOF 3
