REMARK  Name = ZINC04686122
REMARK  9 active torsions:
REMARK  status: ('A' for Active; 'I' for Inactive)
REMARK    1  A    between atoms: C_1  and  C_2
REMARK    2  A    between atoms: C_7  and  N_12
REMARK    3  A    between atoms: C_9  and  C_11
REMARK    4  A    between atoms: C_13  and  C_15
REMARK    5  A    between atoms: C_15  and  N_16
REMARK    6  A    between atoms: C_19  and  C_27
REMARK    7  A    between atoms: C_27  and  C_28
REMARK    8  A    between atoms: C_27  and  C_29
REMARK    9  A    between atoms: C_27  and  C_30
REMARK                            x       y       z     vdW  Elec       q    Type
REMARK                         _______ _______ _______ _____ _____    ______ ____
ROOT
ATOM      1  N   UNL     1      -3.798  -2.024   2.354  0.00  0.00    -0.257 N 
ATOM      2  C   UNL     1      -3.647  -3.152   1.534  0.00  0.00    +0.079 A 
ATOM      3  C   UNL     1      -3.157  -3.027   0.243  0.00  0.00    +0.031 A 
ATOM      4  C   UNL     1      -3.011  -4.152  -0.548  0.00  0.00    -0.040 A 
ATOM      5  C   UNL     1      -3.348  -5.398  -0.054  0.00  0.00    +0.008 A 
ATOM      6  C   UNL     1      -3.832  -5.529   1.235  0.00  0.00    +0.048 A 
ATOM      7  C   UNL     1      -3.981  -4.409   2.033  0.00  0.00    +0.143 A 
ATOM      8  O   UNL     1      -4.456  -4.519   3.303  0.00  0.00    -0.481 OA
ATOM      9  C   UNL     1      -3.946  -3.590   4.263  0.00  0.00    +0.325 C 
ATOM     10  C   UNL     1      -3.967  -2.199   3.683  0.00  0.00    +0.258 C 
ATOM     11  O   UNL     1      -4.135  -1.240   4.406  0.00  0.00    -0.271 OA
ENDROOT
BRANCH   4  12
ATOM     12  C   UNL     1      -2.485  -4.018  -1.954  0.00  0.00    -0.013 C 
ATOM     13  C   UNL     1      -2.422  -5.399  -2.608  0.00  0.00    +0.015 C 
ATOM     14  C   UNL     1      -3.415  -3.112  -2.763  0.00  0.00    +0.015 C 
ATOM     15  C   UNL     1      -1.083  -3.406  -1.917  0.00  0.00    +0.015 C 
ENDBRANCH   4  12
BRANCH   1  16
ATOM     16  C   UNL     1      -3.779  -0.678   1.777  0.00  0.00    +0.209 C 
BRANCH  16  18
ATOM     17  N   UNL     1      -2.103   1.072   1.277  0.00  0.00    -0.311 N 
ATOM     18  C   UNL     1      -2.365  -0.156   1.766  0.00  0.00    +0.231 C 
ATOM     19  O   UNL     1      -1.462  -0.842   2.198  0.00  0.00    -0.274 OA
ATOM     20  H   UNL     1      -2.825   1.621   0.932  0.00  0.00    +0.149 HD
BRANCH  17  26
ATOM     21  C   UNL     1      -1.510   5.146   0.044  0.00  0.00    +0.008 C 
ATOM     22  C   UNL     1      -1.490   3.616   0.036  0.00  0.00    -0.009 C 
ATOM     23  C   UNL     1      -0.773   3.123  -1.223  0.00  0.00    +0.003 C 
ATOM     24  C   UNL     1      -0.753   1.593  -1.232  0.00  0.00    +0.002 C 
ATOM     25  C   UNL     1      -0.013   1.086   0.008  0.00  0.00    +0.022 C 
ATOM     26  C   UNL     1      -0.729   1.579   1.267  0.00  0.00    +0.076 C 
ATOM     27  C   UNL     1      -0.750   3.109   1.275  0.00  0.00    +0.009 C 
ATOM     28  C   UNL     1      -1.466   3.603   2.534  0.00  0.00    +0.009 C 
ENDBRANCH  17  26
ENDBRANCH  16  18
ENDBRANCH   1  16
TORSDOF 4
