REMARK  Name = ZINC51279875
REMARK  6 active torsions:
REMARK  status: ('A' for Active; 'I' for Inactive)
REMARK    1  A    between atoms: C_1  and  C_2
REMARK    2  A    between atoms: C_2  and  C_4
REMARK    3  A    between atoms: C_2  and  N_10
REMARK    4  A    between atoms: C_13  and  N_16
REMARK    5  A    between atoms: C_23  and  C_26
REMARK    6  A    between atoms: N_28  and  C_29
REMARK                            x       y       z     vdW  Elec       q    Type
REMARK                         _______ _______ _______ _____ _____    ______ ____
ROOT
ATOM      1  N   UNL     1       0.164  -3.516  -3.075  0.00  0.00    -0.298 N 
ATOM      2  C   UNL     1       0.516  -4.252  -4.147  0.00  0.00    +0.302 C 
ATOM      3  O   UNL     1       1.414  -3.874  -4.876  0.00  0.00    -0.253 OA
ATOM      4  N   UNL     1      -0.126  -5.407  -4.412  0.00  0.00    -0.285 N 
ATOM      5  C   UNL     1      -1.289  -5.817  -3.614  0.00  0.00    +0.109 C 
ATOM      6  C   UNL     1      -2.458  -6.107  -4.560  0.00  0.00    +0.020 C 
ATOM      7  C   UNL     1      -2.021  -7.135  -5.606  0.00  0.00    +0.016 C 
ATOM      8  C   UNL     1      -0.863  -6.565  -6.430  0.00  0.00    +0.092 C 
ATOM      9  C   UNL     1       0.321  -6.277  -5.509  0.00  0.00    +0.122 C 
ATOM     10  H   UNL     1      -0.598  -3.779  -2.535  0.00  0.00    +0.150 HD
ENDROOT
BRANCH   1  14
ATOM     11  N   UNL     1       0.697  -0.483  -1.200  0.00  0.00    +0.385 N 
ATOM     12  C   UNL     1      -0.077  -0.108  -2.412  0.00  0.00    -0.076 C 
ATOM     13  C   UNL     1       0.400  -1.095  -3.499  0.00  0.00    +0.002 C 
ATOM     14  C   UNL     1       0.932  -2.319  -2.724  0.00  0.00    +0.056 C 
ATOM     15  C   UNL     1       0.731  -1.968  -1.234  0.00  0.00    -0.056 C 
ATOM     16  H   UNL     1       1.632  -0.107  -1.246  0.00  0.00    -0.081 HD
BRANCH  11  18
ATOM     17  C   UNL     1      -0.009   1.517   0.023  0.00  0.00    -0.008 C 
ATOM     18  C   UNL     1       0.013  -0.012   0.012  0.00  0.00    -0.041 C 
BRANCH  18  19
ATOM     19  C   UNL     1       0.747  -0.513   1.229  0.00  0.00    -0.061 A 
ATOM     20  C   UNL     1       2.129  -0.522   1.248  0.00  0.00    +0.002 A 
ATOM     21  C   UNL     1       2.802  -0.981   2.364  0.00  0.00    +0.000 A 
ATOM     22  C   UNL     1       2.093  -1.431   3.462  0.00  0.00    +0.000 A 
ATOM     23  C   UNL     1       0.711  -1.421   3.444  0.00  0.00    +0.000 A 
ATOM     24  C   UNL     1       0.038  -0.958   2.329  0.00  0.00    +0.002 A 
ENDBRANCH  18  19
ENDBRANCH  11  18
ENDBRANCH   1  14
BRANCH   8  25
ATOM     25  C   UNL     1      -0.455  -7.564  -7.481  0.00  0.00    +0.218 C 
ATOM     26  O   UNL     1      -1.032  -8.627  -7.565  0.00  0.00    -0.275 OA
ATOM     27  N   UNL     1       0.552  -7.276  -8.330  0.00  0.00    -0.312 N 
ATOM     28  H   UNL     1       1.014  -6.425  -8.263  0.00  0.00    +0.149 HD
BRANCH  27  29
ATOM     29  C   UNL     1       0.950  -8.247  -9.352  0.00  0.00    +0.073 C 
ATOM     30  C   UNL     1       2.447  -8.476  -9.565  0.00  0.00    +0.024 C 
ATOM     31  C   UNL     1       1.635  -7.709 -10.610  0.00  0.00    +0.024 C 
ENDBRANCH  27  29
ENDBRANCH   8  25
TORSDOF 5
