REMARK  Name = ZINC42740634
REMARK  3 active torsions:
REMARK  status: ('A' for Active; 'I' for Inactive)
REMARK    1  A    between atoms: C_1  and  C_2
REMARK    2  A    between atoms: C_13  and  C_19
REMARK    3  A    between atoms: C_15  and  N_18
REMARK                            x       y       z     vdW  Elec       q    Type
REMARK                         _______ _______ _______ _____ _____    ______ ____
ROOT
ATOM      1  C   UNL     1      -0.186   1.541   0.185  0.00  0.00    +0.033 C 
ATOM      2  C   UNL     1      -0.091   0.017   0.084  0.00  0.00    +0.103 C 
ATOM      3  C   UNL     1      -1.472  -0.603   0.292  0.00  0.00    -0.017 A 
ATOM      4  C   UNL     1      -2.619  -0.146  -0.355  0.00  0.00    +0.013 A 
ATOM      5  C   UNL     1      -3.809  -0.747  -0.125  0.00  0.00    +0.046 A 
ATOM      6  S   UNL     1      -3.360  -2.018   1.047  0.00  0.00    -0.101 S 
ATOM      7  C   UNL     1      -1.627  -1.653   1.143  0.00  0.00    -0.004 A 
ATOM      8  C   UNL     1      -0.580  -2.331   1.965  0.00  0.00    +0.061 C 
ATOM      9  C   UNL     1       0.803  -1.939   1.422  0.00  0.00    +0.112 C 
ATOM     10  N   UNL     1       0.797  -0.497   1.135  0.00  0.00    -0.307 N 
ATOM     11  C   UNL     1       1.616   0.365   1.848  0.00  0.00    +0.139 A 
ATOM     12  C   UNL     1       2.918   0.629   1.389  0.00  0.00    +0.093 A 
ATOM     13  C   UNL     1       3.728   1.502   2.123  0.00  0.00    +0.046 A 
ATOM     14  C   UNL     1       3.206   2.072   3.277  0.00  0.00    +0.044 A 
ATOM     15  C   UNL     1       1.909   1.761   3.664  0.00  0.00    +0.135 A 
ATOM     16  N   UNL     1       1.164   0.938   2.951  0.00  0.00    -0.237 NA
ENDROOT
BRANCH  14  17
ATOM     17  N   UNL     1       3.981   2.952   4.044  0.00  0.00    -0.357 N 
ATOM     18  H   UNL     1       4.886   3.166   3.770  0.00  0.00    +0.142 HD
ATOM     19  H   UNL     1       3.612   3.347   4.849  0.00  0.00    +0.142 HD
ENDBRANCH  14  17
BRANCH  12  20
ATOM     20  C   UNL     1       3.407   0.014   0.192  0.00  0.00    +0.103 C 
ATOM     21  N   UNL     1       3.794  -0.474  -0.758  0.00  0.00    -0.191 NA
ENDBRANCH  12  20
TORSDOF 2
