REMARK  Name = ZINC43641775
REMARK  4 active torsions:
REMARK  status: ('A' for Active; 'I' for Inactive)
REMARK    1  A    between atoms: C_1  and  C_2
REMARK    2  A    between atoms: C_5  and  C_7
REMARK    3  A    between atoms: C_7  and  N_8
REMARK    4  A    between atoms: N_17  and  C_18
REMARK                            x       y       z     vdW  Elec       q    Type
REMARK                         _______ _______ _______ _____ _____    ______ ____
ROOT
ATOM      1  N   UNL     1       1.984  -3.621  -1.411  0.00  0.00    +0.393 N 
ATOM      2  C   UNL     1       0.778  -4.194  -2.059  0.00  0.00    -0.054 C 
ATOM      3  C   UNL     1       1.209  -5.635  -2.481  0.00  0.00    +0.064 C 
ATOM      4  C   UNL     1       2.715  -5.360  -2.842  0.00  0.00    +0.015 C 
ATOM      5  C   UNL     1       3.012  -4.710  -1.442  0.00  0.00    +0.022 C 
ATOM      6  C   UNL     1       2.430  -5.798  -0.530  0.00  0.00    +0.207 C 
ATOM      7  O   UNL     1       2.837  -6.108   0.570  0.00  0.00    -0.277 OA
ATOM      8  N   UNL     1       1.352  -6.356  -1.182  0.00  0.00    -0.269 N 
ATOM      9  H   UNL     1       2.310  -2.817  -1.927  0.00  0.00    -0.080 HD
ENDROOT
BRANCH   8  10
ATOM     10  C   UNL     1       0.545  -7.408  -0.731  0.00  0.00    +0.072 A 
ATOM     11  C   UNL     1       0.888  -8.721  -1.022  0.00  0.00    +0.026 A 
ATOM     12  C   UNL     1       0.091  -9.758  -0.577  0.00  0.00    +0.002 A 
ATOM     13  C   UNL     1      -1.048  -9.489   0.159  0.00  0.00    +0.003 A 
ATOM     14  C   UNL     1      -1.395  -8.183   0.452  0.00  0.00    +0.040 A 
ATOM     15  C   UNL     1      -0.598  -7.141   0.014  0.00  0.00    +0.145 A 
ATOM     16  F   UNL     1      -0.933  -5.864   0.304  0.00  0.00    -0.204 F 
ENDBRANCH   8  10
BRANCH   1  17
ATOM     17  C   UNL     1       1.684  -3.245  -0.023  0.00  0.00    -0.002 C 
BRANCH  17  22
ATOM     18  C   UNL     1      -0.018   1.503   0.010  0.00  0.00    +0.086 C 
ATOM     19  C   UNL     1       0.002  -0.004   0.002  0.00  0.00    +0.102 A 
ATOM     20  C   UNL     1      -1.078  -0.805   0.003  0.00  0.00    +0.044 A 
ATOM     21  C   UNL     1      -0.601  -2.136  -0.007  0.00  0.00    +0.043 A 
ATOM     22  C   UNL     1       0.742  -2.069  -0.013  0.00  0.00    +0.089 A 
ATOM     23  O   UNL     1       1.102  -0.775  -0.013  0.00  0.00    -0.467 OA
ENDBRANCH  17  22
ENDBRANCH   1  17
TORSDOF 3
