REMARK  Name = ZINC59422682
REMARK  6 active torsions:
REMARK  status: ('A' for Active; 'I' for Inactive)
REMARK    1  A    between atoms: C_1  and  C_2
REMARK    2  A    between atoms: C_5  and  C_29
REMARK    3  A    between atoms: C_8  and  N_10
REMARK    4  A    between atoms: C_8  and  N_19
REMARK    5  A    between atoms: C_21  and  C_28
REMARK    6  A    between atoms: C_24  and  C_27
REMARK                            x       y       z     vdW  Elec       q    Type
REMARK                         _______ _______ _______ _____ _____    ______ ____
ROOT
ATOM      1  C   UNL     1      -0.424   1.156   0.991  0.00  0.00    +0.007 C 
ATOM      2  C   UNL     1      -0.192  -0.356   0.958  0.00  0.00    -0.010 C 
ATOM      3  C   UNL     1      -0.075  -0.823  -0.494  0.00  0.00    +0.006 C 
ATOM      4  C   UNL     1       1.102  -0.112  -1.165  0.00  0.00    -0.010 C 
ATOM      5  C   UNL     1       2.393  -0.446  -0.416  0.00  0.00    +0.049 C 
ATOM      6  C   UNL     1       2.276   0.021   1.036  0.00  0.00    +0.119 C 
ATOM      7  C   UNL     1       1.099  -0.690   1.707  0.00  0.00    +0.049 C 
ATOM      8  C   UNL     1       1.219  -0.578  -2.617  0.00  0.00    +0.007 C 
ENDROOT
BRANCH   6   9
ATOM      9  N   UNL     1       2.054   1.469   1.068  0.00  0.00    -0.223 N 
ATOM     10  C   UNL     1       1.638   2.214   2.145  0.00  0.00    +0.091 A 
ATOM     11  C   UNL     1       1.308   1.909   3.462  0.00  0.00    +0.030 A 
ATOM     12  C   UNL     1       0.919   2.905   4.313  0.00  0.00    +0.002 A 
ATOM     13  C   UNL     1       0.849   4.221   3.875  0.00  0.00    +0.002 A 
ATOM     14  C   UNL     1       1.167   4.547   2.589  0.00  0.00    +0.032 A 
ATOM     15  C   UNL     1       1.569   3.544   1.696  0.00  0.00    +0.113 A 
ATOM     16  N   UNL     1       1.936   3.557   0.399  0.00  0.00    -0.129 NA
ATOM     17  N   UNL     1       2.230   2.368   0.006  0.00  0.00    -0.063 NA
ENDBRANCH   6   9
BRANCH   6  18
ATOM     18  N   UNL     1       3.517  -0.299   1.755  0.00  0.00    -0.274 NA
ATOM     19  C   UNL     1       4.682   0.300   1.089  0.00  0.00    +0.118 C 
ATOM     20  C   UNL     1       5.955  -0.108   1.835  0.00  0.00    +0.130 C 
ATOM     21  O   UNL     1       5.849   0.293   3.203  0.00  0.00    -0.371 OA
ATOM     22  C   UNL     1       4.725  -0.273   3.883  0.00  0.00    +0.130 C 
ATOM     23  C   UNL     1       3.439   0.133   3.158  0.00  0.00    +0.118 C 
ATOM     24  C   UNL     1       4.686   0.244   5.323  0.00  0.00    +0.039 C 
ATOM     25  C   UNL     1       7.164   0.576   1.194  0.00  0.00    +0.039 C 
ENDBRANCH   6  18
TORSDOF 2
