REMARK  Name = ZINC04614353
REMARK  8 active torsions:
REMARK  status: ('A' for Active; 'I' for Inactive)
REMARK    1  A    between atoms: C_1  and  C_2
REMARK    2  A    between atoms: C_2  and  O_3
REMARK    3  A    between atoms: O_3  and  C_4
REMARK    4  A    between atoms: C_4  and  C_6
REMARK    5  A    between atoms: C_6  and  C_31
REMARK    6  A    between atoms: C_11  and  C_28
REMARK    7  A    between atoms: C_14  and  C_25
REMARK    8  A    between atoms: C_16  and  C_18
REMARK                            x       y       z     vdW  Elec       q    Type
REMARK                         _______ _______ _______ _____ _____    ______ ____
ROOT
ATOM      1  C   UNL     1      -2.380   1.059  -0.820  0.00  0.00    +0.184 C 
ATOM      2  C   UNL     1      -1.320   1.795   0.016  0.00  0.00    +0.128 C 
ATOM      3  C   UNL     1      -0.005   1.058  -0.008  0.00  0.00    -0.002 C 
ATOM      4  C   UNL     1       1.128   1.757  -0.004  0.00  0.00    +0.012 C 
ATOM      5  C   UNL     1       1.117   3.234   0.034  0.00  0.00    +0.050 C 
ATOM      6  C   UNL     1      -0.035   3.904  -0.309  0.00  0.00    +0.084 C 
ATOM      7  N   UNL     1      -1.099   3.106  -0.621  0.00  0.00    -0.314 N 
ATOM      8  C   UNL     1      -2.140   3.310  -1.631  0.00  0.00    +0.169 C 
ATOM      9  C   UNL     1      -2.443   1.873  -2.140  0.00  0.00    +0.081 C 
ENDROOT
BRANCH   9  10
ATOM     10  C   UNL     1      -3.818   1.800  -2.753  0.00  0.00    -0.039 A 
ATOM     11  C   UNL     1      -4.924   2.181  -2.016  0.00  0.00    +0.004 A 
ATOM     12  C   UNL     1      -6.185   2.119  -2.579  0.00  0.00    +0.002 A 
ATOM     13  C   UNL     1      -6.342   1.666  -3.876  0.00  0.00    +0.020 A 
ATOM     14  C   UNL     1      -5.236   1.279  -4.612  0.00  0.00    +0.041 A 
ATOM     15  C   UNL     1      -3.973   1.347  -4.049  0.00  0.00    +0.024 A 
ATOM     16 CL   UNL     1      -5.432   0.710  -6.240  0.00  0.00    -0.084 Cl
ENDBRANCH   9  10
BRANCH   8  17
ATOM     17  C   UNL     1      -3.363   3.936  -1.013  0.00  0.00    +0.232 C 
ATOM     18  O   UNL     1      -3.527   3.892   0.188  0.00  0.00    -0.274 OA
ATOM     19  N   UNL     1      -4.276   4.546  -1.795  0.00  0.00    -0.328 N 
ATOM     20  H   UNL     1      -4.146   4.582  -2.756  0.00  0.00    +0.145 HD
ATOM     21  H   UNL     1      -5.064   4.949  -1.397  0.00  0.00    +0.145 HD
ENDBRANCH   8  17
BRANCH   5  22
ATOM     22  C   UNL     1       2.318   3.977   0.432  0.00  0.00    +0.243 C 
ATOM     23  O   UNL     1       2.300   5.193   0.460  0.00  0.00    -0.270 OA
ATOM     24  N   UNL     1       3.442   3.311   0.765  0.00  0.00    -0.325 N 
ATOM     25  H   UNL     1       3.456   2.342   0.743  0.00  0.00    +0.145 HD
ATOM     26  H   UNL     1       4.236   3.802   1.028  0.00  0.00    +0.145 HD
ENDBRANCH   5  22
BRANCH   1  27
ATOM     27  C   UNL     1      -1.947  -0.359  -1.093  0.00  0.00    +0.330 C 
ATOM     28  O   UNL     1      -1.778  -0.731  -2.230  0.00  0.00    -0.249 OA
BRANCH  27  29
ATOM     29  O   UNL     1      -1.748  -1.208  -0.073  0.00  0.00    -0.464 OA
BRANCH  29  31
ATOM     30  C   UNL     1      -1.157  -3.373   0.872  0.00  0.00    +0.048 C 
ATOM     31  C   UNL     1      -1.332  -2.558  -0.410  0.00  0.00    +0.229 C 
ENDBRANCH  29  31
ENDBRANCH  27  29
ENDBRANCH   1  27
BRANCH   1  32
ATOM     32  C   UNL     1      -3.683   1.080  -0.137  0.00  0.00    +0.084 C 
ATOM     33  N   UNL     1      -4.689   1.096   0.391  0.00  0.00    -0.195 NA
ENDBRANCH   1  32
TORSDOF 7
