REMARK  Name = ZINC49937235
REMARK  4 active torsions:
REMARK  status: ('A' for Active; 'I' for Inactive)
REMARK    1  A    between atoms: C_1  and  C_2
REMARK    2  A    between atoms: N_6  and  C_7
REMARK    3  A    between atoms: C_7  and  C_9
REMARK    4  A    between atoms: C_10  and  C_19
REMARK                            x       y       z     vdW  Elec       q    Type
REMARK                         _______ _______ _______ _____ _____    ______ ____
ROOT
ATOM      1  C   UNL     1       0.088  -5.239   2.932  0.00  0.00    +0.100 A 
ATOM      2  C   UNL     1       0.113  -6.614   2.893  0.00  0.00    +0.060 A 
ATOM      3  N   UNL     1       0.125  -7.235   4.048  0.00  0.00    -0.227 NA
ATOM      4  C   UNL     1       0.115  -6.569   5.186  0.00  0.00    +0.178 A 
ATOM      5  S   UNL     1       0.094  -4.959   4.696  0.00  0.00    -0.044 S 
ATOM      6  N   UNL     1       0.125  -7.075   6.481  0.00  0.00    -0.302 N 
ATOM      7  C   UNL     1       0.154  -8.400   6.819  0.00  0.00    +0.093 A 
ATOM      8  C   UNL     1       0.156  -8.491   8.164  0.00  0.00    +0.019 A 
ATOM      9  C   UNL     1       0.127  -7.178   8.678  0.00  0.00    +0.019 A 
ATOM     10  C   UNL     1       0.114  -6.332   7.628  0.00  0.00    +0.093 A 
ATOM     11  C   UNL     1       0.123  -7.368   1.589  0.00  0.00    +0.067 C 
ENDROOT
BRANCH   1  12
ATOM     12  C   UNL     1       0.070  -4.269   1.829  0.00  0.00    +0.278 C 
ATOM     13  O   UNL     1       0.069  -4.660   0.672  0.00  0.00    -0.267 OA
BRANCH  12  19
ATOM     14  C   UNL     1      -0.018   1.503   0.010  0.00  0.00    +0.064 C 
ATOM     15  C   UNL     1       0.002  -0.004   0.002  0.00  0.00    +0.021 A 
ATOM     16  C   UNL     1       0.006  -0.693  -1.144  0.00  0.00    +0.069 A 
ATOM     17  S   UNL     1       0.033  -2.379  -0.563  0.00  0.00    -0.060 S 
ATOM     18  C   UNL     1       0.036  -2.078   1.091  0.00  0.00    +0.163 A 
ATOM     19  N   UNL     1       0.053  -2.956   2.091  0.00  0.00    -0.152 NA
ATOM     20  N   UNL     1       0.023  -0.718   1.160  0.00  0.00    -0.339 N 
ATOM     21  H   UNL     1       0.025  -0.267   2.019  0.00  0.00    +0.167 HD
ENDBRANCH  12  19
ENDBRANCH   1  12
TORSDOF 2
