REMARK  Name = ZINC41583864
REMARK  10 active torsions:
REMARK  status: ('A' for Active; 'I' for Inactive)
REMARK    1  A    between atoms: C_1  and  C_2
REMARK    2  A    between atoms: C_5  and  C_33
REMARK    3  A    between atoms: N_8  and  C_10
REMARK    4  A    between atoms: C_10  and  C_11
REMARK    5  A    between atoms: C_12  and  O_32
REMARK    6  A    between atoms: C_20  and  C_22
REMARK    7  A    between atoms: C_25  and  O_30
REMARK    8  A    between atoms: C_27  and  O_28
REMARK    9  A    between atoms: O_28  and  C_29
REMARK   10  A    between atoms: O_30  and  C_31
REMARK                            x       y       z     vdW  Elec       q    Type
REMARK                         _______ _______ _______ _____ _____    ______ ____
ROOT
ATOM      1  C   UNL     1       2.971  -2.034   2.241  0.00  0.00    +0.020 A 
ATOM      2  C   UNL     1       3.874  -2.852   1.581  0.00  0.00    +0.122 A 
ATOM      3  C   UNL     1       5.204  -2.462   1.434  0.00  0.00    +0.046 A 
ATOM      4  C   UNL     1       5.638  -1.276   1.950  0.00  0.00    +0.015 A 
ATOM      5  C   UNL     1       4.746  -0.447   2.643  0.00  0.00    +0.019 A 
ATOM      6  C   UNL     1       3.393  -0.821   2.760  0.00  0.00    +0.144 A 
ATOM      7  O   UNL     1       2.510   0.011   3.365  0.00  0.00    -0.421 OA
ATOM      8  C   UNL     1       3.012   0.861   4.291  0.00  0.00    +0.345 A 
ATOM      9  O   UNL     1       2.395   1.117   5.309  0.00  0.00    -0.245 OA
ATOM     10  C   UNL     1       4.328   1.465   4.027  0.00  0.00    +0.071 A 
ATOM     11  C   UNL     1       5.190   0.774   3.214  0.00  0.00    +0.027 A 
ENDROOT
BRANCH  10  12
ATOM     12  C   UNL     1       4.711   2.764   4.627  0.00  0.00    +0.031 A 
ATOM     13  C   UNL     1       4.723   3.918   3.845  0.00  0.00    +0.016 A 
ATOM     14  C   UNL     1       5.080   5.127   4.406  0.00  0.00    +0.046 A 
ATOM     15  C   UNL     1       5.427   5.198   5.749  0.00  0.00    +0.124 A 
ATOM     16  C   UNL     1       5.418   4.054   6.534  0.00  0.00    +0.091 A 
ATOM     17  C   UNL     1       5.056   2.837   5.981  0.00  0.00    +0.131 A 
BRANCH  17  18
ATOM     18  O   UNL     1       5.042   1.717   6.749  0.00  0.00    -0.494 OA
ATOM     19  C   UNL     1       5.406   1.868   8.123  0.00  0.00    +0.277 C 
ENDBRANCH  17  18
BRANCH  15  20
ATOM     20  O   UNL     1       5.777   6.391   6.296  0.00  0.00    -0.495 OA
ATOM     21  C   UNL     1       5.766   7.529   5.431  0.00  0.00    +0.277 C 
ENDBRANCH  15  20
ENDBRANCH  10  12
BRANCH   2  22
ATOM     22  O   UNL     1       3.461  -4.041   1.073  0.00  0.00    -0.506 OA
ATOM     23  H   UNL     1       3.140  -3.990   0.162  0.00  0.00    +0.292 HD
ENDBRANCH   2  22
BRANCH   1  24
ATOM     24  C   UNL     1       1.534  -2.461   2.390  0.00  0.00    -0.036 C 
BRANCH  24  30
ATOM     25  C   UNL     1      -0.019   1.526   0.010  0.00  0.00    +0.005 C 
ATOM     26  C   UNL     1       0.002  -0.004   0.002  0.00  0.00    -0.031 C 
ATOM     27  C   UNL     1      -1.434  -0.535   0.015  0.00  0.00    +0.003 C 
ATOM     28  C   UNL     1      -1.402  -2.064   0.086  0.00  0.00    -0.031 C 
ATOM     29  C   UNL     1      -0.613  -2.496   1.324  0.00  0.00    -0.075 C 
ATOM     30  N   UNL     1       0.758  -1.980   1.239  0.00  0.00    +0.383 N 
ATOM     31  C   UNL     1       0.740  -0.512   1.242  0.00  0.00    -0.075 C 
ATOM     32  C   UNL     1      -2.832  -2.602   0.177  0.00  0.00    +0.005 C 
ATOM     33  H   UNL     1       1.188  -2.307   0.386  0.00  0.00    -0.081 HD
ENDBRANCH  24  30
ENDBRANCH   1  24
TORSDOF 6
