REMARK  Name = ZINC38754083
REMARK  5 active torsions:
REMARK  status: ('A' for Active; 'I' for Inactive)
REMARK    1  A    between atoms: C_3  and  C_9
REMARK    2  A    between atoms: C_11  and  C_14
REMARK    3  A    between atoms: C_14  and  N_15
REMARK    4  A    between atoms: C_16  and  C_18
REMARK    5  A    between atoms: C_18  and  C_19
REMARK                            x       y       z     vdW  Elec       q    Type
REMARK                         _______ _______ _______ _____ _____    ______ ____
ROOT
ATOM      1  N   UNL     1       9.259   2.271  -2.047  0.00  0.00    -0.310 N 
ATOM      2  C   UNL     1      10.355   2.245  -1.264  0.00  0.00    +0.215 C 
ATOM      3  O   UNL     1      11.341   2.879  -1.579  0.00  0.00    -0.276 OA
ATOM      4  H   UNL     1       8.471   1.765  -1.794  0.00  0.00    +0.149 HD
ENDROOT
BRANCH   1   5
ATOM      5  C   UNL     1       9.256   3.065  -3.278  0.00  0.00    +0.163 C 
BRANCH   5   8
ATOM      6  C   UNL     1       5.820   3.330  -4.609  0.00  0.00    +0.170 A 
ATOM      7  C   UNL     1       6.835   3.801  -3.833  0.00  0.00    +0.077 A 
ATOM      8  C   UNL     1       7.922   2.924  -3.964  0.00  0.00    +0.101 A 
ATOM      9  N   UNL     1       7.580   1.967  -4.780  0.00  0.00    -0.081 NA
ATOM     10  O   UNL     1       6.247   2.198  -5.199  0.00  0.00    -0.354 OA
BRANCH   6  13
ATOM     11  C   UNL     1       2.717   4.737  -6.186  0.00  0.00    +0.039 A 
ATOM     12  C   UNL     1       3.962   4.161  -6.043  0.00  0.00    +0.017 A 
ATOM     13  C   UNL     1       4.487   3.947  -4.768  0.00  0.00    +0.055 A 
ATOM     14  C   UNL     1       3.746   4.318  -3.642  0.00  0.00    +0.137 A 
ATOM     15  C   UNL     1       2.500   4.893  -3.798  0.00  0.00    +0.077 A 
ATOM     16  C   UNL     1       1.986   5.103  -5.067  0.00  0.00    +0.126 A 
ATOM     17  F   UNL     1       0.767   5.666  -5.215  0.00  0.00    -0.205 F 
ATOM     18  F   UNL     1       4.247   4.113  -2.404  0.00  0.00    -0.205 F 
ENDBRANCH   6  13
ENDBRANCH   5   8
ENDBRANCH   1   5
BRANCH   2  19
ATOM     19  C   UNL     1      10.358   1.429   0.003  0.00  0.00    +0.119 C 
BRANCH  19  20
ATOM     20  C   UNL     1      11.758   1.451   0.621  0.00  0.00    +0.102 C 
ATOM     21  C   UNL     1      12.748   0.804  -0.373  0.00  0.00    +0.100 C 
ATOM     22  S   UNL     1      13.775  -0.182   0.796  0.00  0.00    -0.088 S 
ATOM     23  C   UNL     1      12.628  -0.239   2.149  0.00  0.00    +0.159 C 
ATOM     24  N   UNL     1      12.622  -1.049   3.161  0.00  0.00    -0.259 NA
ATOM     25  C   UNL     1      11.518  -0.951   4.115  0.00  0.00    +0.120 C 
ATOM     26  C   UNL     1      11.912  -1.467   5.496  0.00  0.00    +0.027 C 
ATOM     27  C   UNL     1      10.681  -1.417   6.407  0.00  0.00    +0.002 C 
ATOM     28  C   UNL     1      10.156   0.015   6.506  0.00  0.00    +0.001 C 
ATOM     29  C   UNL     1       9.795   0.542   5.113  0.00  0.00    +0.015 C 
ATOM     30  C   UNL     1      11.059   0.497   4.254  0.00  0.00    +0.100 C 
ATOM     31  C   UNL     1      10.821   1.111   2.904  0.00  0.00    +0.227 C 
ATOM     32  O   UNL     1       9.892   1.864   2.701  0.00  0.00    -0.275 OA
ATOM     33  N   UNL     1      11.710   0.775   1.908  0.00  0.00    -0.246 N 
ENDBRANCH  19  20
ENDBRANCH   2  19
TORSDOF 5
