REMARK  Name = ZINC37581278
REMARK  6 active torsions:
REMARK  status: ('A' for Active; 'I' for Inactive)
REMARK    1  A    between atoms: C_1  and  C_2
REMARK    2  A    between atoms: N_7  and  S_8
REMARK    3  A    between atoms: S_8  and  C_11
REMARK    4  A    between atoms: C_14  and  C_17
REMARK    5  A    between atoms: C_18  and  C_19
REMARK    6  A    between atoms: C_19  and  N_20
REMARK                            x       y       z     vdW  Elec       q    Type
REMARK                         _______ _______ _______ _____ _____    ______ ____
ROOT
ATOM      1  C   UNL     1       0.094  -5.388   3.361  0.00  0.00    +0.113 A 
ATOM      2  C   UNL     1       1.301  -5.692   3.965  0.00  0.00    +0.030 A 
ATOM      3  C   UNL     1       1.322  -6.344   5.181  0.00  0.00    +0.019 A 
ATOM      4  C   UNL     1       0.123  -6.698   5.801  0.00  0.00    +0.025 A 
ATOM      5  C   UNL     1      -1.091  -6.388   5.186  0.00  0.00    +0.019 A 
ATOM      6  C   UNL     1      -1.099  -5.731   3.973  0.00  0.00    +0.030 A 
ENDROOT
BRANCH   1   7
ATOM      7  S   UNL     1       0.075  -4.553   1.809  0.00  0.00    +0.101 S 
ATOM      8  O   UNL     1      -1.169  -4.864   1.196  0.00  0.00    -0.146 OA
ATOM      9  O   UNL     1       1.321  -4.829   1.185  0.00  0.00    -0.146 OA
BRANCH   7  16
ATOM     10  C   UNL     1      -0.018   1.503   0.010  0.00  0.00    +0.064 C 
ATOM     11  C   UNL     1       0.002  -0.004   0.002  0.00  0.00    +0.022 A 
ATOM     12  C   UNL     1       0.006  -0.662  -1.157  0.00  0.00    +0.069 A 
ATOM     13  S   UNL     1       0.032  -2.365  -0.622  0.00  0.00    -0.057 S 
ATOM     14  C   UNL     1       0.036  -2.068   1.139  0.00  0.00    +0.192 A 
ATOM     15  N   UNL     1       0.023  -0.690   1.181  0.00  0.00    -0.336 N 
ATOM     16  N   UNL     1       0.053  -2.928   2.127  0.00  0.00    -0.103 NA
ATOM     17  H   UNL     1       0.024  -0.220   2.029  0.00  0.00    +0.168 HD
ENDBRANCH   7  16
ENDBRANCH   1   7
BRANCH   4  18
ATOM     18  C   UNL     1       0.139  -7.376   7.062  0.00  0.00    -0.068 C 
ATOM     19  C   UNL     1       0.151  -7.932   8.096  0.00  0.00    -0.117 C 
BRANCH  19  20
ATOM     20  C   UNL     1       0.167  -8.629   9.392  0.00  0.00    +0.005 C 
BRANCH  20  21
ATOM     21  N   UNL     1      -1.212  -8.886   9.827  0.00  0.00    +0.385 N 
ATOM     22  H   UNL     1      -1.201  -9.363  10.716  0.00  0.00    -0.089 HD
ATOM     23  H   UNL     1      -1.704  -8.009   9.922  0.00  0.00    -0.089 HD
ATOM     24  H   UNL     1      -1.679  -9.460   9.142  0.00  0.00    -0.089 HD
ENDBRANCH  20  21
ENDBRANCH  19  20
ENDBRANCH   4  18
TORSDOF 5
