REMARK  Name = ZINC60100733
REMARK  5 active torsions:
REMARK  status: ('A' for Active; 'I' for Inactive)
REMARK    1  A    between atoms: C_1  and  C_2
REMARK    2  A    between atoms: C_2  and  C_23
REMARK    3  A    between atoms: C_3  and  C_4
REMARK    4  A    between atoms: N_9  and  C_12
REMARK    5  A    between atoms: C_12  and  C_13
REMARK                            x       y       z     vdW  Elec       q    Type
REMARK                         _______ _______ _______ _____ _____    ______ ____
ROOT
ATOM      1  C   UNL     1      -2.839  -1.147   1.874  0.00  0.00    +0.239 C 
ATOM      2  O   UNL     1      -2.529  -2.196   2.407  0.00  0.00    -0.271 OA
ATOM      3  N   UNL     1      -4.131  -0.766   1.839  0.00  0.00    -0.296 N 
ATOM      4  C   UNL     1      -4.511   0.571   1.358  0.00  0.00    +0.123 C 
ATOM      5  C   UNL     1      -5.423   1.223   2.402  0.00  0.00    +0.104 C 
ATOM      6  N   UNL     1      -6.548   0.325   2.694  0.00  0.00    -0.294 NA
ATOM      7  C   UNL     1      -6.084  -0.935   3.289  0.00  0.00    +0.104 C 
ATOM      8  C   UNL     1      -5.200  -1.678   2.275  0.00  0.00    +0.123 C 
ENDROOT
BRANCH   1  11
ATOM      9  C   UNL     1       0.390  -0.643   0.215  0.00  0.00    +0.040 C 
ATOM     10  C   UNL     1      -0.519  -0.603   1.416  0.00  0.00    -0.062 C 
ATOM     11  C   UNL     1      -1.804  -0.296   1.268  0.00  0.00    +0.067 C 
BRANCH  10  12
ATOM     12  C   UNL     1       0.028  -0.912   2.786  0.00  0.00    -0.007 C 
ATOM     13  C   UNL     1       1.295  -0.088   3.027  0.00  0.00    +0.014 C 
ATOM     14  C   UNL     1       1.850  -0.401   4.418  0.00  0.00    -0.010 C 
ATOM     15  C   UNL     1       2.187  -1.891   4.509  0.00  0.00    +0.007 C 
ATOM     16  C   UNL     1       0.920  -2.715   4.268  0.00  0.00    -0.010 C 
ATOM     17  C   UNL     1       0.364  -2.402   2.877  0.00  0.00    +0.014 C 
ATOM     18  C   UNL     1      -0.127  -2.363   5.327  0.00  0.00    +0.007 C 
ATOM     19  C   UNL     1      -0.463  -0.873   5.235  0.00  0.00    -0.010 C 
ATOM     20  C   UNL     1       0.803  -0.049   5.476  0.00  0.00    +0.007 C 
ATOM     21  C   UNL     1      -1.019  -0.560   3.845  0.00  0.00    +0.014 C 
ENDBRANCH  10  12
ENDBRANCH   1  11
BRANCH   6  22
ATOM     22  C   UNL     1      -7.536   0.983   3.561  0.00  0.00    +0.138 C 
BRANCH  22  23
ATOM     23  C   UNL     1      -8.779   0.136   3.639  0.00  0.00    +0.037 A 
ATOM     24  C   UNL     1      -9.168  -0.431   4.834  0.00  0.00    +0.093 A 
ATOM     25  C   UNL     1     -10.322  -1.213   4.887  0.00  0.00    +0.259 A 
ATOM     26  O   UNL     1     -10.671  -1.717   5.942  0.00  0.00    -0.267 OA
ATOM     27  N   UNL     1     -11.063  -1.412   3.756  0.00  0.00    -0.264 N 
ATOM     28  C   UNL     1     -12.216  -2.151   3.648  0.00  0.00    +0.104 A 
ATOM     29  C   UNL     1     -12.851  -2.271   2.482  0.00  0.00    +0.067 A 
ATOM     30  S   UNL     1     -11.812  -1.301   1.400  0.00  0.00    -0.059 S 
ATOM     31  C   UNL     1     -10.605  -0.813   2.613  0.00  0.00    +0.158 A 
ATOM     32  N   UNL     1      -9.525  -0.074   2.557  0.00  0.00    -0.338 N 
ATOM     33  H   UNL     1      -9.262   0.324   1.712  0.00  0.00    +0.168 HD
ENDBRANCH  22  23
ENDBRANCH   6  22
TORSDOF 4
