REMARK  Name = ZINC20979570
REMARK  6 active torsions:
REMARK  status: ('A' for Active; 'I' for Inactive)
REMARK    1  A    between atoms: C_1  and  C_2
REMARK    2  A    between atoms: C_5  and  C_8
REMARK    3  A    between atoms: C_8  and  N_9
REMARK    4  A    between atoms: N_19  and  C_22
REMARK    5  A    between atoms: C_24  and  C_29
REMARK    6  A    between atoms: C_27  and  C_28
REMARK                            x       y       z     vdW  Elec       q    Type
REMARK                         _______ _______ _______ _____ _____    ______ ____
ROOT
ATOM      1  N   UNL     1      -0.932   2.686   0.145  0.00  0.00    -0.274 N 
ATOM      2  C   UNL     1      -0.401   4.002  -0.243  0.00  0.00    +0.121 C 
ATOM      3  C   UNL     1      -0.773   5.032   0.845  0.00  0.00    +0.190 C 
ATOM      4  S   UNL     1       0.797   5.992   0.989  0.00  0.00    -0.027 S 
ATOM      5  O   UNL     1       0.852   6.963  -0.048  0.00  0.00    -0.174 OA
ATOM      6  O   UNL     1       0.982   6.392   2.340  0.00  0.00    -0.174 OA
ATOM      7  C   UNL     1       1.956   4.618   0.589  0.00  0.00    +0.190 C 
ATOM      8  C   UNL     1       1.107   3.769  -0.381  0.00  0.00    +0.126 C 
ATOM      9  N   UNL     1       1.280   2.346  -0.052  0.00  0.00    -0.249 N 
ATOM     10  C   UNL     1       0.083   1.815   0.234  0.00  0.00    +0.310 C 
ATOM     11  O   UNL     1      -0.069   0.648   0.542  0.00  0.00    -0.252 OA
ENDROOT
BRANCH   9  12
ATOM     12  C   UNL     1       2.498   1.657  -0.040  0.00  0.00    +0.041 A 
ATOM     13  C   UNL     1       3.198   1.502   1.150  0.00  0.00    +0.027 A 
ATOM     14  C   UNL     1       4.397   0.818   1.160  0.00  0.00    -0.049 A 
ATOM     15  C   UNL     1       4.907   0.297  -0.015  0.00  0.00    +0.004 A 
ATOM     16  C   UNL     1       4.216   0.454  -1.202  0.00  0.00    +0.005 A 
ATOM     17  C   UNL     1       3.013   1.132  -1.218  0.00  0.00    -0.029 A 
ATOM     18  C   UNL     1       2.260   1.303  -2.512  0.00  0.00    +0.045 C 
ATOM     19  C   UNL     1       5.155   0.645   2.451  0.00  0.00    +0.044 C 
ENDBRANCH   9  12
BRANCH   1  20
ATOM     20  C   UNL     1      -2.342   2.377   0.396  0.00  0.00    +0.144 C 
BRANCH  20  25
ATOM     21  C   UNL     1      -3.544   3.272   5.977  0.00  0.00    +0.044 C 
ATOM     22  C   UNL     1      -3.231   3.038   4.521  0.00  0.00    -0.050 A 
ATOM     23  C   UNL     1      -3.379   4.066   3.609  0.00  0.00    +0.003 A 
ATOM     24  C   UNL     1      -3.091   3.852   2.274  0.00  0.00    +0.005 A 
ATOM     25  C   UNL     1      -2.655   2.610   1.851  0.00  0.00    -0.030 A 
ATOM     26  C   UNL     1      -2.513   1.581   2.763  0.00  0.00    +0.005 A 
ATOM     27  C   UNL     1      -2.796   1.796   4.098  0.00  0.00    +0.003 A 
ENDBRANCH  20  25
ENDBRANCH   1  20
TORSDOF 3
