REMARK  Name = ZINC16569700
REMARK  6 active torsions:
REMARK  status: ('A' for Active; 'I' for Inactive)
REMARK    1  A    between atoms: C_1  and  C_2
REMARK    2  A    between atoms: C_7  and  N_8
REMARK    3  A    between atoms: N_11  and  C_12
REMARK    4  A    between atoms: N_11  and  C_34
REMARK    5  A    between atoms: C_12  and  C_13
REMARK    6  A    between atoms: C_27  and  C_29
REMARK                            x       y       z     vdW  Elec       q    Type
REMARK                         _______ _______ _______ _____ _____    ______ ____
ROOT
ATOM      1  C   UNL     1       0.785  -3.881  -2.317  0.00  0.00    +0.238 C 
ATOM      2  O   UNL     1       1.830  -4.308  -2.760  0.00  0.00    -0.273 OA
ATOM      3  N   UNL     1       0.716  -2.617  -1.854  0.00  0.00    -0.252 N 
ATOM      4  C   UNL     1       1.872  -1.827  -1.803  0.00  0.00    +0.061 A 
ATOM      5  C   UNL     1       2.906  -2.033  -2.702  0.00  0.00    +0.025 A 
ATOM      6  C   UNL     1       4.045  -1.253  -2.634  0.00  0.00    +0.002 A 
ATOM      7  C   UNL     1       4.162  -0.266  -1.672  0.00  0.00    +0.002 A 
ATOM      8  C   UNL     1       3.134  -0.049  -0.772  0.00  0.00    +0.028 A 
ATOM      9  C   UNL     1       1.991  -0.821  -0.837  0.00  0.00    +0.068 A 
ATOM     10  N   UNL     1       0.918  -0.632   0.046  0.00  0.00    -0.316 N 
ATOM     11  C   UNL     1       0.850   0.077   1.198  0.00  0.00    +0.092 A 
ATOM     12  C   UNL     1      -0.401  -0.051   1.698  0.00  0.00    +0.020 A 
ATOM     13  C   UNL     1      -1.131  -0.873   0.811  0.00  0.00    +0.025 A 
ATOM     14  C   UNL     1      -0.309  -1.213  -0.187  0.00  0.00    +0.052 A 
ATOM     15  C   UNL     1      -0.574  -2.069  -1.402  0.00  0.00    +0.194 C 
ENDROOT
BRANCH  15  16
ATOM     16  C   UNL     1      -1.185  -1.231  -2.495  0.00  0.00    +0.131 A 
ATOM     17  C   UNL     1      -2.492  -1.172  -2.804  0.00  0.00    +0.047 A 
ATOM     18  C   UNL     1      -2.618  -0.268  -3.884  0.00  0.00    +0.041 A 
ATOM     19  C   UNL     1      -1.379   0.171  -4.171  0.00  0.00    +0.195 A 
ATOM     20  O   UNL     1      -0.516  -0.411  -3.322  0.00  0.00    -0.466 OA
ENDBRANCH  15  16
BRANCH   1  21
ATOM     21  C   UNL     1      -0.437  -4.763  -2.285  0.00  0.00    +0.205 C 
BRANCH  21  25
ATOM     22  N   UNL     1       0.282  -6.763  -0.525  0.00  0.00    -0.269 N 
ATOM     23  C   UNL     1       0.334  -7.032  -1.845  0.00  0.00    +0.307 C 
ATOM     24  O   UNL     1       0.752  -8.106  -2.231  0.00  0.00    -0.252 OA
ATOM     25  N   UNL     1      -0.079  -6.109  -2.737  0.00  0.00    -0.274 N 
ATOM     26  H   UNL     1      -0.136  -5.946  -0.212  0.00  0.00    +0.156 HD
BRANCH  22  33
ATOM     27  C   UNL     1      -0.704  -6.729   2.144  0.00  0.00    +0.045 C 
ATOM     28  C   UNL     1       0.380  -7.681   1.707  0.00  0.00    -0.029 A 
ATOM     29  C   UNL     1       0.923  -8.571   2.612  0.00  0.00    +0.005 A 
ATOM     30  C   UNL     1       1.917  -9.445   2.212  0.00  0.00    +0.000 A 
ATOM     31  C   UNL     1       2.370  -9.431   0.905  0.00  0.00    +0.002 A 
ATOM     32  C   UNL     1       1.826  -8.547  -0.006  0.00  0.00    +0.023 A 
ATOM     33  C   UNL     1       0.832  -7.664   0.394  0.00  0.00    +0.038 A 
ENDBRANCH  22  33
BRANCH  25  34
ATOM     34  C   UNL     1      -0.168  -6.454  -4.158  0.00  0.00    +0.078 C 
ATOM     35  C   UNL     1      -0.149  -7.938  -4.528  0.00  0.00    +0.024 C 
ATOM     36  C   UNL     1       1.071  -7.061  -4.817  0.00  0.00    +0.024 C 
ENDBRANCH  25  34
ENDBRANCH  21  25
ENDBRANCH   1  21
TORSDOF 5
