REMARK  Name = ZINC08780897
REMARK  9 active torsions:
REMARK  status: ('A' for Active; 'I' for Inactive)
REMARK    1  A    between atoms: C_1  and  C_2
REMARK    2  A    between atoms: C_2  and  C_3
REMARK    3  A    between atoms: C_2  and  O_4
REMARK    4  A    between atoms: O_4  and  C_5
REMARK    5  A    between atoms: C_5  and  C_7
REMARK    6  A    between atoms: C_7  and  C_33
REMARK    7  A    between atoms: C_12  and  C_30
REMARK    8  A    between atoms: C_15  and  C_27
REMARK    9  A    between atoms: C_17  and  C_19
REMARK                            x       y       z     vdW  Elec       q    Type
REMARK                         _______ _______ _______ _____ _____    ______ ____
ROOT
ATOM      1  C   UNL     1      -6.039  -1.308  -0.321  0.00  0.00    +0.184 C 
ATOM      2  C   UNL     1      -4.769  -0.562  -0.766  0.00  0.00    +0.128 C 
ATOM      3  C   UNL     1      -3.528  -1.324  -0.377  0.00  0.00    -0.002 C 
ATOM      4  C   UNL     1      -2.443  -0.643  -0.018  0.00  0.00    +0.012 C 
ATOM      5  C   UNL     1      -2.439   0.834   0.010  0.00  0.00    +0.050 C 
ATOM      6  C   UNL     1      -3.639   1.507   0.030  0.00  0.00    +0.084 C 
ATOM      7  N   UNL     1      -4.751   0.710  -0.015  0.00  0.00    -0.314 N 
ATOM      8  C   UNL     1      -6.028   0.886   0.675  0.00  0.00    +0.169 C 
ATOM      9  C   UNL     1      -6.998  -0.137   0.033  0.00  0.00    +0.081 C 
ENDROOT
BRANCH   9  10
ATOM     10  C   UNL     1      -8.046  -0.580   1.021  0.00  0.00    -0.038 A 
ATOM     11  C   UNL     1      -7.667  -1.146   2.224  0.00  0.00    +0.005 A 
ATOM     12  C   UNL     1      -8.627  -1.548   3.133  0.00  0.00    +0.022 A 
ATOM     13  C   UNL     1      -9.969  -1.393   2.836  0.00  0.00    +0.059 A 
ATOM     14  C   UNL     1     -10.350  -0.830   1.629  0.00  0.00    +0.060 A 
ATOM     15  C   UNL     1      -9.387  -0.424   0.723  0.00  0.00    +0.025 A 
ATOM     16 CL   UNL     1     -12.033  -0.635   1.254  0.00  0.00    -0.082 Cl
ATOM     17 CL   UNL     1     -11.176  -1.903   3.975  0.00  0.00    -0.082 Cl
ENDBRANCH   9  10
BRANCH   8  18
ATOM     18  C   UNL     1      -5.868   0.600   2.146  0.00  0.00    +0.232 C 
ATOM     19  O   UNL     1      -4.913  -0.035   2.540  0.00  0.00    -0.274 OA
ATOM     20  N   UNL     1      -6.788   1.048   3.024  0.00  0.00    -0.328 N 
ATOM     21  H   UNL     1      -7.552   1.555   2.709  0.00  0.00    +0.145 HD
ATOM     22  H   UNL     1      -6.685   0.864   3.971  0.00  0.00    +0.145 HD
ENDBRANCH   8  18
BRANCH   5  23
ATOM     23  C   UNL     1      -1.173   1.574   0.010  0.00  0.00    +0.243 C 
ATOM     24  O   UNL     1      -1.179   2.791   0.028  0.00  0.00    -0.270 OA
ATOM     25  N   UNL     1      -0.002   0.906  -0.010  0.00  0.00    -0.325 N 
ATOM     26  H   UNL     1       0.003  -0.064  -0.024  0.00  0.00    +0.145 HD
ATOM     27  H   UNL     1       0.836   1.395  -0.014  0.00  0.00    +0.145 HD
ENDBRANCH   5  23
BRANCH   1  28
ATOM     28  C   UNL     1      -6.595  -2.141  -1.448  0.00  0.00    +0.330 C 
ATOM     29  O   UNL     1      -7.703  -1.917  -1.875  0.00  0.00    -0.249 OA
BRANCH  28  30
ATOM     30  O   UNL     1      -5.859  -3.132  -1.976  0.00  0.00    -0.461 OA
BRANCH  30  32
ATOM     31  C   UNL     1      -6.112  -3.235  -4.396  0.00  0.00    +0.052 C 
ATOM     32  C   UNL     1      -6.458  -3.892  -3.058  0.00  0.00    +0.170 C 
ATOM     33  C   UNL     1      -5.915  -5.323  -3.037  0.00  0.00    +0.052 C 
ENDBRANCH  30  32
ENDBRANCH  28  30
ENDBRANCH   1  28
BRANCH   1  34
ATOM     34  C   UNL     1      -5.771  -2.142   0.862  0.00  0.00    +0.084 C 
ATOM     35  N   UNL     1      -5.563  -2.786   1.774  0.00  0.00    -0.195 NA
ENDBRANCH   1  34
TORSDOF 7
