REMARK  Name = ZINC04294177
REMARK  7 active torsions:
REMARK  status: ('A' for Active; 'I' for Inactive)
REMARK    1  A    between atoms: C_1  and  C_2
REMARK    2  A    between atoms: C_2  and  C_3
REMARK    3  A    between atoms: C_2  and  C_4
REMARK    4  A    between atoms: C_4  and  C_5
REMARK    5  A    between atoms: C_10  and  C_19
REMARK    6  A    between atoms: C_15  and  C_17
REMARK    7  A    between atoms: C_15  and  C_18
REMARK                            x       y       z     vdW  Elec       q    Type
REMARK                         _______ _______ _______ _____ _____    ______ ____
ROOT
ATOM      1  C   UNL     1       0.988   2.072  -0.702  0.00  0.00    +0.188 C 
ATOM      2  C   UNL     1       1.024   3.586  -0.774  0.00  0.00    +0.330 C 
ATOM      3  O   UNL     1       0.169   4.296  -1.247  0.00  0.00    -0.249 OA
ATOM      4  O   UNL     1       2.180   3.998  -0.214  0.00  0.00    -0.439 OA
ATOM      5  C   UNL     1       2.621   2.963   0.705  0.00  0.00    +0.182 C 
ATOM      6  N   UNL     1       2.131   1.693   0.128  0.00  0.00    -0.261 N 
ATOM      7  C   UNL     1       2.693   0.497   0.340  0.00  0.00    +0.137 C 
ATOM      8  S   UNL     1       1.916  -0.931  -0.196  0.00  0.00    -0.019 S 
ATOM      9  N   UNL     1       3.878   0.428   0.980  0.00  0.00    -0.321 N 
ATOM     10  C   UNL     1       4.534   1.612   1.530  0.00  0.00    +0.033 C 
ATOM     11  C   UNL     1       4.151   2.869   0.743  0.00  0.00    +0.094 C 
ATOM     12  C   UNL     1       6.051   1.422   1.464  0.00  0.00    +0.031 C 
ATOM     13  C   UNL     1       4.113   1.786   2.990  0.00  0.00    +0.031 C 
ATOM     14  C   UNL     1       2.042   3.190   2.103  0.00  0.00    +0.078 C 
ATOM     15  H   UNL     1       4.309  -0.435   1.078  0.00  0.00    +0.148 HD
ENDROOT
BRANCH   1  16
ATOM     16  C   UNL     1      -0.316   1.603  -0.054  0.00  0.00    +0.037 C 
BRANCH  16  18
ATOM     17  C   UNL     1      -1.908  -0.318   0.088  0.00  0.00    +0.007 C 
ATOM     18  C   UNL     1      -0.477   0.096  -0.265  0.00  0.00    -0.015 C 
ATOM     19  C   UNL     1      -0.193  -0.248  -1.728  0.00  0.00    +0.007 C 
ENDBRANCH  16  18
ENDBRANCH   1  16
TORSDOF 2
