REMARK  Name = ZINC51712623
REMARK  6 active torsions:
REMARK  status: ('A' for Active; 'I' for Inactive)
REMARK    1  A    between atoms: C_1  and  O_2
REMARK    2  A    between atoms: O_2  and  C_3
REMARK    3  A    between atoms: C_6  and  C_9
REMARK    4  A    between atoms: C_9  and  C_11
REMARK    5  A    between atoms: C_9  and  N_18
REMARK    6  A    between atoms: C_25  and  C_28
REMARK                            x       y       z     vdW  Elec       q    Type
REMARK                         _______ _______ _______ _____ _____    ______ ____
ROOT
ATOM      1  C   UNL     1       2.508  -2.505  -4.381  0.00  0.00    +0.135 C 
ENDROOT
BRANCH   1   2
ATOM      2  N   UNL     1       1.725  -3.675  -4.788  0.00  0.00    -0.288 N 
ATOM      3  C   UNL     1       1.800  -4.127  -6.056  0.00  0.00    +0.303 C 
ATOM      4  O   UNL     1       2.444  -3.513  -6.884  0.00  0.00    -0.253 OA
ATOM      5  N   UNL     1       1.159  -5.261  -6.405  0.00  0.00    -0.280 N 
ATOM      6  C   UNL     1       1.322  -5.839  -7.748  0.00  0.00    +0.137 C 
ATOM      7  C   UNL     1      -0.070  -6.112  -8.329  0.00  0.00    +0.180 C 
ATOM      8  O   UNL     1      -0.828  -6.884  -7.393  0.00  0.00    -0.364 OA
ATOM      9  C   UNL     1      -1.064  -6.224  -6.147  0.00  0.00    +0.221 C 
ATOM     10  C   UNL     1       0.281  -5.959  -5.453  0.00  0.00    +0.150 C 
ATOM     11  H   UNL     1       1.153  -4.123  -4.146  0.00  0.00    +0.151 HD
BRANCH   9  12
ATOM     12  C   UNL     1      -1.919  -7.100  -5.268  0.00  0.00    +0.241 C 
ATOM     13  O   UNL     1      -2.215  -8.219  -5.631  0.00  0.00    -0.273 OA
ATOM     14  N   UNL     1      -2.356  -6.640  -4.079  0.00  0.00    -0.327 N 
ATOM     15  H   UNL     1      -2.120  -5.745  -3.789  0.00  0.00    +0.145 HD
ATOM     16  H   UNL     1      -2.907  -7.204  -3.513  0.00  0.00    +0.145 HD
ENDBRANCH   9  12
ENDBRANCH   1   2
BRANCH   1  17
ATOM     17  C   UNL     1       3.897  -2.942  -3.991  0.00  0.00    -0.023 A 
ATOM     18  C   UNL     1       4.078  -4.111  -3.277  0.00  0.00    +0.008 A 
ATOM     19  C   UNL     1       5.351  -4.512  -2.919  0.00  0.00    +0.038 A 
ATOM     20  C   UNL     1       6.445  -3.742  -3.276  0.00  0.00    +0.123 A 
ATOM     21  C   UNL     1       6.262  -2.571  -3.991  0.00  0.00    +0.038 A 
ATOM     22  C   UNL     1       4.989  -2.175  -4.352  0.00  0.00    +0.008 A 
ATOM     23  F   UNL     1       7.690  -4.133  -2.926  0.00  0.00    -0.205 F 
ENDBRANCH   1  17
BRANCH   1  27
ATOM     24  C   UNL     1       0.618  -0.618  -1.046  0.00  0.00    +0.120 A 
ATOM     25  C   UNL     1       1.181   0.153  -2.053  0.00  0.00    +0.046 A 
ATOM     26  C   UNL     1       1.791  -0.460  -3.130  0.00  0.00    +0.009 A 
ATOM     27  C   UNL     1       1.842  -1.840  -3.205  0.00  0.00    -0.023 A 
ATOM     28  C   UNL     1       1.281  -2.610  -2.202  0.00  0.00    +0.009 A 
ATOM     29  C   UNL     1       0.674  -2.002  -1.120  0.00  0.00    +0.046 A 
BRANCH  24  31
ATOM     30  C   UNL     1      -0.004   1.411   0.026  0.00  0.00    +0.277 C 
ATOM     31  O   UNL     1       0.017  -0.017   0.015  0.00  0.00    -0.495 OA
ENDBRANCH  24  31
ENDBRANCH   1  27
TORSDOF 5
