REMARK  Name = ZINC46860815
REMARK  8 active torsions:
REMARK  status: ('A' for Active; 'I' for Inactive)
REMARK    1  A    between atoms: C_1  and  C_2
REMARK    2  A    between atoms: N_8  and  C_9
REMARK    3  A    between atoms: C_9  and  C_10
REMARK    4  A    between atoms: C_10  and  N_11
REMARK    5  A    between atoms: C_12  and  C_14
REMARK    6  A    between atoms: C_14  and  N_15
REMARK    7  A    between atoms: N_18  and  C_19
REMARK    8  A    between atoms: C_19  and  C_20
REMARK                            x       y       z     vdW  Elec       q    Type
REMARK                         _______ _______ _______ _____ _____    ______ ____
ROOT
ATOM      1  C   UNL     1       6.306   0.613   3.630  0.00  0.00    +0.201 C 
ENDROOT
BRANCH   1   2
ATOM      2  N   UNL     1       6.976   0.225   4.875  0.00  0.00    -0.291 N 
ATOM      3  C   UNL     1       8.235   0.639   5.120  0.00  0.00    +0.300 C 
ATOM      4  O   UNL     1       8.815   1.334   4.309  0.00  0.00    -0.253 OA
ATOM      5  N   UNL     1       8.850   0.283   6.265  0.00  0.00    -0.295 N 
ATOM      6  H   UNL     1       6.512  -0.329   5.522  0.00  0.00    +0.151 HD
ATOM      7  H   UNL     1       8.387  -0.271   6.912  0.00  0.00    +0.151 HD
BRANCH   5   8
ATOM      8  C   UNL     1      10.219   0.733   6.531  0.00  0.00    +0.141 C 
BRANCH   8   9
ATOM      9  C   UNL     1      10.671   0.201   7.867  0.00  0.00    -0.030 A 
ATOM     10  C   UNL     1      10.446   0.938   9.015  0.00  0.00    +0.008 A 
ATOM     11  C   UNL     1      10.860   0.451  10.241  0.00  0.00    +0.038 A 
ATOM     12  C   UNL     1      11.500  -0.774  10.319  0.00  0.00    +0.123 A 
ATOM     13  C   UNL     1      11.725  -1.511   9.168  0.00  0.00    +0.038 A 
ATOM     14  C   UNL     1      11.305  -1.025   7.944  0.00  0.00    +0.008 A 
ATOM     15  F   UNL     1      11.905  -1.251  11.516  0.00  0.00    -0.205 F 
ENDBRANCH   8   9
ENDBRANCH   5   8
ENDBRANCH   1   2
BRANCH   1  17
ATOM     16  N   UNL     1       4.113   0.250   2.546  0.00  0.00    -0.316 N 
ATOM     17  C   UNL     1       4.919   0.025   3.602  0.00  0.00    +0.230 C 
ATOM     18  O   UNL     1       4.528  -0.651   4.530  0.00  0.00    -0.274 OA
ATOM     19  H   UNL     1       4.426   0.791   1.803  0.00  0.00    +0.149 HD
BRANCH  16  20
ATOM     20  C   UNL     1       2.764  -0.321   2.518  0.00  0.00    +0.086 C 
BRANCH  20  21
ATOM     21  C   UNL     1       2.066   0.083   1.218  0.00  0.00    -0.059 C 
BRANCH  21  28
ATOM     22  C   UNL     1      -0.019   1.526   0.010  0.00  0.00    -0.013 C 
ATOM     23  C   UNL     1       0.002  -0.004   0.002  0.00  0.00    -0.072 C 
ATOM     24  C   UNL     1      -1.434  -0.533   0.011  0.00  0.00    -0.016 C 
ATOM     25  C   UNL     1      -1.408  -2.064   0.003  0.00  0.00    -0.003 C 
ATOM     26  C   UNL     1      -0.600  -2.558   1.206  0.00  0.00    -0.019 C 
ATOM     27  C   UNL     1       0.805  -1.954   1.152  0.00  0.00    -0.078 C 
ATOM     28  N   UNL     1       0.713  -0.490   1.191  0.00  0.00    +0.382 N 
ATOM     29  H   UNL     1       0.213  -0.206   2.020  0.00  0.00    -0.081 HD
ENDBRANCH  21  28
ENDBRANCH  20  21
ENDBRANCH  16  20
ENDBRANCH   1  17
TORSDOF 7
