REMARK  Name = ZINC61591424
REMARK  4 active torsions:
REMARK  status: ('A' for Active; 'I' for Inactive)
REMARK    1  A    between atoms: C_1  and  C_2
REMARK    2  A    between atoms: C_2  and  C_3
REMARK    3  A    between atoms: C_3  and  C_4
REMARK    4  A    between atoms: C_9  and  N_10
REMARK                            x       y       z     vdW  Elec       q    Type
REMARK                         _______ _______ _______ _____ _____    ______ ____
ROOT
ATOM      1  C   UNL     1       0.762  -2.018   1.233  0.00  0.00    -0.023 A 
ATOM      2  C   UNL     1      -0.204  -2.726   1.920  0.00  0.00    +0.005 A 
ATOM      3  C   UNL     1      -0.186  -4.109   1.913  0.00  0.00    +0.000 A 
ATOM      4  C   UNL     1       0.799  -4.786   1.219  0.00  0.00    +0.002 A 
ATOM      5  C   UNL     1       1.769  -4.084   0.531  0.00  0.00    +0.026 A 
ATOM      6  C   UNL     1       1.750  -2.695   0.531  0.00  0.00    +0.057 A 
ENDROOT
BRANCH   6   7
ATOM      7  N   UNL     1       2.729  -1.979  -0.172  0.00  0.00    -0.240 N 
ATOM      8  C   UNL     1       3.913  -1.582   0.328  0.00  0.00    +0.348 A 
ATOM      9  O   UNL     1       4.312  -1.783   1.459  0.00  0.00    -0.245 OA
ATOM     10  N   UNL     1       4.584  -0.924  -0.639  0.00  0.00    -0.249 N 
ATOM     11  H   UNL     1       5.465  -0.527  -0.562  0.00  0.00    +0.191 HD
ATOM     12  N   UNL     1       3.765  -0.923  -1.779  0.00  0.00    -0.275 N 
ATOM     13  C   UNL     1       2.635  -1.585  -1.455  0.00  0.00    +0.181 A 
ATOM     14  S   UNL     1       1.308  -1.871  -2.498  0.00  0.00    -0.011 S 
ATOM     15  H   UNL     1       3.974  -0.524  -2.638  0.00  0.00    +0.189 HD
ENDBRANCH   6   7
BRANCH   1  16
ATOM     16  C   UNL     1       0.742  -0.511   1.242  0.00  0.00    +0.037 C 
BRANCH  16  18
ATOM     17  C   UNL     1      -0.019   1.526   0.010  0.00  0.00    +0.004 C 
ATOM     18  C   UNL     1       0.002  -0.004   0.002  0.00  0.00    +0.001 C 
ENDBRANCH  16  18
ENDBRANCH   1  16
TORSDOF 3
