REMARK  Name = ZINC66769732
REMARK  4 active torsions:
REMARK  status: ('A' for Active; 'I' for Inactive)
REMARK    1  A    between atoms: C_1  and  C_2
REMARK    2  A    between atoms: C_5  and  N_26
REMARK    3  A    between atoms: C_7  and  C_8
REMARK    4  A    between atoms: C_14  and  C_16
REMARK                            x       y       z     vdW  Elec       q    Type
REMARK                         _______ _______ _______ _____ _____    ______ ____
ROOT
ATOM      1  C   UNL     1       0.141  -0.146   2.576  0.00  0.00    +0.247 C 
ATOM      2  O   UNL     1       0.015   1.059   2.675  0.00  0.00    -0.270 OA
ATOM      3  N   UNL     1       0.339  -0.896   3.678  0.00  0.00    -0.290 N 
ATOM      4  C   UNL     1       0.618  -2.343   3.694  0.00  0.00    +0.109 C 
ATOM      5  C   UNL     1       1.356  -2.590   5.034  0.00  0.00    +0.021 C 
ATOM      6  C   UNL     1       0.617  -1.608   5.982  0.00  0.00    +0.029 C 
ATOM      7  C   UNL     1       0.319  -0.404   5.064  0.00  0.00    +0.110 C 
ENDROOT
BRANCH   7   8
ATOM      8  C   UNL     1      -1.041   0.159   5.388  0.00  0.00    +0.018 A 
ATOM      9  C   UNL     1      -2.154  -0.283   4.696  0.00  0.00    +0.009 A 
ATOM     10  C   UNL     1      -3.402   0.232   4.991  0.00  0.00    +0.004 A 
ATOM     11  C   UNL     1      -3.543   1.190   5.977  0.00  0.00    +0.049 A 
ATOM     12  C   UNL     1      -2.431   1.638   6.673  0.00  0.00    +0.162 A 
ATOM     13  C   UNL     1      -1.176   1.115   6.383  0.00  0.00    +0.167 A 
ATOM     14  O   UNL     1      -0.073   1.531   7.063  0.00  0.00    -0.485 OA
ATOM     15  C   UNL     1      -0.192   2.757   7.793  0.00  0.00    +0.270 C 
ATOM     16  C   UNL     1      -1.510   2.722   8.580  0.00  0.00    +0.270 C 
ATOM     17  O   UNL     1      -2.584   2.585   7.639  0.00  0.00    -0.485 OA
ENDBRANCH   7   8
BRANCH   1  24
ATOM     18  C   UNL     1       1.562   1.032   0.348  0.00  0.00    +0.044 C 
ATOM     19  C   UNL     1       0.759  -0.230   0.164  0.00  0.00    -0.038 A 
ATOM     20  C   UNL     1       0.701  -0.838  -1.073  0.00  0.00    +0.006 A 
ATOM     21  C   UNL     1      -0.035  -1.997  -1.244  0.00  0.00    +0.033 A 
ATOM     22  C   UNL     1      -0.717  -2.554  -0.176  0.00  0.00    +0.127 A 
ATOM     23  C   UNL     1      -0.667  -1.956   1.066  0.00  0.00    +0.046 A 
ATOM     24  C   UNL     1       0.078  -0.789   1.246  0.00  0.00    +0.042 A 
BRANCH  22  25
ATOM     25  N   UNL     1      -1.503  -3.793  -0.367  0.00  0.00    +0.056 N 
ATOM     26  O   UNL     1      -1.549  -4.318  -1.456  0.00  0.00    -0.126 OA
ATOM     27  O   UNL     1      -2.100  -4.281   0.564  0.00  0.00    -0.126 OA
ENDBRANCH  22  25
ENDBRANCH   1  24
TORSDOF 3
