REMARK  Name = ZINC39843242
REMARK  6 active torsions:
REMARK  status: ('A' for Active; 'I' for Inactive)
REMARK    1  A    between atoms: C_1  and  C_2
REMARK    2  A    between atoms: C_5  and  C_8
REMARK    3  A    between atoms: C_8  and  C_10
REMARK    4  A    between atoms: C_10  and  C_11
REMARK    5  A    between atoms: N_17  and  N_18
REMARK    6  A    between atoms: C_22  and  C_29
REMARK                            x       y       z     vdW  Elec       q    Type
REMARK                         _______ _______ _______ _____ _____    ______ ____
ROOT
ATOM      1  C   UNL     1       0.093  -6.508   0.992  0.00  0.00    +0.147 C 
ATOM      2  C   UNL     1       0.083  -7.318   2.280  0.00  0.00    +0.232 C 
ATOM      3  O   UNL     1      -0.824  -7.283   3.083  0.00  0.00    -0.274 OA
ATOM      4  N   UNL     1       1.167  -8.065   2.435  0.00  0.00    -0.263 N 
ATOM      5  C   UNL     1       2.177  -8.089   1.517  0.00  0.00    +0.183 C 
ATOM      6  N   UNL     1       3.299  -8.800   1.577  0.00  0.00    -0.126 NA
ATOM      7  S   UNL     1       1.709  -7.035   0.292  0.00  0.00    -0.075 S 
ATOM      8  H   UNL     1       1.246  -8.615   3.231  0.00  0.00    +0.157 HD
ENDROOT
BRANCH   6   9
ATOM      9  N   UNL     1       3.520  -9.572   2.587  0.00  0.00    -0.142 NA
ATOM     10  C   UNL     1       4.636 -10.280   2.647  0.00  0.00    +0.157 C 
ATOM     11  C   UNL     1       5.053 -11.213   3.716  0.00  0.00    +0.029 A 
ATOM     12  C   UNL     1       4.464 -11.623   4.908  0.00  0.00    +0.015 A 
ATOM     13  C   UNL     1       5.116 -12.531   5.717  0.00  0.00    -0.050 A 
ATOM     14  C   UNL     1       6.352 -13.033   5.343  0.00  0.00    +0.005 A 
ATOM     15  C   UNL     1       6.945 -12.633   4.162  0.00  0.00    +0.024 A 
ATOM     16  C   UNL     1       6.303 -11.719   3.334  0.00  0.00    +0.043 A 
ATOM     17  N   UNL     1       6.669 -11.158   2.116  0.00  0.00    -0.280 N 
ATOM     18  C   UNL     1       5.727 -10.312   1.665  0.00  0.00    +0.269 C 
ATOM     19  O   UNL     1       5.772  -9.681   0.624  0.00  0.00    -0.268 OA
ATOM     20  C   UNL     1       4.483 -12.978   7.009  0.00  0.00    +0.044 C 
ATOM     21  H   UNL     1       7.496 -11.355   1.649  0.00  0.00    +0.155 HD
ENDBRANCH   6   9
BRANCH   1  22
ATOM     22  C   UNL     1       0.075  -5.006   1.280  0.00  0.00    +0.103 C 
BRANCH  22  23
ATOM     23  C   UNL     1       0.058  -4.245  -0.021  0.00  0.00    +0.165 C 
ATOM     24  O   UNL     1       0.060  -4.846  -1.075  0.00  0.00    -0.292 OA
BRANCH  23  29
ATOM     25  C   UNL     1      -0.018   1.503   0.010  0.00  0.00    +0.044 C 
ATOM     26  C   UNL     1       0.002  -0.004   0.002  0.00  0.00    -0.050 A 
ATOM     27  C   UNL     1       0.006  -0.686  -1.202  0.00  0.00    +0.004 A 
ATOM     28  C   UNL     1       0.024  -2.064  -1.218  0.00  0.00    +0.011 A 
ATOM     29  C   UNL     1       0.039  -2.774  -0.013  0.00  0.00    +0.017 A 
ATOM     30  C   UNL     1       0.036  -2.078   1.200  0.00  0.00    +0.011 A 
ATOM     31  C   UNL     1       0.023  -0.699   1.199  0.00  0.00    +0.004 A 
ENDBRANCH  23  29
ENDBRANCH  22  23
ENDBRANCH   1  22
TORSDOF 4
