REMARK  Name = ZINC37002377
REMARK  6 active torsions:
REMARK  status: ('A' for Active; 'I' for Inactive)
REMARK    1  A    between atoms: C_1  and  O_2
REMARK    2  A    between atoms: O_2  and  C_3
REMARK    3  A    between atoms: C_6  and  O_33
REMARK    4  A    between atoms: C_7  and  N_9
REMARK    5  A    between atoms: C_10  and  C_12
REMARK    6  A    between atoms: O_33  and  C_34
REMARK                            x       y       z     vdW  Elec       q    Type
REMARK                         _______ _______ _______ _____ _____    ______ ____
ROOT
ATOM      1  C   UNL     1      -1.675  -6.282   0.019  0.00  0.00    +0.169 C 
ATOM      2  C   UNL     1      -0.299  -6.955   0.077  0.00  0.00    +0.052 C 
ATOM      3  C   UNL     1       0.594  -6.349  -0.973  0.00  0.00    -0.001 A 
ATOM      4  C   UNL     1       1.208  -5.136  -0.709  0.00  0.00    +0.007 A 
ATOM      5  C   UNL     1       2.032  -4.551  -1.650  0.00  0.00    +0.001 A 
ATOM      6  C   UNL     1       2.248  -5.178  -2.865  0.00  0.00    +0.004 A 
ATOM      7  C   UNL     1       1.641  -6.387  -3.133  0.00  0.00    +0.046 A 
ATOM      8  C   UNL     1       0.812  -6.979  -2.186  0.00  0.00    +0.127 A 
ATOM      9  O   UNL     1       0.237  -8.174  -2.479  0.00  0.00    -0.468 OA
ATOM     10  C   UNL     1      -0.882  -8.587  -1.686  0.00  0.00    +0.181 C 
ATOM     11  C   UNL     1      -0.500  -8.456  -0.184  0.00  0.00    +0.061 C 
ATOM     12  C   UNL     1      -1.637  -8.954   0.712  0.00  0.00    +0.010 C 
ATOM     13  C   UNL     1      -1.935 -10.422   0.406  0.00  0.00    +0.001 C 
ATOM     14  C   UNL     1      -2.363 -10.553  -1.058  0.00  0.00    +0.006 C 
ATOM     15  C   UNL     1      -1.205 -10.045  -2.012  0.00  0.00    +0.069 C 
ATOM     16  N   UNL     1      -2.027  -7.736  -1.984  0.00  0.00    -0.277 N 
ATOM     17  C   UNL     1      -2.395  -6.707  -1.229  0.00  0.00    +0.228 C 
ATOM     18  O   UNL     1      -3.349  -6.053  -1.593  0.00  0.00    -0.275 OA
ATOM     19  H   UNL     1      -2.559  -7.944  -2.768  0.00  0.00    +0.152 HD
ENDROOT
BRANCH   1  21
ATOM     20  N   UNL     1      -1.361  -4.117   1.174  0.00  0.00    -0.282 N 
ATOM     21  C   UNL     1      -1.501  -4.785   0.011  0.00  0.00    +0.230 C 
ATOM     22  O   UNL     1      -1.487  -4.181  -1.040  0.00  0.00    -0.275 OA
ATOM     23  H   UNL     1      -1.292  -4.606   2.009  0.00  0.00    +0.155 HD
BRANCH  20  28
ATOM     24  C   UNL     1      -1.852  -0.616   0.146  0.00  0.00    +0.122 A 
ATOM     25  C   UNL     1      -1.222   0.055   1.184  0.00  0.00    +0.049 A 
ATOM     26  C   UNL     1      -0.639  -0.657   2.216  0.00  0.00    +0.051 A 
ATOM     27  C   UNL     1      -0.684  -2.041   2.217  0.00  0.00    +0.141 A 
ATOM     28  C   UNL     1      -1.316  -2.717   1.176  0.00  0.00    +0.079 A 
ATOM     29  C   UNL     1      -1.904  -2.001   0.144  0.00  0.00    +0.072 A 
BRANCH  24  31
ATOM     30  C   UNL     1      -2.334   1.512  -0.802  0.00  0.00    +0.277 C 
ATOM     31  O   UNL     1      -2.425   0.087  -0.868  0.00  0.00    -0.495 OA
ENDBRANCH  24  31
BRANCH  27  32
ATOM     32  O   UNL     1      -0.110  -2.740   3.233  0.00  0.00    -0.493 OA
ATOM     33  C   UNL     1       0.522  -1.982   4.267  0.00  0.00    +0.277 C 
ENDBRANCH  27  32
ENDBRANCH  20  28
ENDBRANCH   1  21
TORSDOF 4
