REMARK  Name = ZINC18212558
REMARK  4 active torsions:
REMARK  status: ('A' for Active; 'I' for Inactive)
REMARK    1  A    between atoms: C_1  and  C_2
REMARK    2  A    between atoms: C_2  and  C_4
REMARK    3  A    between atoms: C_2  and  N_14
REMARK    4  A    between atoms: C_15  and  C_17
REMARK                            x       y       z     vdW  Elec       q    Type
REMARK                         _______ _______ _______ _____ _____    ______ ____
ROOT
ATOM      1  C   UNL     1       1.759   2.239   1.434  0.00  0.00    +0.033 C 
ATOM      2  C   UNL     1       1.242   2.093   0.001  0.00  0.00    +0.100 C 
ENDROOT
BRANCH   2   3
ATOM      3  C   UNL     1       1.009   3.460  -0.590  0.00  0.00    -0.027 A 
ATOM      4  C   UNL     1      -0.145   4.158  -0.288  0.00  0.00    +0.006 A 
ATOM      5  C   UNL     1      -0.349   5.410  -0.830  0.00  0.00    +0.004 A 
ATOM      6  C   UNL     1       0.589   5.970  -1.687  0.00  0.00    -0.044 A 
ATOM      7  C   UNL     1       1.738   5.274  -1.989  0.00  0.00    -0.044 A 
ATOM      8  C   UNL     1       1.944   4.016  -1.438  0.00  0.00    +0.009 A 
ATOM      9  C   UNL     1       2.802   5.823  -2.902  0.00  0.00    +0.035 C 
ATOM     10  C   UNL     1       2.249   6.973  -3.742  0.00  0.00    +0.005 C 
ATOM     11  C   UNL     1       1.569   7.975  -2.801  0.00  0.00    +0.005 C 
ATOM     12  C   UNL     1       0.295   7.334  -2.255  0.00  0.00    +0.035 C 
ENDBRANCH   2   3
BRANCH   2  13
ATOM     13  N   UNL     1      -0.016   1.344   0.009  0.00  0.00    -0.302 N 
ATOM     14  C   UNL     1       0.002  -0.004   0.002  0.00  0.00    +0.280 C 
ATOM     15  O   UNL     1       1.064  -0.598  -0.011  0.00  0.00    -0.267 OA
ATOM     16  H   UNL     1      -0.863   1.817   0.016  0.00  0.00    +0.150 HD
BRANCH  14  17
ATOM     17  C   UNL     1      -1.257  -0.754   0.010  0.00  0.00    +0.191 A 
ATOM     18  C   UNL     1      -1.381  -2.114   0.004  0.00  0.00    +0.056 A 
ATOM     19  C   UNL     1      -2.755  -2.395   0.015  0.00  0.00    +0.058 A 
ATOM     20  C   UNL     1      -3.404  -1.207   0.028  0.00  0.00    +0.171 A 
ATOM     21  O   UNL     1      -2.497  -0.222   0.031  0.00  0.00    -0.444 OA
ATOM     22 BR   UNL     1      -5.281  -0.978   0.047  0.00  0.00    -0.008 Br
ENDBRANCH  14  17
ENDBRANCH   2  13
TORSDOF 3
