REMARK  Name = ZINC63768413
REMARK  4 active torsions:
REMARK  status: ('A' for Active; 'I' for Inactive)
REMARK    1  A    between atoms: C_1  and  C_2
REMARK    2  A    between atoms: C_5  and  C_23
REMARK    3  A    between atoms: C_8  and  C_10
REMARK    4  A    between atoms: C_16  and  C_18
REMARK                            x       y       z     vdW  Elec       q    Type
REMARK                         _______ _______ _______ _____ _____    ______ ____
ROOT
ATOM      1  C   UNL     1      -1.442   1.552   0.772  0.00  0.00    +0.028 C 
ATOM      2  C   UNL     1      -1.003   0.131   0.412  0.00  0.00    +0.073 C 
ATOM      3  C   UNL     1      -0.403   0.121  -0.998  0.00  0.00    +0.023 C 
ATOM      4  C   UNL     1       0.160  -1.270  -1.298  0.00  0.00    +0.016 C 
ATOM      5  C   UNL     1       1.271  -1.600  -0.298  0.00  0.00    +0.092 C 
ATOM      6  C   UNL     1       0.690  -1.610   1.119  0.00  0.00    +0.120 C 
ATOM      7  N   UNL     1       0.019  -0.326   1.364  0.00  0.00    -0.298 N 
ATOM      8  C   UNL     1       0.335   0.420   2.442  0.00  0.00    +0.219 C 
ATOM      9  O   UNL     1      -0.306   1.417   2.699  0.00  0.00    -0.275 OA
ENDROOT
BRANCH   8  10
ATOM     10  C   UNL     1       1.485   0.015   3.327  0.00  0.00    +0.078 C 
ATOM     11  C   UNL     1       1.131  -1.281   4.061  0.00  0.00    +0.032 C 
ATOM     12  C   UNL     1       2.316  -1.708   4.934  0.00  0.00    +0.109 C 
ATOM     13  N   UNL     1       2.679  -0.593   5.819  0.00  0.00    -0.295 N 
ATOM     14  C   UNL     1       2.951   0.722   5.222  0.00  0.00    +0.109 C 
ATOM     15  C   UNL     1       1.759   1.123   4.346  0.00  0.00    +0.032 C 
ATOM     16  C   UNL     1       2.760  -0.772   7.152  0.00  0.00    +0.282 C 
ATOM     17  O   UNL     1       2.412  -1.828   7.646  0.00  0.00    -0.267 OA
BRANCH  16  18
ATOM     18  C   UNL     1       3.268   0.306   8.007  0.00  0.00    +0.189 A 
ATOM     19  C   UNL     1       3.275   0.311   9.373  0.00  0.00    +0.054 A 
ATOM     20  C   UNL     1       3.848   1.529   9.769  0.00  0.00    +0.042 A 
ATOM     21  C   UNL     1       4.162   2.206   8.642  0.00  0.00    +0.196 A 
ATOM     22  O   UNL     1       3.816   1.463   7.583  0.00  0.00    -0.458 OA
ENDBRANCH  16  18
ENDBRANCH   8  10
BRANCH   5  23
ATOM     23  C   UNL     1       2.356  -0.559  -0.390  0.00  0.00    +0.215 C 
ATOM     24  O   UNL     1       2.640   0.108   0.582  0.00  0.00    -0.276 OA
ATOM     25  N   UNL     1       3.011  -0.369  -1.552  0.00  0.00    -0.329 N 
ATOM     26  H   UNL     1       2.784  -0.902  -2.330  0.00  0.00    +0.145 HD
ATOM     27  H   UNL     1       3.710   0.301  -1.611  0.00  0.00    +0.145 HD
ENDBRANCH   5  23
TORSDOF 3
