REMARK  Name = ZINC00447394
REMARK  5 active torsions:
REMARK  status: ('A' for Active; 'I' for Inactive)
REMARK    1  A    between atoms: C_1  and  C_2
REMARK    2  A    between atoms: C_4  and  C_15
REMARK    3  A    between atoms: C_5  and  C_14
REMARK    4  A    between atoms: N_6  and  C_7
REMARK    5  A    between atoms: N_16  and  N_17
REMARK                            x       y       z     vdW  Elec       q    Type
REMARK                         _______ _______ _______ _____ _____    ______ ____
ROOT
ATOM      1  C   UNL     1       1.806  -1.789  -0.024  0.00  0.00    +0.064 C 
ATOM      2  C   UNL     1       1.297  -0.371  -0.012  0.00  0.00    +0.022 A 
ATOM      3  C   UNL     1       0.002  -0.004   0.002  0.00  0.00    +0.032 A 
ATOM      4  C   UNL     1      -0.018   1.462   0.010  0.00  0.00    +0.016 A 
ATOM      5  C   UNL     1       1.287   1.862  -0.000  0.00  0.00    +0.030 A 
ATOM      6  N   UNL     1       2.074   0.752  -0.014  0.00  0.00    -0.317 N 
ATOM      7  C   UNL     1       1.773   3.289   0.003  0.00  0.00    +0.064 C 
ENDROOT
BRANCH   6   8
ATOM      8  C   UNL     1       3.476   0.759  -0.028  0.00  0.00    +0.047 A 
ATOM      9  C   UNL     1       4.179   1.271   1.055  0.00  0.00    +0.027 A 
ATOM     10  C   UNL     1       5.560   1.273   1.041  0.00  0.00    +0.022 A 
ATOM     11  C   UNL     1       6.243   0.775  -0.055  0.00  0.00    +0.041 A 
ATOM     12  C   UNL     1       5.544   0.270  -1.137  0.00  0.00    +0.022 A 
ATOM     13  C   UNL     1       4.163   0.261  -1.126  0.00  0.00    +0.027 A 
ATOM     14 CL   UNL     1       7.979   0.785  -0.072  0.00  0.00    -0.084 Cl
ENDBRANCH   6   8
BRANCH   4  15
ATOM     15  C   UNL     1      -1.210   2.330   0.021  0.00  0.00    +0.140 C 
ATOM     16  N   UNL     1      -1.072   3.620   0.027  0.00  0.00    -0.186 NA
BRANCH  16  17
ATOM     17  N   UNL     1      -2.204   4.445   0.037  0.00  0.00    -0.191 N 
ATOM     18  C   UNL     1      -2.062   5.785   0.043  0.00  0.00    +0.317 C 
ATOM     19  O   UNL     1      -3.045   6.501   0.052  0.00  0.00    -0.251 OA
ATOM     20  N   UNL     1      -0.830   6.332   0.039  0.00  0.00    -0.312 N 
ATOM     21  H   UNL     1      -3.091   4.052   0.039  0.00  0.00    +0.179 HD
ATOM     22  H   UNL     1      -0.046   5.761   0.032  0.00  0.00    +0.147 HD
ATOM     23  H   UNL     1      -0.727   7.296   0.043  0.00  0.00    +0.147 HD
ENDBRANCH  16  17
ENDBRANCH   4  15
TORSDOF 3
