REMARK  Name = ZINC36354838
REMARK  4 active torsions:
REMARK  status: ('A' for Active; 'I' for Inactive)
REMARK    1  A    between atoms: C_3  and  N_8
REMARK    2  A    between atoms: C_14  and  O_26
REMARK    3  A    between atoms: C_16  and  C_18
REMARK    4  A    between atoms: C_21  and  C_24
REMARK                            x       y       z     vdW  Elec       q    Type
REMARK                         _______ _______ _______ _____ _____    ______ ____
ROOT
ATOM      1  N   UNL     1       3.586   2.127  -0.021  0.00  0.00    -0.283 N 
ATOM      2  C   UNL     1       3.915   3.157  -0.855  0.00  0.00    +0.206 A 
ATOM      3  N   UNL     1       5.123   3.571  -0.563  0.00  0.00    -0.237 NA
ATOM      4  C   UNL     1       5.608   2.848   0.438  0.00  0.00    +0.094 A 
ATOM      5  C   UNL     1       4.653   1.934   0.806  0.00  0.00    +0.165 A 
ATOM      6  N   UNL     1       4.854   1.053   1.828  0.00  0.00    -0.197 NA
ATOM      7  C   UNL     1       6.065   0.853   2.257  0.00  0.00    +0.190 C 
ATOM      8  C   UNL     1       7.271   1.518   1.661  0.00  0.00    +0.110 C 
ATOM      9  C   UNL     1       6.943   2.916   1.137  0.00  0.00    +0.080 C 
ENDROOT
BRANCH   1  12
ATOM     10  C   UNL     1      -0.017   1.378   0.010  0.00  0.00    +0.003 A 
ATOM     11  C   UNL     1       1.169   2.087   0.002  0.00  0.00    +0.026 A 
ATOM     12  C   UNL     1       2.381   1.410  -0.013  0.00  0.00    +0.051 A 
ATOM     13  C   UNL     1       2.398   0.022  -0.021  0.00  0.00    +0.046 A 
ATOM     14  C   UNL     1       1.209  -0.682  -0.013  0.00  0.00    +0.043 A 
ATOM     15  C   UNL     1       0.002  -0.004   0.002  0.00  0.00    +0.020 A 
ATOM     16 CL   UNL     1       1.228  -2.418  -0.023  0.00  0.00    -0.083 Cl
ENDBRANCH   1  12
BRANCH   9  17
ATOM     17  C   UNL     1       6.864   3.876   2.296  0.00  0.00    -0.038 A 
ATOM     18  C   UNL     1       5.969   3.640   3.325  0.00  0.00    +0.005 A 
ATOM     19  C   UNL     1       5.892   4.514   4.389  0.00  0.00    +0.019 A 
ATOM     20  C   UNL     1       6.720   5.638   4.427  0.00  0.00    +0.052 A 
ATOM     21  C   UNL     1       7.621   5.869   3.386  0.00  0.00    +0.019 A 
ATOM     22  C   UNL     1       7.691   4.984   2.330  0.00  0.00    +0.005 A 
BRANCH  20  23
ATOM     23  C   UNL     1       6.645   6.550   5.529  0.00  0.00    +0.099 C 
ATOM     24  N   UNL     1       6.585   7.273   6.403  0.00  0.00    -0.191 NA
ENDBRANCH  20  23
ENDBRANCH   9  17
BRANCH   7  25
ATOM     25  O   UNL     1       6.247   0.005   3.292  0.00  0.00    -0.495 OA
ATOM     26  H   UNL     1       5.429  -0.387   3.627  0.00  0.00    +0.293 HD
ENDBRANCH   7  25
TORSDOF 4
