REMARK  Name = ZINC08790604
REMARK  8 active torsions:
REMARK  status: ('A' for Active; 'I' for Inactive)
REMARK    1  A    between atoms: C_1  and  C_2
REMARK    2  A    between atoms: C_2  and  C_3
REMARK    3  A    between atoms: C_14  and  C_16
REMARK    4  A    between atoms: C_16  and  C_17
REMARK    5  A    between atoms: C_17  and  C_18
REMARK    6  A    between atoms: N_22  and  C_25
REMARK    7  A    between atoms: C_25  and  C_26
REMARK    8  A    between atoms: C_26  and  C_27
REMARK                            x       y       z     vdW  Elec       q    Type
REMARK                         _______ _______ _______ _____ _____    ______ ____
ROOT
ATOM      1  C   UNL     1       6.191   5.578  -1.073  0.00  0.00    -0.047 A 
ATOM      2  C   UNL     1       6.808   6.394  -0.143  0.00  0.00    +0.005 A 
ATOM      3  C   UNL     1       6.943   5.981   1.166  0.00  0.00    +0.024 A 
ATOM      4  C   UNL     1       6.459   4.736   1.561  0.00  0.00    +0.036 A 
ATOM      5  C   UNL     1       5.839   3.923   0.616  0.00  0.00    -0.027 A 
ATOM      6  C   UNL     1       5.707   4.340  -0.690  0.00  0.00    +0.008 A 
ATOM      7  C   UNL     1       5.436   2.675   1.349  0.00  0.00    +0.050 C 
ATOM      8  C   UNL     1       6.079   1.426   0.735  0.00  0.00    +0.088 C 
ATOM      9  C   UNL     1       4.969   0.817  -0.167  0.00  0.00    +0.073 C 
ATOM     10  C   UNL     1       3.771   1.780  -0.024  0.00  0.00    -0.057 C 
ATOM     11  C   UNL     1       5.544   0.943  -1.560  0.00  0.00    +0.224 C 
ATOM     12  O   UNL     1       4.997   0.580  -2.579  0.00  0.00    -0.275 OA
ATOM     13  N   UNL     1       6.750   1.519  -1.493  0.00  0.00    -0.241 N 
ATOM     14  C   UNL     1       7.147   1.833  -0.255  0.00  0.00    +0.225 C 
ATOM     15  O   UNL     1       8.200   2.362   0.030  0.00  0.00    -0.275 OA
ATOM     16  C   UNL     1       5.895   2.888   2.766  0.00  0.00    +0.211 C 
ATOM     17  O   UNL     1       5.766   2.117   3.693  0.00  0.00    -0.277 OA
ATOM     18  N   UNL     1       6.476   4.103   2.806  0.00  0.00    -0.286 N 
ATOM     19  H   UNL     1       6.862   4.493   3.606  0.00  0.00    +0.155 HD
ATOM     20  N   UNL     1       4.004   2.446   1.259  0.00  0.00    +0.394 N 
ATOM     21  H   UNL     1       3.500   3.340   1.292  0.00  0.00    -0.083 HD
ATOM     22  H   UNL     1       3.691   1.848   2.032  0.00  0.00    -0.083 HD
ENDROOT
BRANCH   1  24
ATOM     23  C   UNL     1       4.725   6.788  -2.666  0.00  0.00    +0.009 C 
ATOM     24  C   UNL     1       6.047   6.036  -2.502  0.00  0.00    +0.032 C 
ENDBRANCH   1  24
BRANCH  10  25
ATOM     25  C   UNL     1       2.457   0.997  -0.016  0.00  0.00    -0.004 C 
BRANCH  25  26
ATOM     26  C   UNL     1       1.280   1.975   0.000  0.00  0.00    +0.123 C 
BRANCH  26  27
ATOM     27  C   UNL     1      -0.014   1.204   0.009  0.00  0.00    +0.356 C 
ATOM     28  O   UNL     1       0.002  -0.004   0.002  0.00  0.00    -0.246 OA
ATOM     29  O   UNL     1      -1.186   1.859   0.018  0.00  0.00    -0.246 OA
ENDBRANCH  26  27
ENDBRANCH  25  26
ENDBRANCH  10  25
BRANCH  13  30
ATOM     30  C   UNL     1       7.568   1.784  -2.679  0.00  0.00    +0.121 C 
BRANCH  30  31
ATOM     31  C   UNL     1       7.240   3.175  -3.224  0.00  0.00    +0.054 C 
BRANCH  31  32
ATOM     32  C   UNL     1       8.081   3.448  -4.444  0.00  0.00    -0.046 A 
ATOM     33  C   UNL     1       9.318   4.052  -4.310  0.00  0.00    +0.004 A 
ATOM     34  C   UNL     1      10.092   4.298  -5.429  0.00  0.00    +0.000 A 
ATOM     35  C   UNL     1       9.625   3.950  -6.682  0.00  0.00    +0.000 A 
ATOM     36  C   UNL     1       8.387   3.351  -6.817  0.00  0.00    +0.000 A 
ATOM     37  C   UNL     1       7.615   3.100  -5.698  0.00  0.00    +0.004 A 
ENDBRANCH  31  32
ENDBRANCH  30  31
ENDBRANCH  13  30
TORSDOF 7
