REMARK  Name = ZINC09335371
REMARK  4 active torsions:
REMARK  status: ('A' for Active; 'I' for Inactive)
REMARK    1  A    between atoms: C_6  and  N_7
REMARK    2  A    between atoms: C_8  and  S_12
REMARK    3  A    between atoms: S_12  and  C_13
REMARK    4  A    between atoms: C_13  and  C_14
REMARK                            x       y       z     vdW  Elec       q    Type
REMARK                         _______ _______ _______ _____ _____    ______ ____
ROOT
ATOM      1  N   UNL     1       9.234   0.865  -2.441  0.00  0.00    -0.187 N 
ATOM      2  C   UNL     1       8.268   0.855  -1.489  0.00  0.00    +0.214 A 
ATOM      3  N   UNL     1       8.877   0.855  -0.322  0.00  0.00    -0.101 NA
ATOM      4  N   UNL     1      10.151   0.868  -0.480  0.00  0.00    -0.022 NA
ATOM      5  N   UNL     1      10.449   0.878  -1.734  0.00  0.00    -0.038 NA
ENDROOT
BRANCH   1  11
ATOM      6  C   UNL     1       8.004   0.161  -4.400  0.00  0.00    +0.029 A 
ATOM      7  C   UNL     1       7.830   0.166  -5.770  0.00  0.00    +0.022 A 
ATOM      8  C   UNL     1       8.712   0.862  -6.578  0.00  0.00    +0.041 A 
ATOM      9  C   UNL     1       9.766   1.560  -6.015  0.00  0.00    +0.022 A 
ATOM     10  C   UNL     1       9.941   1.562  -4.645  0.00  0.00    +0.029 A 
ATOM     11  C   UNL     1       9.058   0.864  -3.833  0.00  0.00    +0.070 A 
ATOM     12 CL   UNL     1       8.495   0.861  -8.301  0.00  0.00    -0.084 Cl
ENDBRANCH   1  11
BRANCH   2  13
ATOM     13  S   UNL     1       6.527   0.839  -1.762  0.00  0.00    -0.078 S 
BRANCH  13  14
ATOM     14  C   UNL     1       5.940   0.824  -0.050  0.00  0.00    +0.134 C 
BRANCH  14  15
ATOM     15  C   UNL     1       4.434   0.808  -0.035  0.00  0.00    +0.070 A 
ATOM     16  C   UNL     1       3.634   1.897  -0.022  0.00  0.00    +0.116 A 
ATOM     17  N   UNL     1       2.341   1.450  -0.013  0.00  0.00    -0.305 N 
ATOM     18  C   UNL     1       1.140   2.098   0.002  0.00  0.00    +0.108 A 
ATOM     19  C   UNL     1      -0.017   1.401   0.010  0.00  0.00    +0.034 A 
ATOM     20  C   UNL     1       0.002  -0.004   0.002  0.00  0.00    +0.020 A 
ATOM     21  C   UNL     1       1.193  -0.662  -0.013  0.00  0.00    +0.048 A 
ATOM     22  C   UNL     1       2.391   0.080  -0.020  0.00  0.00    +0.138 A 
ATOM     23  N   UNL     1       3.666  -0.284  -0.034  0.00  0.00    -0.232 NA
ATOM     24 BR   UNL     1      -1.669   2.320   0.022  0.00  0.00    -0.049 Br
ENDBRANCH  14  15
ENDBRANCH  13  14
ENDBRANCH   2  13
TORSDOF 4
