REMARK  Name = ZINC00336486
REMARK  5 active torsions:
REMARK  status: ('A' for Active; 'I' for Inactive)
REMARK    1  A    between atoms: C_1  and  C_2
REMARK    2  A    between atoms: C_5  and  N_8
REMARK    3  A    between atoms: C_9  and  C_18
REMARK    4  A    between atoms: C_10  and  O_17
REMARK    5  A    between atoms: C_11  and  C_13
REMARK                            x       y       z     vdW  Elec       q    Type
REMARK                         _______ _______ _______ _____ _____    ______ ____
ROOT
ATOM      1  N   UNL     1      -0.157  -2.084   0.649  0.00  0.00    -0.233 N 
ATOM      2  C   UNL     1      -0.034  -0.802   1.091  0.00  0.00    +0.084 A 
ATOM      3  C   UNL     1       0.161  -0.013   0.005  0.00  0.00    +0.170 A 
ATOM      4  C   UNL     1       0.150  -0.833  -1.131  0.00  0.00    +0.207 A 
ATOM      5  N   UNL     1      -0.034  -2.071  -0.746  0.00  0.00    -0.158 NA
ATOM      6  C   UNL     1      -0.101  -0.343   2.525  0.00  0.00    +0.069 C 
ENDROOT
BRANCH   1  11
ATOM      7  C   UNL     1      -1.016  -6.665   3.887  0.00  0.00    +0.044 C 
ATOM      8  C   UNL     1      -0.788  -5.449   3.027  0.00  0.00    -0.050 A 
ATOM      9  C   UNL     1      -1.475  -4.278   3.292  0.00  0.00    +0.005 A 
ATOM     10  C   UNL     1      -1.268  -3.162   2.506  0.00  0.00    +0.028 A 
ATOM     11  C   UNL     1      -0.369  -3.215   1.449  0.00  0.00    +0.066 A 
ATOM     12  C   UNL     1       0.315  -4.394   1.182  0.00  0.00    +0.028 A 
ATOM     13  C   UNL     1       0.107  -5.506   1.975  0.00  0.00    +0.005 A 
ENDBRANCH   1  11
BRANCH   4  14
ATOM     14  C   UNL     1       0.324  -0.370  -2.555  0.00  0.00    +0.439 C 
ATOM     15  F   UNL     1       1.682  -0.391  -2.889  0.00  0.00    -0.164 F 
ATOM     16  F   UNL     1      -0.380  -1.222  -3.412  0.00  0.00    -0.164 F 
ATOM     17  F   UNL     1      -0.168   0.933  -2.684  0.00  0.00    -0.164 F 
ENDBRANCH   4  14
BRANCH   3  18
ATOM     18  O   UNL     1       0.330   1.339   0.017  0.00  0.00    -0.503 OA
ATOM     19  H   UNL     1       1.253   1.619   0.096  0.00  0.00    +0.292 HD
ENDBRANCH   3  18
TORSDOF 3
