REMARK  Name = ZINC25667338
REMARK  3 active torsions:
REMARK  status: ('A' for Active; 'I' for Inactive)
REMARK    1  A    between atoms: N_9  and  C_13
REMARK    2  A    between atoms: C_13  and  C_14
REMARK    3  A    between atoms: C_16  and  C_19
REMARK                            x       y       z     vdW  Elec       q    Type
REMARK                         _______ _______ _______ _____ _____    ______ ____
ROOT
ATOM      1  C   UNL     1      -2.066   7.639   1.480  0.00  0.00    +0.098 A 
ATOM      2  N   UNL     1      -1.119   8.241   2.161  0.00  0.00    -0.247 NA
ATOM      3  C   UNL     1      -1.308   8.630   3.404  0.00  0.00    +0.055 A 
ATOM      4  C   UNL     1      -2.512   8.385   3.981  0.00  0.00    +0.070 A 
ATOM      5  S   UNL     1      -3.361   7.571   2.635  0.00  0.00    -0.079 S 
ENDROOT
BRANCH   3   6
ATOM      6  C   UNL     1      -0.212   9.325   4.171  0.00  0.00    +0.014 C 
ATOM      7  C   UNL     1      -0.111   8.724   5.574  0.00  0.00    +0.016 C 
ATOM      8  C   UNL     1       1.001   9.430   6.352  0.00  0.00    -0.010 C 
ATOM      9  C   UNL     1       2.332   9.245   5.621  0.00  0.00    +0.007 C 
ATOM     10  C   UNL     1       2.231   9.846   4.218  0.00  0.00    -0.010 C 
ATOM     11  C   UNL     1       1.119   9.140   3.439  0.00  0.00    +0.016 C 
ATOM     12  C   UNL     1       1.911  11.338   4.324  0.00  0.00    +0.007 C 
ATOM     13  C   UNL     1       0.580  11.524   5.056  0.00  0.00    -0.010 C 
ATOM     14  C   UNL     1       0.681  10.922   6.459  0.00  0.00    +0.007 C 
ATOM     15  C   UNL     1      -0.532  10.818   4.277  0.00  0.00    +0.016 C 
ENDBRANCH   3   6
BRANCH   1  16
ATOM     16  C   UNL     1      -2.036   7.132   0.061  0.00  0.00    +0.197 C 
BRANCH  16  25
ATOM     17  C   UNL     1       1.173   1.789   0.001  0.00  0.00    +0.001 A 
ATOM     18  C   UNL     1      -0.013   1.076   0.008  0.00  0.00    +0.002 A 
ATOM     19  C   UNL     1      -1.220   1.758   0.017  0.00  0.00    +0.029 A 
ATOM     20  C   UNL     1      -1.226   3.124   0.031  0.00  0.00    +0.121 A 
ATOM     21  C   UNL     1      -0.042   3.873   0.023  0.00  0.00    +0.065 A 
ATOM     22  C   UNL     1       1.172   3.165   0.008  0.00  0.00    +0.015 A 
ATOM     23  C   UNL     1      -0.291   5.321   0.034  0.00  0.00    +0.268 C 
ATOM     24  O   UNL     1       0.631   6.113   0.029  0.00  0.00    -0.268 OA
ATOM     25  N   UNL     1      -1.564   5.745   0.048  0.00  0.00    -0.161 N 
ATOM     26  S   UNL     1      -2.498   4.358   0.050  0.00  0.00    +0.078 S 
ATOM     27  O   UNL     1      -3.180   4.294  -1.196  0.00  0.00    -0.150 OA
ATOM     28  O   UNL     1      -3.156   4.280   1.307  0.00  0.00    -0.150 OA
ENDBRANCH  16  25
ENDBRANCH   1  16
TORSDOF 3
