REMARK  Name = ZINC38974741
REMARK  3 active torsions:
REMARK  status: ('A' for Active; 'I' for Inactive)
REMARK    1  A    between atoms: C_3  and  C_9
REMARK    2  A    between atoms: N_10  and  N_11
REMARK    3  A    between atoms: C_12  and  C_18
REMARK                            x       y       z     vdW  Elec       q    Type
REMARK                         _______ _______ _______ _____ _____    ______ ____
ROOT
ATOM      1  N   UNL     1       5.987   2.239   0.062  0.00  0.00    -0.175 N 
ATOM      2  C   UNL     1       7.348   1.676   0.055  0.00  0.00    +0.230 C 
ATOM      3  N   UNL     1       8.220   2.857   0.183  0.00  0.00    -0.242 N 
ATOM      4  N   UNL     1       7.366   3.965   0.252  0.00  0.00    -0.160 NA
ATOM      5  C   UNL     1       6.127   3.612   0.178  0.00  0.00    +0.206 C 
ATOM      6  S   UNL     1       4.775   4.741   0.224  0.00  0.00    -0.011 SA
ATOM      7  H   UNL     1       9.189   2.865   0.213  0.00  0.00    +0.170 HD
ENDROOT
BRANCH   2   8
ATOM      8  C   UNL     1       7.544   0.730   1.241  0.00  0.00    +0.197 C 
ATOM      9  C   UNL     1       8.961   0.196   1.274  0.00  0.00    -0.017 C 
ATOM     10  C   UNL     1       9.461   0.631   2.429  0.00  0.00    +0.065 C 
ATOM     11  C   UNL     1      10.895   0.157   2.581  0.00  0.00    +0.057 C 
ATOM     12  C   UNL     1      11.053  -0.984   1.552  0.00  0.00    +0.011 C 
ATOM     13  C   UNL     1       9.974  -0.616   0.509  0.00  0.00    +0.035 C 
ATOM     14  N   UNL     1       8.523   1.357   3.096  0.00  0.00    -0.158 NA
ATOM     15  N   UNL     1       7.437   1.461   2.515  0.00  0.00    -0.176 NA
ENDBRANCH   2   8
BRANCH   1  17
ATOM     16  C   UNL     1       4.807   0.243  -0.247  0.00  0.00    +0.140 C 
ATOM     17  N   UNL     1       4.786   1.524  -0.036  0.00  0.00    -0.184 NA
BRANCH  16  20
ATOM     18  C   UNL     1       2.389  -2.619  -0.452  0.00  0.00    +0.021 A 
ATOM     19  C   UNL     1       3.569  -1.905  -0.463  0.00  0.00    +0.012 A 
ATOM     20  C   UNL     1       3.550  -0.526  -0.236  0.00  0.00    +0.013 A 
ATOM     21  C   UNL     1       2.332   0.120   0.001  0.00  0.00    +0.051 A 
ATOM     22  C   UNL     1       1.160  -0.608   0.010  0.00  0.00    +0.040 A 
ATOM     23  C   UNL     1       1.187  -1.974  -0.216  0.00  0.00    +0.042 A 
ATOM     24 CL   UNL     1      -0.293  -2.881  -0.203  0.00  0.00    -0.083 Cl
ATOM     25 CL   UNL     1       2.297   1.832   0.284  0.00  0.00    -0.083 Cl
ENDBRANCH  16  20
ENDBRANCH   1  17
TORSDOF 3
