REMARK  Name = ZINC50331455
REMARK  7 active torsions:
REMARK  status: ('A' for Active; 'I' for Inactive)
REMARK    1  A    between atoms: C_1  and  C_2
REMARK    2  A    between atoms: C_2  and  C_3
REMARK    3  A    between atoms: C_3  and  N_4
REMARK    4  A    between atoms: N_4  and  C_5
REMARK    5  A    between atoms: C_8  and  C_21
REMARK    6  A    between atoms: C_8  and  C_22
REMARK    7  A    between atoms: C_13  and  C_15
REMARK                            x       y       z     vdW  Elec       q    Type
REMARK                         _______ _______ _______ _____ _____    ______ ____
ROOT
ATOM      1  C   UNL     1       1.443  -2.545  -2.417  0.00  0.00    -0.032 C 
ATOM      2  C   UNL     1       1.255  -4.071  -2.426  0.00  0.00    -0.004 C 
ATOM      3  C   UNL     1       2.248  -4.681  -3.419  0.00  0.00    -0.031 C 
ATOM      4  C   UNL     1       3.672  -4.569  -2.875  0.00  0.00    +0.062 C 
ATOM      5  C   UNL     1       3.944  -3.114  -2.503  0.00  0.00    +0.051 A 
ATOM      6  C   UNL     1       2.901  -2.254  -2.312  0.00  0.00    -0.001 A 
ATOM      7  S   UNL     1       3.717  -0.730  -1.914  0.00  0.00    -0.072 S 
ATOM      8  C   UNL     1       5.389  -1.358  -2.032  0.00  0.00    +0.128 A 
ATOM      9  N   UNL     1       5.165  -2.624  -2.352  0.00  0.00    -0.242 NA
ATOM     10  C   UNL     1       2.154  -3.937  -4.752  0.00  0.00    +0.011 C 
ATOM     11  C   UNL     1       1.903  -6.155  -3.639  0.00  0.00    +0.011 C 
ENDROOT
BRANCH   8  12
ATOM     12  C   UNL     1       6.673  -0.654  -1.827  0.00  0.00    +0.114 A 
ATOM     13  C   UNL     1       7.880  -1.340  -1.976  0.00  0.00    +0.141 A 
ATOM     14  N   UNL     1       9.023  -0.706  -1.792  0.00  0.00    -0.260 NA
ATOM     15  C   UNL     1       9.025   0.576  -1.467  0.00  0.00    +0.130 A 
ATOM     16  C   UNL     1       7.831   1.260  -1.317  0.00  0.00    +0.131 A 
ATOM     17  N   UNL     1       6.682   0.637  -1.504  0.00  0.00    -0.250 NA
ENDBRANCH   8  12
BRANCH   1  18
ATOM     18  N   UNL     1       0.738  -1.966  -1.265  0.00  0.00    +0.384 N 
ATOM     19  H   UNL     1       0.955  -0.983  -1.198  0.00  0.00    -0.085 HD
ATOM     20  H   UNL     1       1.033  -2.434  -0.421  0.00  0.00    -0.085 HD
BRANCH  18  21
ATOM     21  C   UNL     1      -0.710  -2.138  -1.440  0.00  0.00    -0.082 C 
BRANCH  21  23
ATOM     22  C   UNL     1      -2.958  -1.602  -0.489  0.00  0.00    +0.002 C 
ATOM     23  C   UNL     1      -1.449  -1.423  -0.307  0.00  0.00    -0.022 C 
ENDBRANCH  21  23
ENDBRANCH  18  21
ENDBRANCH   1  18
TORSDOF 4
