REMARK  Name = ZINC02413128
REMARK  2 active torsions:
REMARK  status: ('A' for Active; 'I' for Inactive)
REMARK    1  A    between atoms: C_6  and  C_7
REMARK    2  A    between atoms: C_19  and  C_21
REMARK                            x       y       z     vdW  Elec       q    Type
REMARK                         _______ _______ _______ _____ _____    ______ ____
ROOT
ATOM      1  C   UNL     1      -1.293  -0.775   0.011  0.00  0.00    +0.149 C 
ATOM      2  C   UNL     1      -1.349  -1.670   1.252  0.00  0.00    +0.128 C 
ATOM      3  C   UNL     1      -0.471  -2.879   1.090  0.00  0.00    +0.222 C 
ATOM      4  O   UNL     1       0.117  -3.316   2.057  0.00  0.00    -0.275 OA
ATOM      5  N   UNL     1      -0.321  -3.491  -0.105  0.00  0.00    -0.255 N 
ATOM      6  C   UNL     1      -0.908  -2.895  -1.215  0.00  0.00    +0.222 A 
ATOM      7  N   UNL     1      -1.370  -1.617  -1.182  0.00  0.00    -0.223 N 
ATOM      8  N   UNL     1      -1.888  -1.339  -2.444  0.00  0.00    -0.131 NA
ATOM      9  C   UNL     1      -1.724  -2.425  -3.167  0.00  0.00    +0.242 A 
ATOM     10  N   UNL     1      -1.127  -3.370  -2.410  0.00  0.00    -0.180 NA
ATOM     11  N   UNL     1      -2.107  -2.577  -4.503  0.00  0.00    -0.251 N 
ATOM     12  C   UNL     1      -1.885  -3.744  -5.140  0.00  0.00    +0.248 C 
ATOM     13  O   UNL     1      -1.352  -4.662  -4.554  0.00  0.00    -0.273 OA
ATOM     14  H   UNL     1       0.180  -4.318  -0.186  0.00  0.00    +0.158 HD
ATOM     15  H   UNL     1      -2.534  -1.842  -4.972  0.00  0.00    +0.158 HD
ENDROOT
BRANCH   1  21
ATOM     16  C   UNL     1      -0.017   1.378   0.010  0.00  0.00    +0.007 A 
ATOM     17  C   UNL     1       1.171   2.086   0.002  0.00  0.00    +0.020 A 
ATOM     18  C   UNL     1       2.378   1.410  -0.013  0.00  0.00    +0.041 A 
ATOM     19  C   UNL     1       2.396   0.027  -0.021  0.00  0.00    +0.020 A 
ATOM     20  C   UNL     1       1.208  -0.679  -0.013  0.00  0.00    +0.007 A 
ATOM     21  C   UNL     1       0.002  -0.004   0.002  0.00  0.00    -0.022 A 
ATOM     22 CL   UNL     1       3.870   2.298  -0.023  0.00  0.00    -0.084 Cl
ENDBRANCH   1  21
BRANCH  12  23
ATOM     23  C   UNL     1      -2.299  -3.907  -6.580  0.00  0.00    +0.204 C 
ATOM     24  C   UNL     1      -1.456  -2.978  -7.490  0.00  0.00    +0.043 C 
ATOM     25  C   UNL     1      -1.548  -3.731  -8.846  0.00  0.00    +0.031 C 
ATOM     26  C   UNL     1      -1.578  -5.208  -8.399  0.00  0.00    +0.161 C 
ATOM     27  O   UNL     1      -2.012  -5.240  -7.033  0.00  0.00    -0.367 OA
ENDBRANCH  12  23
TORSDOF 2
