REMARK  Name = ZINC66770533
REMARK  3 active torsions:
REMARK  status: ('A' for Active; 'I' for Inactive)
REMARK    1  A    between atoms: C_1  and  C_2
REMARK    2  A    between atoms: C_5  and  N_8
REMARK    3  A    between atoms: C_10  and  C_15
REMARK                            x       y       z     vdW  Elec       q    Type
REMARK                         _______ _______ _______ _____ _____    ______ ____
ROOT
ATOM      1  C   UNL     1       3.055  -7.283  -0.359  0.00  0.00    +0.224 C 
ATOM      2  O   UNL     1       3.896  -6.959  -1.170  0.00  0.00    -0.275 OA
ATOM      3  N   UNL     1       2.814  -8.588  -0.123  0.00  0.00    -0.264 N 
ATOM      4  C   UNL     1       3.525  -9.557  -0.806  0.00  0.00    +0.165 A 
ATOM      5  N   UNL     1       3.418 -10.872  -0.707  0.00  0.00    -0.229 NA
ATOM      6  C   UNL     1       4.158 -11.688  -1.418  0.00  0.00    +0.061 A 
ATOM      7  C   UNL     1       5.056 -11.049  -2.281  0.00  0.00    +0.079 A 
ATOM      8  S   UNL     1       4.729  -9.341  -1.968  0.00  0.00    -0.049 S 
ATOM      9  C   UNL     1       5.942 -11.688  -3.142  0.00  0.00    +0.172 C 
ATOM     10  O   UNL     1       6.707 -11.060  -3.846  0.00  0.00    -0.291 OA
ATOM     11  C   UNL     1       5.910 -13.206  -3.163  0.00  0.00    +0.080 C 
ATOM     12  C   UNL     1       5.509 -13.726  -1.783  0.00  0.00    +0.014 C 
ATOM     13  C   UNL     1       4.125 -13.209  -1.381  0.00  0.00    +0.057 C 
ATOM     14  H   UNL     1       2.142  -8.847   0.527  0.00  0.00    +0.157 HD
ENDROOT
BRANCH   1  17
ATOM     15  N   UNL     1       1.499  -3.999  -0.034  0.00  0.00    -0.298 N 
ATOM     16  C   UNL     1       2.722  -4.811  -0.044  0.00  0.00    +0.121 C 
ATOM     17  C   UNL     1       2.280  -6.227   0.386  0.00  0.00    +0.101 C 
ATOM     18  C   UNL     1       0.791  -6.234  -0.032  0.00  0.00    +0.110 C 
ATOM     19  C   UNL     1       0.400  -4.772  -0.027  0.00  0.00    +0.217 C 
ATOM     20  O   UNL     1      -0.741  -4.359  -0.020  0.00  0.00    -0.276 OA
BRANCH  15  25
ATOM     21  C   UNL     1      -0.019   1.526   0.010  0.00  0.00    +0.007 C 
ATOM     22  C   UNL     1       0.002  -0.004   0.002  0.00  0.00    -0.014 C 
ATOM     23  C   UNL     1       0.718  -0.497  -1.257  0.00  0.00    +0.005 C 
ATOM     24  C   UNL     1       0.739  -2.027  -1.265  0.00  0.00    +0.023 C 
ATOM     25  C   UNL     1       1.479  -2.534  -0.026  0.00  0.00    +0.076 C 
ATOM     26  C   UNL     1       0.763  -2.041   1.233  0.00  0.00    +0.023 C 
ATOM     27  C   UNL     1       0.742  -0.511   1.242  0.00  0.00    +0.005 C 
ENDBRANCH  15  25
ENDBRANCH   1  17
TORSDOF 2
