REMARK  Name = ZINC01837501
REMARK  5 active torsions:
REMARK  status: ('A' for Active; 'I' for Inactive)
REMARK    1  A    between atoms: C_1  and  C_2
REMARK    2  A    between atoms: C_13  and  C_26
REMARK    3  A    between atoms: C_14  and  C_16
REMARK    4  A    between atoms: C_16  and  C_19
REMARK    5  A    between atoms: N_17  and  O_18
REMARK                            x       y       z     vdW  Elec       q    Type
REMARK                         _______ _______ _______ _____ _____    ______ ____
ROOT
ATOM      1  C   UNL     1      -0.188   1.624   0.201  0.00  0.00    +0.045 C 
ATOM      2  C   UNL     1      -0.153   0.118   0.153  0.00  0.00    -0.033 A 
ATOM      3  C   UNL     1      -0.167  -0.543  -1.034  0.00  0.00    +0.096 A 
ATOM      4  C   UNL     1      -0.134  -1.952  -1.050  0.00  0.00    +0.337 A 
ATOM      5  O   UNL     1      -0.147  -2.534  -2.120  0.00  0.00    -0.245 OA
ATOM      6  O   UNL     1      -0.088  -2.667   0.084  0.00  0.00    -0.421 OA
ATOM      7  C   UNL     1      -0.072  -2.072   1.293  0.00  0.00    +0.150 A 
ATOM      8  C   UNL     1      -0.097  -0.672   1.385  0.00  0.00    +0.021 A 
ATOM      9  C   UNL     1      -0.075  -0.048   2.642  0.00  0.00    +0.015 A 
ATOM     10  C   UNL     1      -0.023  -0.791   3.782  0.00  0.00    +0.048 A 
ATOM     11  C   UNL     1       0.008  -2.185   3.721  0.00  0.00    +0.140 A 
ATOM     12  C   UNL     1      -0.024  -2.829   2.472  0.00  0.00    +0.067 A 
ATOM     13  C   UNL     1       0.017  -4.262   2.762  0.00  0.00    +0.008 A 
ATOM     14  C   UNL     1       0.054  -4.370   4.114  0.00  0.00    +0.161 A 
ATOM     15  O   UNL     1       0.060  -3.141   4.669  0.00  0.00    -0.453 OA
ATOM     16  C   UNL     1       0.018  -5.389   1.762  0.00  0.00    +0.048 C 
ENDROOT
BRANCH  14  17
ATOM     17  C   UNL     1       0.103  -5.639   4.863  0.00  0.00    +0.152 C 
ATOM     18  N   UNL     1       0.022  -6.776   4.226  0.00  0.00    -0.083 NA
BRANCH  17  19
ATOM     19  C   UNL     1       0.245  -5.624   6.338  0.00  0.00    +0.007 A 
ATOM     20  C   UNL     1      -0.362  -4.619   7.089  0.00  0.00    +0.011 A 
ATOM     21  C   UNL     1      -0.228  -4.609   8.462  0.00  0.00    +0.020 A 
ATOM     22  C   UNL     1       0.509  -5.596   9.094  0.00  0.00    +0.041 A 
ATOM     23  C   UNL     1       1.115  -6.597   8.353  0.00  0.00    +0.020 A 
ATOM     24  C   UNL     1       0.981  -6.619   6.980  0.00  0.00    +0.011 A 
ATOM     25 CL   UNL     1       0.675  -5.579  10.822  0.00  0.00    -0.084 Cl
ENDBRANCH  17  19
BRANCH  18  26
ATOM     26  O   UNL     1      -0.062  -7.989   4.952  0.00  0.00    -0.409 OA
ATOM     27  H   UNL     1      -0.118  -8.777   4.394  0.00  0.00    +0.328 HD
ENDBRANCH  18  26
ENDBRANCH  14  17
TORSDOF 3
