REMARK  Name = ZINC28051946
REMARK  10 active torsions:
REMARK  status: ('A' for Active; 'I' for Inactive)
REMARK    1  A    between atoms: C_1  and  C_2
REMARK    2  A    between atoms: C_5  and  C_8
REMARK    3  A    between atoms: C_13  and  C_22
REMARK    4  A    between atoms: C_16  and  C_21
REMARK    5  A    between atoms: C_25  and  O_32
REMARK    6  A    between atoms: C_26  and  O_30
REMARK    7  A    between atoms: C_27  and  O_28
REMARK    8  A    between atoms: O_28  and  C_29
REMARK    9  A    between atoms: O_30  and  C_31
REMARK   10  A    between atoms: O_32  and  C_33
REMARK                            x       y       z     vdW  Elec       q    Type
REMARK                         _______ _______ _______ _____ _____    ______ ____
ROOT
ATOM      1  C   UNL     1      -1.055  -2.659   0.766  0.00  0.00    +0.032 C 
ATOM      2  C   UNL     1      -1.416  -1.309   0.143  0.00  0.00    +0.059 C 
ATOM      3  C   UNL     1      -0.161  -0.489  -0.052  0.00  0.00    +0.019 C 
ATOM      4  C   UNL     1       1.018  -1.088  -0.322  0.00  0.00    +0.024 C 
ATOM      5  C   UNL     1       2.294  -0.302  -0.547  0.00  0.00    +0.094 C 
ATOM      6  C   UNL     1       2.090   1.112  -0.105  0.00  0.00    +0.049 A 
ATOM      7  C   UNL     1       2.975   2.162   0.123  0.00  0.00    +0.087 A 
ATOM      8  N   UNL     1       2.243   3.181   0.497  0.00  0.00    -0.081 NA
ATOM      9  O   UNL     1       1.059   2.903   0.525  0.00  0.00    -0.339 OA
ATOM     10  C   UNL     1       0.854   1.639   0.171  0.00  0.00    +0.226 A 
ATOM     11  N   UNL     1      -0.289   0.876   0.057  0.00  0.00    -0.286 N 
ATOM     12  C   UNL     1       4.474   2.131  -0.028  0.00  0.00    +0.069 C 
ATOM     13  C   UNL     1       1.115  -2.489  -0.402  0.00  0.00    +0.162 C 
ATOM     14  O   UNL     1       2.189  -2.996  -0.663  0.00  0.00    -0.292 OA
ATOM     15  C   UNL     1      -0.077  -3.375  -0.171  0.00  0.00    +0.088 C 
ATOM     16  H   UNL     1      -1.288   1.336   0.051  0.00  0.00    +0.155 HD
ENDROOT
BRANCH   1  21
ATOM     17  C   UNL     1      -5.832  -5.847   1.403  0.00  0.00    +0.044 C 
ATOM     18  C   UNL     1      -4.586  -5.016   1.237  0.00  0.00    -0.050 A 
ATOM     19  C   UNL     1      -3.815  -4.699   2.340  0.00  0.00    +0.003 A 
ATOM     20  C   UNL     1      -2.672  -3.936   2.187  0.00  0.00    +0.004 A 
ATOM     21  C   UNL     1      -2.301  -3.491   0.932  0.00  0.00    -0.043 A 
ATOM     22  C   UNL     1      -3.075  -3.804  -0.169  0.00  0.00    +0.004 A 
ATOM     23  C   UNL     1      -4.215  -4.571  -0.018  0.00  0.00    +0.003 A 
ENDBRANCH   1  21
BRANCH   5  24
ATOM     24  C   UNL     1       2.647  -0.325  -2.012  0.00  0.00    +0.010 A 
ATOM     25  C   UNL     1       3.944  -0.593  -2.405  0.00  0.00    +0.012 A 
ATOM     26  C   UNL     1       4.273  -0.615  -3.747  0.00  0.00    +0.050 A 
ATOM     27  C   UNL     1       3.301  -0.369  -4.705  0.00  0.00    +0.165 A 
ATOM     28  C   UNL     1       1.995  -0.100  -4.314  0.00  0.00    +0.204 A 
ATOM     29  C   UNL     1       1.668  -0.083  -2.963  0.00  0.00    +0.169 A 
BRANCH  29  30
ATOM     30  O   UNL     1       0.390   0.175  -2.576  0.00  0.00    -0.491 OA
ATOM     31  C   UNL     1      -0.021   1.543  -2.563  0.00  0.00    +0.277 C 
ENDBRANCH  29  30
BRANCH  28  32
ATOM     32  O   UNL     1       1.039   0.142  -5.251  0.00  0.00    -0.488 OA
ATOM     33  C   UNL     1       0.312  -0.986  -5.744  0.00  0.00    +0.277 C 
ENDBRANCH  28  32
BRANCH  27  34
ATOM     34  O   UNL     1       3.626  -0.392  -6.026  0.00  0.00    -0.491 OA
ATOM     35  C   UNL     1       4.987  -0.676  -6.355  0.00  0.00    +0.277 C 
ENDBRANCH  27  34
ENDBRANCH   5  24
TORSDOF 5
