REMARK  Name = ZINC66178938
REMARK  10 active torsions:
REMARK  status: ('A' for Active; 'I' for Inactive)
REMARK    1  A    between atoms: C_1  and  C_2
REMARK    2  A    between atoms: C_2  and  C_4
REMARK    3  A    between atoms: C_2  and  N_16
REMARK    4  A    between atoms: C_7  and  O_12
REMARK    5  A    between atoms: C_8  and  O_10
REMARK    6  A    between atoms: O_10  and  C_11
REMARK    7  A    between atoms: O_12  and  C_13
REMARK    8  A    between atoms: C_13  and  C_14
REMARK    9  A    between atoms: C_13  and  C_15
REMARK   10  A    between atoms: C_22  and  N_25
REMARK                            x       y       z     vdW  Elec       q    Type
REMARK                         _______ _______ _______ _____ _____    ______ ____
ROOT
ATOM      1  N   UNL     1       0.774   0.544  -0.888  0.00  0.00    -0.293 N 
ATOM      2  C   UNL     1       0.108   0.625  -2.057  0.00  0.00    +0.303 C 
ATOM      3  O   UNL     1      -1.074   0.909  -2.065  0.00  0.00    -0.253 OA
ATOM      4  N   UNL     1       0.752   0.391  -3.217  0.00  0.00    -0.287 N 
ATOM      5  C   UNL     1       2.172   0.034  -3.352  0.00  0.00    +0.108 C 
ATOM      6  C   UNL     1       2.468  -0.110  -4.860  0.00  0.00    +0.005 C 
ATOM      7  C   UNL     1       1.339   0.728  -5.516  0.00  0.00    -0.049 C 
ATOM      8  C   UNL     1       0.149   0.445  -4.561  0.00  0.00    +0.094 C 
ATOM      9  H   UNL     1       1.717   0.317  -0.882  0.00  0.00    +0.151 HD
ENDROOT
BRANCH   7  10
ATOM     10  N   UNL     1       1.048   0.247  -6.874  0.00  0.00    +0.383 N 
ATOM     11  C   UNL     1       0.027   1.115  -7.516  0.00  0.00    -0.078 C 
ATOM     12  C   UNL     1       0.247   0.859  -9.029  0.00  0.00    -0.020 C 
ATOM     13  C   UNL     1       1.783   0.726  -9.137  0.00  0.00    -0.020 C 
ATOM     14  C   UNL     1       2.256   0.350  -7.721  0.00  0.00    -0.078 C 
ATOM     15  H   UNL     1       0.724  -0.708  -6.843  0.00  0.00    -0.081 HD
ENDBRANCH   7  10
BRANCH   1  17
ATOM     16  C   UNL     1       0.058   2.302   0.654  0.00  0.00    +0.033 C 
ATOM     17  C   UNL     1       0.073   0.798   0.373  0.00  0.00    +0.102 C 
BRANCH  17  18
ATOM     18  C   UNL     1       0.783   0.084   1.495  0.00  0.00    -0.024 A 
ATOM     19  C   UNL     1       2.165   0.062   1.533  0.00  0.00    +0.009 A 
ATOM     20  C   UNL     1       2.821  -0.592   2.559  0.00  0.00    +0.050 A 
ATOM     21  C   UNL     1       2.093  -1.226   3.554  0.00  0.00    +0.162 A 
ATOM     22  C   UNL     1       0.702  -1.203   3.516  0.00  0.00    +0.162 A 
ATOM     23  C   UNL     1       0.051  -0.542   2.486  0.00  0.00    +0.054 A 
BRANCH  22  24
ATOM     24  O   UNL     1      -0.016  -1.824   4.489  0.00  0.00    -0.491 OA
ATOM     25  C   UNL     1      -1.440  -1.759   4.386  0.00  0.00    +0.277 C 
ENDBRANCH  22  24
BRANCH  21  26
ATOM     26  O   UNL     1       2.737  -1.869   4.564  0.00  0.00    -0.486 OA
BRANCH  26  27
ATOM     27  C   UNL     1       4.160  -1.955   4.476  0.00  0.00    +0.167 C 
ATOM     28  C   UNL     1       4.784  -0.680   5.048  0.00  0.00    +0.051 C 
ATOM     29  C   UNL     1       4.649  -3.165   5.275  0.00  0.00    +0.051 C 
ENDBRANCH  26  27
ENDBRANCH  21  26
ENDBRANCH  17  18
ENDBRANCH   1  17
TORSDOF 6
