REMARK  Name = ZINC60141482
REMARK  7 active torsions:
REMARK  status: ('A' for Active; 'I' for Inactive)
REMARK    1  A    between atoms: C_1  and  C_2
REMARK    2  A    between atoms: C_9  and  C_11
REMARK    3  A    between atoms: C_18  and  O_20
REMARK    4  A    between atoms: O_20  and  C_21
REMARK    5  A    between atoms: C_21  and  C_22
REMARK    6  A    between atoms: C_21  and  C_23
REMARK    7  A    between atoms: C_21  and  C_24
REMARK                            x       y       z     vdW  Elec       q    Type
REMARK                         _______ _______ _______ _____ _____    ______ ____
ROOT
ATOM      1  C   UNL     1       1.630  -4.240   1.452  0.00  0.00    +0.165 C 
ATOM      2  C   UNL     1       1.375  -4.701   2.890  0.00  0.00    +0.032 C 
ATOM      3  C   UNL     1       1.386  -6.231   2.940  0.00  0.00    +0.004 C 
ATOM      4  C   UNL     1       2.759  -6.747   2.504  0.00  0.00    +0.019 C 
ATOM      5  C   UNL     1       3.030  -6.309   1.061  0.00  0.00    +0.112 C 
ATOM      6  N   UNL     1       2.877  -4.850   0.971  0.00  0.00    -0.256 N 
ATOM      7  C   UNL     1       3.863  -4.086   0.459  0.00  0.00    +0.404 C 
ATOM      8  O   UNL     1       3.759  -2.876   0.466  0.00  0.00    -0.226 OA
ENDROOT
BRANCH   1  16
ATOM      9  C   UNL     1       1.495   1.393  -1.048  0.00  0.00    +0.009 C 
ATOM     10  C   UNL     1       1.506  -0.133  -0.951  0.00  0.00    +0.003 C 
ATOM     11  C   UNL     1       0.470  -0.714  -1.917  0.00  0.00    +0.006 C 
ATOM     12  C   UNL     1       0.504  -2.242  -1.845  0.00  0.00    +0.019 C 
ATOM     13  C   UNL     1       0.145  -2.691  -0.424  0.00  0.00    +0.108 C 
ATOM     14  N   UNL     1       1.047  -2.022   0.524  0.00  0.00    -0.300 N 
ATOM     15  C   UNL     1       1.160  -0.558   0.479  0.00  0.00    +0.111 C 
ATOM     16  C   UNL     1       1.757  -2.738   1.418  0.00  0.00    +0.236 C 
ATOM     17  O   UNL     1       2.497  -2.175   2.196  0.00  0.00    -0.274 OA
ENDBRANCH   1  16
BRANCH   7  18
ATOM     18  O   UNL     1       4.963  -4.665  -0.059  0.00  0.00    -0.445 OA
BRANCH  18  19
ATOM     19  C   UNL     1       5.967  -3.794  -0.583  0.00  0.00    +0.107 C 
ATOM     20  C   UNL     1       6.473  -2.871   0.527  0.00  0.00    +0.055 C 
ATOM     21  C   UNL     1       7.132  -4.627  -1.124  0.00  0.00    +0.055 C 
ATOM     22  C   UNL     1       5.373  -2.953  -1.715  0.00  0.00    +0.055 C 
ENDBRANCH  18  19
ENDBRANCH   7  18
TORSDOF 3
