REMARK  Name = ZINC33359417
REMARK  6 active torsions:
REMARK  status: ('A' for Active; 'I' for Inactive)
REMARK    1  A    between atoms: C_1  and  C_2
REMARK    2  A    between atoms: N_13  and  C_14
REMARK    3  A    between atoms: C_14  and  C_15
REMARK    4  A    between atoms: C_15  and  C_16
REMARK    5  A    between atoms: C_16  and  C_17
REMARK    6  A    between atoms: C_16  and  C_18
REMARK                            x       y       z     vdW  Elec       q    Type
REMARK                         _______ _______ _______ _____ _____    ______ ____
ROOT
ATOM      1  C   UNL     1       2.376   5.236   0.957  0.00  0.00    +0.038 C 
ATOM      2  C   UNL     1       2.195   3.717   0.924  0.00  0.00    +0.158 C 
ATOM      3  C   UNL     1       3.480   3.071   0.476  0.00  0.00    +0.238 C 
ATOM      4  O   UNL     1       4.540   3.640   0.637  0.00  0.00    -0.273 OA
ATOM      5  N   UNL     1       3.442   1.851  -0.107  0.00  0.00    -0.280 N 
ATOM      6  C   UNL     1       2.193   1.246  -0.298  0.00  0.00    +0.092 A 
ATOM      7  C   UNL     1       2.080  -0.110  -0.545  0.00  0.00    +0.140 A 
ATOM      8  N   UNL     1       0.870  -0.628  -0.714  0.00  0.00    -0.224 NA
ATOM      9  C   UNL     1      -0.209   0.128  -0.650  0.00  0.00    +0.225 A 
ATOM     10  N   UNL     1      -0.145   1.426  -0.417  0.00  0.00    -0.201 NA
ATOM     11  C   UNL     1       1.029   2.021  -0.239  0.00  0.00    +0.148 A 
ATOM     12  N   UNL     1       1.108   3.381  -0.002  0.00  0.00    -0.302 N 
ATOM     13 CL   UNL     1      -1.764  -0.608  -0.878  0.00  0.00    -0.041 Cl
ATOM     14  H   UNL     1       4.376   1.360  -0.418  0.00  0.00    +0.155 HD
ENDROOT
BRANCH  12  15
ATOM     15  C   UNL     1      -0.176   3.907   0.480  0.00  0.00    +0.107 C 
BRANCH  15  16
ATOM     16  C   UNL     1      -0.541   3.229   1.802  0.00  0.00    +0.022 C 
BRANCH  16  17
ATOM     17  C   UNL     1      -1.938   3.677   2.236  0.00  0.00    -0.016 C 
ATOM     18  C   UNL     1      -2.354   2.905   3.490  0.00  0.00    +0.007 C 
ATOM     19  C   UNL     1      -1.921   5.176   2.542  0.00  0.00    +0.007 C 
ENDBRANCH  16  17
ENDBRANCH  15  16
ENDBRANCH  12  15
TORSDOF 3
