REMARK  Name = ZINC46613554
REMARK  6 active torsions:
REMARK  status: ('A' for Active; 'I' for Inactive)
REMARK    1  A    between atoms: C_1  and  C_2
REMARK    2  A    between atoms: N_11  and  C_12
REMARK    3  A    between atoms: C_12  and  C_14
REMARK    4  A    between atoms: C_12  and  C_15
REMARK    5  A    between atoms: C_18  and  O_21
REMARK    6  A    between atoms: O_21  and  C_22
REMARK                            x       y       z     vdW  Elec       q    Type
REMARK                         _______ _______ _______ _____ _____    ______ ____
ROOT
ATOM      1  C   UNL     1      -0.087  -4.956   3.076  0.00  0.00    +0.102 C 
ATOM      2  C   UNL     1      -1.593  -5.111   2.858  0.00  0.00    +0.033 C 
ENDROOT
BRANCH   1  12
ATOM      3  C   UNL     1      -0.023   1.525   0.010  0.00  0.00    +0.009 C 
ATOM      4  C   UNL     1      -0.002  -0.005   0.002  0.00  0.00    +0.003 C 
ATOM      5  C   UNL     1       0.715  -0.499  -1.257  0.00  0.00    +0.006 C 
ATOM      6  C   UNL     1       0.708  -2.029  -1.282  0.00  0.00    +0.019 C 
ATOM      7  C   UNL     1       1.461  -2.559  -0.058  0.00  0.00    +0.109 C 
ATOM      8  N   UNL     1       0.868  -1.973   1.152  0.00  0.00    -0.285 N 
ATOM      9  C   UNL     1       0.742  -0.512   1.241  0.00  0.00    +0.112 C 
ATOM     10  C   UNL     1       0.447  -2.761   2.161  0.00  0.00    +0.303 C 
ATOM     11  O   UNL     1       0.043  -2.263   3.194  0.00  0.00    -0.253 OA
ATOM     12  N   UNL     1       0.473  -4.102   2.026  0.00  0.00    -0.293 N 
ATOM     13  H   UNL     1       0.864  -4.502   1.232  0.00  0.00    +0.151 HD
ENDBRANCH   1  12
BRANCH   1  14
ATOM     14  C   UNL     1       0.570  -6.311   3.025  0.00  0.00    -0.027 A 
ATOM     15  C   UNL     1       0.847  -6.899   1.805  0.00  0.00    +0.009 A 
ATOM     16  C   UNL     1       1.449  -8.141   1.755  0.00  0.00    +0.046 A 
ATOM     17  C   UNL     1       1.776  -8.799   2.932  0.00  0.00    +0.127 A 
ATOM     18  C   UNL     1       1.497  -8.207   4.155  0.00  0.00    +0.046 A 
ATOM     19  C   UNL     1       0.900  -6.963   4.199  0.00  0.00    +0.009 A 
BRANCH  17  20
ATOM     20  O   UNL     1       2.367 -10.022   2.886  0.00  0.00    -0.434 OA
BRANCH  20  21
ATOM     21  C   UNL     1       2.676 -10.641   4.137  0.00  0.00    +0.541 C 
ATOM     22  F   UNL     1       3.555  -9.825   4.857  0.00  0.00    -0.166 F 
ATOM     23  F   UNL     1       1.498 -10.820   4.871  0.00  0.00    -0.166 F 
ENDBRANCH  20  21
ENDBRANCH  17  20
ENDBRANCH   1  14
TORSDOF 4
