REMARK  Name = ZINC00449062
REMARK  3 active torsions:
REMARK  status: ('A' for Active; 'I' for Inactive)
REMARK    1  A    between atoms: C_1  and  C_2
REMARK    2  A    between atoms: C_10  and  C_12
REMARK    3  A    between atoms: N_14  and  C_17
REMARK                            x       y       z     vdW  Elec       q    Type
REMARK                         _______ _______ _______ _____ _____    ______ ____
ROOT
ATOM      1  C   UNL     1      -2.966   0.661  -1.161  0.00  0.00    +0.230 C 
ATOM      2  O   UNL     1      -1.923   0.135  -0.839  0.00  0.00    -0.274 OA
ATOM      3  N   UNL     1      -3.007   1.987  -1.399  0.00  0.00    -0.210 N 
ATOM      4  C   UNL     1      -4.183   2.587  -1.667  0.00  0.00    +0.339 C 
ATOM      5  O   UNL     1      -4.233   3.792  -1.797  0.00  0.00    -0.279 OA
ENDROOT
BRANCH   1  12
ATOM      6  C   UNL     1      -5.213  -1.623   0.522  0.00  0.00    +0.009 C 
ATOM      7  C   UNL     1      -4.083  -1.493  -0.502  0.00  0.00    +0.006 C 
ATOM      8  C   UNL     1      -4.208  -2.599  -1.605  0.00  0.00    +0.022 C 
ATOM      9  C   UNL     1      -5.675  -2.478  -2.055  0.00  0.00    -0.027 C 
ATOM     10  C   UNL     1      -5.810  -1.350  -2.729  0.00  0.00    -0.026 C 
ATOM     11  C   UNL     1      -4.406  -0.643  -2.778  0.00  0.00    +0.030 C 
ATOM     12  C   UNL     1      -4.218  -0.168  -1.297  0.00  0.00    +0.087 C 
ATOM     13  C   UNL     1      -3.495  -1.894  -2.783  0.00  0.00    -0.016 C 
ATOM     14  C   UNL     1      -2.967  -2.574  -4.007  0.00  0.00    +0.008 C 
ATOM     15  C   UNL     1      -2.016  -1.883  -3.017  0.00  0.00    +0.008 C 
ENDBRANCH   1  12
BRANCH   3  16
ATOM     16  C   UNL     1      -1.825   2.742  -1.367  0.00  0.00    +0.079 A 
ATOM     17  C   UNL     1      -1.401   3.321  -0.180  0.00  0.00    +0.027 A 
ATOM     18  C   UNL     1      -0.234   4.059  -0.150  0.00  0.00    +0.002 A 
ATOM     19  C   UNL     1       0.510   4.227  -1.303  0.00  0.00    +0.003 A 
ATOM     20  C   UNL     1       0.089   3.656  -2.490  0.00  0.00    +0.040 A 
ATOM     21  C   UNL     1      -1.078   2.916  -2.527  0.00  0.00    +0.145 A 
ATOM     22  F   UNL     1      -1.489   2.357  -3.686  0.00  0.00    -0.204 F 
ENDBRANCH   3  16
TORSDOF 2
