REMARK  Name = ZINC40273669
REMARK  4 active torsions:
REMARK  status: ('A' for Active; 'I' for Inactive)
REMARK    1  A    between atoms: C_1  and  C_2
REMARK    2  A    between atoms: C_4  and  C_8
REMARK    3  A    between atoms: C_5  and  C_7
REMARK    4  A    between atoms: C_8  and  C_10
REMARK                            x       y       z     vdW  Elec       q    Type
REMARK                         _______ _______ _______ _____ _____    ______ ____
ROOT
ATOM      1  C   UNL     1      -1.805  -3.981  -0.876  0.00  0.00    -0.022 A 
ATOM      2  C   UNL     1      -0.810  -4.528  -1.669  0.00  0.00    +0.007 A 
ATOM      3  C   UNL     1      -1.130  -5.119  -2.876  0.00  0.00    +0.030 A 
ATOM      4  C   UNL     1      -2.451  -5.165  -3.292  0.00  0.00    +0.087 A 
ATOM      5  C   UNL     1      -3.454  -4.614  -2.494  0.00  0.00    +0.157 A 
ATOM      6  C   UNL     1      -3.124  -4.028  -1.283  0.00  0.00    +0.054 A 
ATOM      7  O   UNL     1      -4.631  -4.800  -3.142  0.00  0.00    -0.408 OA
ATOM      8  C   UNL     1      -4.401  -5.437  -4.300  0.00  0.00    +0.419 A 
ATOM      9  O   UNL     1      -5.252  -5.750  -5.111  0.00  0.00    -0.223 OA
ATOM     10  N   UNL     1      -3.081  -5.677  -4.427  0.00  0.00    -0.288 N 
ATOM     11  H   UNL     1      -2.648  -6.124  -5.170  0.00  0.00    +0.172 HD
ENDROOT
BRANCH   1  12
ATOM     12  C   UNL     1      -1.447  -3.338   0.439  0.00  0.00    +0.144 C 
ATOM     13 CL   UNL     1      -0.518  -4.509   1.447  0.00  0.00    -0.112 Cl
BRANCH  12  17
ATOM     14  C   UNL     1       2.538  -0.227  -0.187  0.00  0.00    +0.086 C 
ATOM     15  C   UNL     1       1.137  -0.772  -0.083  0.00  0.00    +0.103 A 
ATOM     16  C   UNL     1       0.807  -2.048   0.184  0.00  0.00    +0.050 A 
ATOM     17  C   UNL     1      -0.605  -2.114   0.187  0.00  0.00    +0.015 A 
ATOM     18  C   UNL     1      -1.054  -0.874  -0.080  0.00  0.00    +0.107 A 
ATOM     19  O   UNL     1       0.006  -0.064  -0.237  0.00  0.00    -0.465 OA
ATOM     20  C   UNL     1      -2.500  -0.462  -0.180  0.00  0.00    +0.086 C 
ENDBRANCH  12  17
ENDBRANCH   1  12
TORSDOF 2
