REMARK  Name = ZINC56647283
REMARK  6 active torsions:
REMARK  status: ('A' for Active; 'I' for Inactive)
REMARK    1  A    between atoms: C_1  and  C_2
REMARK    2  A    between atoms: C_2  and  C_3
REMARK    3  A    between atoms: C_2  and  N_4
REMARK    4  A    between atoms: C_8  and  N_11
REMARK    5  A    between atoms: N_14  and  C_15
REMARK    6  A    between atoms: N_24  and  C_26
REMARK                            x       y       z     vdW  Elec       q    Type
REMARK                         _______ _______ _______ _____ _____    ______ ____
ROOT
ATOM      1  N   UNL     1      -4.331  -3.677  -3.357  0.00  0.00    -0.268 N 
ATOM      2  C   UNL     1      -3.840  -4.093  -4.542  0.00  0.00    +0.304 C 
ATOM      3  O   UNL     1      -2.688  -3.846  -4.843  0.00  0.00    -0.253 OA
ATOM      4  N   UNL     1      -4.626  -4.782  -5.393  0.00  0.00    -0.296 N 
ATOM      5  H   UNL     1      -5.224  -3.939  -3.084  0.00  0.00    +0.156 HD
ATOM      6  H   UNL     1      -5.545  -4.979  -5.152  0.00  0.00    +0.151 HD
ENDROOT
BRANCH   4   7
ATOM      7  C   UNL     1      -4.093  -5.233  -6.677  0.00  0.00    +0.077 C 
ATOM      8  C   UNL     1      -3.402  -6.589  -6.520  0.00  0.00    -0.007 C 
ATOM      9  C   UNL     1      -2.757  -6.983  -7.844  0.00  0.00    +0.003 C 
ATOM     10  C   UNL     1      -3.748  -7.004  -8.997  0.00  0.00    +0.001 C 
ATOM     11  C   UNL     1      -4.638  -5.773  -9.049  0.00  0.00    +0.003 C 
ATOM     12  C   UNL     1      -5.227  -5.414  -7.689  0.00  0.00    -0.007 C 
ATOM     13  C   UNL     1      -6.204  -6.473  -7.203  0.00  0.00    -0.073 C 
ATOM     14  N   UNL     1      -5.569  -7.753  -6.907  0.00  0.00    +0.382 N 
ATOM     15  C   UNL     1      -4.397  -7.637  -6.046  0.00  0.00    -0.073 C 
ATOM     16  H   UNL     1      -5.330  -8.231  -7.762  0.00  0.00    -0.081 HD
BRANCH  14  17
ATOM     17  C   UNL     1      -6.554  -8.601  -6.223  0.00  0.00    -0.069 C 
ATOM     18  C   UNL     1      -6.780 -10.009  -6.777  0.00  0.00    -0.017 C 
ATOM     19  C   UNL     1      -7.846  -8.930  -6.973  0.00  0.00    -0.017 C 
ENDBRANCH  14  17
ENDBRANCH   4   7
BRANCH   1  24
ATOM     20  N   UNL     1      -1.223  -0.444  -0.192  0.00  0.00    -0.244 N 
ATOM     21  C   UNL     1      -2.077  -1.330  -0.795  0.00  0.00    +0.159 A 
ATOM     22  C   UNL     1      -1.905  -1.170  -2.184  0.00  0.00    +0.040 A 
ATOM     23  C   UNL     1      -2.658  -1.956  -3.064  0.00  0.00    +0.038 A 
ATOM     24  C   UNL     1      -3.551  -2.866  -2.521  0.00  0.00    +0.054 A 
ATOM     25  C   UNL     1      -3.666  -2.967  -1.136  0.00  0.00    +0.136 A 
ATOM     26  N   UNL     1      -2.947  -2.218  -0.331  0.00  0.00    -0.234 NA
ATOM     27  C   UNL     1      -0.893  -0.133  -2.359  0.00  0.00    +0.144 A 
ATOM     28  N   UNL     1      -0.527   0.266  -1.175  0.00  0.00    -0.177 NA
BRANCH  20  30
ATOM     29  C   UNL     1       0.381  -0.559   1.651  0.00  0.00    +0.032 C 
ATOM     30  C   UNL     1      -1.067  -0.266   1.254  0.00  0.00    +0.103 C 
ATOM     31  C   UNL     1      -1.417   1.175   1.631  0.00  0.00    +0.032 C 
ENDBRANCH  20  30
ENDBRANCH   1  24
TORSDOF 4
