REMARK  Name = ZINC41548728
REMARK  7 active torsions:
REMARK  status: ('A' for Active; 'I' for Inactive)
REMARK    1  A    between atoms: C_1  and  C_2
REMARK    2  A    between atoms: C_2  and  C_3
REMARK    3  A    between atoms: C_2  and  C_4
REMARK    4  A    between atoms: C_6  and  C_25
REMARK    5  A    between atoms: C_7  and  N_9
REMARK    6  A    between atoms: C_10  and  C_12
REMARK    7  A    between atoms: C_12  and  C_24
REMARK                            x       y       z     vdW  Elec       q    Type
REMARK                         _______ _______ _______ _____ _____    ______ ____
ROOT
ATOM      1  N   UNL     1      -5.218  -1.314   1.051  0.00  0.00    -0.276 N 
ATOM      2  C   UNL     1      -5.575  -0.736   2.215  0.00  0.00    +0.270 C 
ATOM      3  O   UNL     1      -4.775  -0.062   2.828  0.00  0.00    -0.271 OA
ATOM      4  H   UNL     1      -5.857  -1.853   0.560  0.00  0.00    +0.155 HD
ENDROOT
BRANCH   2   5
ATOM      5  C   UNL     1      -6.969  -0.927   2.754  0.00  0.00    +0.258 C 
ATOM      6  C   UNL     1      -6.958  -0.742   4.250  0.00  0.00    +0.270 C 
ATOM      7  O   UNL     1      -6.121  -0.036   4.770  0.00  0.00    -0.271 OA
ATOM      8  N   UNL     1      -7.885  -1.365   5.008  0.00  0.00    -0.279 N 
ATOM      9  C   UNL     1      -8.764  -2.275   4.405  0.00  0.00    +0.077 A 
ATOM     10  C   UNL     1      -9.863  -2.757   5.097  0.00  0.00    +0.047 A 
ATOM     11  C   UNL     1     -10.729  -3.644   4.482  0.00  0.00    +0.043 A 
ATOM     12  C   UNL     1     -10.499  -4.050   3.179  0.00  0.00    +0.024 A 
ATOM     13  C   UNL     1      -9.400  -3.575   2.486  0.00  0.00    +0.049 A 
ATOM     14  C   UNL     1      -8.527  -2.693   3.097  0.00  0.00    +0.144 A 
ATOM     15  O   UNL     1      -7.426  -2.244   2.436  0.00  0.00    -0.465 OA
ATOM     16 CL   UNL     1     -12.106  -4.251   5.348  0.00  0.00    -0.083 Cl
ATOM     17  C   UNL     1      -7.906   0.103   2.121  0.00  0.00    +0.076 C 
ATOM     18  H   UNL     1      -7.941  -1.186   5.960  0.00  0.00    +0.155 HD
ENDBRANCH   2   5
BRANCH   1  22
ATOM     19  C   UNL     1      -1.412  -0.526   0.013  0.00  0.00    -0.005 A 
ATOM     20  C   UNL     1      -2.019  -1.309  -0.897  0.00  0.00    +0.026 A 
ATOM     21  C   UNL     1      -3.395  -1.651  -0.615  0.00  0.00    +0.065 A 
ATOM     22  C   UNL     1      -3.935  -1.138   0.555  0.00  0.00    +0.084 A 
ATOM     23  S   UNL     1      -2.677  -0.260   1.235  0.00  0.00    -0.077 S 
BRANCH  21  24
ATOM     24  C   UNL     1      -4.180  -2.498  -1.520  0.00  0.00    +0.244 C 
ATOM     25  O   UNL     1      -5.336  -2.766  -1.252  0.00  0.00    -0.270 OA
ATOM     26  N   UNL     1      -3.620  -2.978  -2.648  0.00  0.00    -0.325 N 
ATOM     27  H   UNL     1      -2.698  -2.765  -2.861  0.00  0.00    +0.145 HD
ATOM     28  H   UNL     1      -4.139  -3.538  -3.246  0.00  0.00    +0.145 HD
ENDBRANCH  21  24
BRANCH  19  30
ATOM     29  C   UNL     1      -0.019   1.526   0.010  0.00  0.00    +0.013 C 
ATOM     30  C   UNL     1       0.002  -0.004   0.002  0.00  0.00    +0.020 C 
ATOM     31  C   UNL     1       0.742  -0.511   1.242  0.00  0.00    +0.013 C 
ENDBRANCH  19  30
ENDBRANCH   1  22
TORSDOF 4
