REMARK  Name = ZINC00664303
REMARK  7 active torsions:
REMARK  status: ('A' for Active; 'I' for Inactive)
REMARK    1  A    between atoms: C_1  and  C_2
REMARK    2  A    between atoms: C_2  and  O_3
REMARK    3  A    between atoms: O_3  and  C_4
REMARK    4  A    between atoms: C_4  and  C_6
REMARK    5  A    between atoms: C_7  and  C_25
REMARK    6  A    between atoms: C_9  and  N_24
REMARK    7  A    between atoms: C_10  and  C_22
REMARK                            x       y       z     vdW  Elec       q    Type
REMARK                         _______ _______ _______ _____ _____    ______ ____
ROOT
ATOM      1  C   UNL     1       4.575   2.627   1.065  0.00  0.00    +0.104 C 
ATOM      2  C   UNL     1       4.126   3.895   1.239  0.00  0.00    +0.149 C 
ATOM      3  O   UNL     1       3.562   4.587   0.232  0.00  0.00    -0.440 OA
ATOM      4  C   UNL     1       3.748   4.200  -1.042  0.00  0.00    +0.199 C 
ATOM      5  C   UNL     1       4.175   2.949  -1.350  0.00  0.00    +0.110 C 
ATOM      6  C   UNL     1       4.457   1.948  -0.269  0.00  0.00    +0.148 C 
ATOM      7  C   UNL     1       3.379   0.894  -0.230  0.00  0.00    -0.000 A 
ATOM      8  C   UNL     1       2.022   0.946   0.000  0.00  0.00    +0.027 A 
ATOM      9  C   UNL     1       1.271  -0.218  -0.027  0.00  0.00    +0.041 A 
ATOM     10  C   UNL     1       1.889  -1.429  -0.287  0.00  0.00    +0.022 A 
ATOM     11  C   UNL     1       3.248  -1.483  -0.518  0.00  0.00    +0.025 A 
ATOM     12  C   UNL     1       4.009  -0.316  -0.492  0.00  0.00    +0.038 A 
ATOM     13  N   UNL     1       5.376  -0.115  -0.692  0.00  0.00    -0.284 N 
ATOM     14  C   UNL     1       5.721   1.180  -0.580  0.00  0.00    +0.238 C 
ATOM     15  O   UNL     1       6.835   1.644  -0.705  0.00  0.00    -0.274 OA
ATOM     16 CL   UNL     1      -0.440  -0.156   0.255  0.00  0.00    -0.084 Cl
ATOM     17  H   UNL     1       6.005  -0.827  -0.889  0.00  0.00    +0.155 HD
ENDROOT
BRANCH   2  18
ATOM     18  C   UNL     1       4.259   4.531   2.564  0.00  0.00    +0.018 A 
ATOM     19  C   UNL     1       3.536   4.041   3.654  0.00  0.00    +0.011 A 
ATOM     20  C   UNL     1       3.670   4.636   4.891  0.00  0.00    +0.001 A 
ATOM     21  C   UNL     1       4.509   5.725   5.051  0.00  0.00    +0.000 A 
ATOM     22  C   UNL     1       5.225   6.219   3.974  0.00  0.00    +0.001 A 
ATOM     23  C   UNL     1       5.105   5.630   2.733  0.00  0.00    +0.011 A 
ENDBRANCH   2  18
BRANCH   4  24
ATOM     24  N   UNL     1       3.501   5.091  -2.057  0.00  0.00    -0.328 N 
ATOM     25  H   UNL     1       3.632   4.824  -2.980  0.00  0.00    +0.145 HD
ATOM     26  H   UNL     1       3.196   5.988  -1.850  0.00  0.00    +0.145 HD
ENDBRANCH   4  24
BRANCH   1  27
ATOM     27  C   UNL     1       5.158   1.938   2.149  0.00  0.00    +0.340 C 
ATOM     28  O   UNL     1       5.366   2.520   3.199  0.00  0.00    -0.245 OA
BRANCH  27  29
ATOM     29  O   UNL     1       5.487   0.635   2.024  0.00  0.00    -0.462 OA
BRANCH  29  31
ATOM     30  C   UNL     1       6.375  -1.462   2.832  0.00  0.00    +0.048 C 
ATOM     31  C   UNL     1       6.074   0.001   3.162  0.00  0.00    +0.229 C 
ENDBRANCH  29  31
ENDBRANCH  27  29
ENDBRANCH   1  27
BRANCH   5  32
ATOM     32  C   UNL     1       4.357   2.581  -2.722  0.00  0.00    +0.102 C 
ATOM     33  N   UNL     1       4.502   2.289  -3.810  0.00  0.00    -0.191 NA
ENDBRANCH   5  32
TORSDOF 6
