REMARK  Name = ZINC58378145
REMARK  4 active torsions:
REMARK  status: ('A' for Active; 'I' for Inactive)
REMARK    1  A    between atoms: C_1  and  C_2
REMARK    2  A    between atoms: C_4  and  C_14
REMARK    3  A    between atoms: C_14  and  N_16
REMARK    4  A    between atoms: N_18  and  C_22
REMARK                            x       y       z     vdW  Elec       q    Type
REMARK                         _______ _______ _______ _____ _____    ______ ____
ROOT
ATOM      1  C   UNL     1      -0.107   1.462  -0.167  0.00  0.00    +0.056 C 
ATOM      2  C   UNL     1      -0.011  -0.063  -0.095  0.00  0.00    +0.220 C 
ATOM      3  C   UNL     1       0.835  -0.584  -1.264  0.00  0.00    +0.301 C 
ATOM      4  O   UNL     1       0.916  -2.010  -1.158  0.00  0.00    -0.472 OA
ATOM      5  C   UNL     1       1.204  -2.516   0.072  0.00  0.00    +0.163 A 
ATOM      6  C   UNL     1       1.650  -3.825   0.182  0.00  0.00    +0.049 A 
ATOM      7  C   UNL     1       1.942  -4.354   1.425  0.00  0.00    +0.004 A 
ATOM      8  C   UNL     1       1.790  -3.582   2.561  0.00  0.00    +0.004 A 
ATOM      9  C   UNL     1       1.347  -2.277   2.458  0.00  0.00    +0.049 A 
ATOM     10  C   UNL     1       1.054  -1.739   1.214  0.00  0.00    +0.163 A 
ATOM     11  O   UNL     1       0.626  -0.449   1.128  0.00  0.00    -0.481 OA
ENDROOT
BRANCH   3  12
ATOM     12  C   UNL     1       2.218   0.011  -1.196  0.00  0.00    +0.283 C 
ATOM     13  O   UNL     1       3.180  -0.707  -0.999  0.00  0.00    -0.269 OA
BRANCH  12  14
ATOM     14  N   UNL     1       2.386   1.318  -1.350  0.00  0.00    -0.153 NA
ATOM     15  C   UNL     1       3.246   1.777  -2.262  0.00  0.00    +0.165 A 
ATOM     16  N   UNL     1       3.906   1.081  -3.227  0.00  0.00    -0.331 N 
ATOM     17  C   UNL     1       4.745   1.752  -4.061  0.00  0.00    +0.094 A 
ATOM     18  C   UNL     1       4.869   3.071  -3.877  0.00  0.00    +0.066 A 
ATOM     19  S   UNL     1       3.771   3.356  -2.501  0.00  0.00    -0.061 S 
ATOM     20  C   UNL     1       3.716  -0.365  -3.364  0.00  0.00    +0.150 C 
ENDBRANCH  12  14
ENDBRANCH   3  12
TORSDOF 2
