REMARK  Name = ZINC35246737
REMARK  7 active torsions:
REMARK  status: ('A' for Active; 'I' for Inactive)
REMARK    1  A    between atoms: C_4  and  C_7
REMARK    2  A    between atoms: C_7  and  N_8
REMARK    3  A    between atoms: N_8  and  C_9
REMARK    4  A    between atoms: N_8  and  C_17
REMARK    5  A    between atoms: C_9  and  C_10
REMARK    6  A    between atoms: C_17  and  C_18
REMARK    7  A    between atoms: C_21  and  C_23
REMARK                            x       y       z     vdW  Elec       q    Type
REMARK                         _______ _______ _______ _____ _____    ______ ____
ROOT
ATOM      1  C   UNL     1       5.702  -1.491   1.842  0.00  0.00    -0.002 C 
ENDROOT
BRANCH   1   2
ATOM      2  C   UNL     1       6.390  -0.507   0.931  0.00  0.00    +0.090 A 
ATOM      3  C   UNL     1       7.001   0.633   1.322  0.00  0.00    +0.043 A 
ATOM      4  C   UNL     1       7.506   1.248   0.166  0.00  0.00    +0.055 A 
ATOM      5  C   UNL     1       7.174   0.442  -0.884  0.00  0.00    +0.190 A 
ATOM      6  O   UNL     1       6.500  -0.622  -0.399  0.00  0.00    -0.457 OA
BRANCH   5   7
ATOM      7  C   UNL     1       7.497   0.686  -2.294  0.00  0.00    +0.282 C 
ATOM      8  O   UNL     1       8.226   1.612  -2.600  0.00  0.00    -0.267 OA
ATOM      9  N   UNL     1       6.986  -0.114  -3.251  0.00  0.00    -0.295 N 
ATOM     10  C   UNL     1       7.413   0.026  -4.650  0.00  0.00    +0.113 C 
ATOM     11  C   UNL     1       6.171   0.206  -5.529  0.00  0.00    +0.084 C 
ATOM     12  C   UNL     1       5.200  -0.948  -5.277  0.00  0.00    +0.173 C 
ATOM     13  C   UNL     1       4.763  -0.951  -3.810  0.00  0.00    +0.084 C 
ATOM     14  C   UNL     1       5.996  -1.146  -2.914  0.00  0.00    +0.113 C 
ATOM     15  O   UNL     1       4.051  -0.802  -6.120  0.00  0.00    -0.346 OA
ATOM     16  C   UNL     1       3.978  -1.979  -6.951  0.00  0.00    +0.191 C 
ATOM     17  C   UNL     1       4.806  -3.020  -6.158  0.00  0.00    +0.191 C 
ATOM     18  O   UNL     1       5.847  -2.194  -5.585  0.00  0.00    -0.346 OA
ENDBRANCH   5   7
ENDBRANCH   1   2
BRANCH   1  19
ATOM     19  N   UNL     1       4.286  -1.124   1.980  0.00  0.00    +0.390 N 
ATOM     20  H   UNL     1       4.216  -0.168   2.295  0.00  0.00    -0.080 HD
BRANCH  19  21
ATOM     21  C   UNL     1       3.615  -1.264   0.681  0.00  0.00    -0.042 C 
BRANCH  21  25
ATOM     22  C   UNL     1      -0.391   0.187   0.982  0.00  0.00    +0.000 A 
ATOM     23  C   UNL     1       0.646   1.067   0.738  0.00  0.00    +0.000 A 
ATOM     24  C   UNL     1       1.943   0.598   0.641  0.00  0.00    +0.002 A 
ATOM     25  C   UNL     1       2.202  -0.752   0.788  0.00  0.00    -0.064 A 
ATOM     26  C   UNL     1       1.165  -1.632   1.033  0.00  0.00    +0.002 A 
ATOM     27  C   UNL     1      -0.132  -1.163   1.129  0.00  0.00    +0.000 A 
ENDBRANCH  21  25
ENDBRANCH  19  21
BRANCH  19  28
ATOM     28  C   UNL     1       3.644  -2.010   2.961  0.00  0.00    -0.042 C 
BRANCH  28  29
ATOM     29  C   UNL     1       4.237  -1.765   4.324  0.00  0.00    -0.064 A 
ATOM     30  C   UNL     1       5.270  -2.562   4.781  0.00  0.00    +0.004 A 
ATOM     31  C   UNL     1       5.816  -2.337   6.031  0.00  0.00    +0.038 A 
ATOM     32  C   UNL     1       5.326  -1.314   6.826  0.00  0.00    +0.123 A 
ATOM     33  C   UNL     1       4.292  -0.517   6.367  0.00  0.00    +0.038 A 
ATOM     34  C   UNL     1       3.752  -0.740   5.114  0.00  0.00    +0.004 A 
ATOM     35  F   UNL     1       5.858  -1.095   8.048  0.00  0.00    -0.205 F 
ENDBRANCH  28  29
ENDBRANCH  19  28
ENDBRANCH   1  19
TORSDOF 7
