REMARK  Name = ZINC13145027
REMARK  7 active torsions:
REMARK  status: ('A' for Active; 'I' for Inactive)
REMARK    1  A    between atoms: C_1  and  O_2
REMARK    2  A    between atoms: O_2  and  C_3
REMARK    3  A    between atoms: C_24  and  O_34
REMARK    4  A    between atoms: C_26  and  O_32
REMARK    5  A    between atoms: C_28  and  C_30
REMARK    6  A    between atoms: C_30  and  O_31
REMARK    7  A    between atoms: O_32  and  C_33
REMARK                            x       y       z     vdW  Elec       q    Type
REMARK                         _______ _______ _______ _____ _____    ______ ____
ROOT
ATOM      1  C   UNL     1      -1.975   1.163   1.348  0.00  0.00    +0.122 A 
ATOM      2  C   UNL     1      -2.568   0.363   0.379  0.00  0.00    +0.046 A 
ATOM      3  C   UNL     1      -3.867  -0.066   0.483  0.00  0.00    +0.014 A 
ATOM      4  C   UNL     1      -4.583   0.348   1.611  0.00  0.00    +0.003 A 
ATOM      5  C   UNL     1      -3.987   1.170   2.603  0.00  0.00    +0.050 A 
ATOM      6  C   UNL     1      -2.664   1.588   2.477  0.00  0.00    +0.071 A 
ATOM      7  N   UNL     1      -4.930   1.399   3.564  0.00  0.00    -0.359 N 
ATOM      8  H   UNL     1      -4.795   1.933   4.362  0.00  0.00    +0.166 HD
ATOM      9  C   UNL     1      -6.095   0.762   3.230  0.00  0.00    +0.007 A 
ATOM     10  C   UNL     1      -5.939   0.110   2.055  0.00  0.00    -0.022 A 
ATOM     11  C   UNL     1      -7.032  -0.696   1.398  0.00  0.00    +0.019 C 
ATOM     12  C   UNL     1      -8.367  -0.320   2.056  0.00  0.00    -0.073 C 
ATOM     13  C   UNL     1      -7.388   0.750   4.007  0.00  0.00    -0.020 C 
ATOM     14  C   UNL     1      -7.098   0.551   5.497  0.00  0.00    -0.005 C 
ATOM     15  C   UNL     1      -8.425   0.509   6.259  0.00  0.00    -0.003 C 
ATOM     16  C   UNL     1      -9.299  -0.616   5.700  0.00  0.00    -0.022 C 
ATOM     17  C   UNL     1      -9.518  -0.387   4.200  0.00  0.00    -0.074 C 
ATOM     18  C   UNL     1      -8.596  -1.960   5.903  0.00  0.00    +0.036 C 
ATOM     19  C   UNL     1      -8.348  -2.189   7.395  0.00  0.00    +0.144 C 
ATOM     20  C   UNL     1      -7.459  -1.070   7.939  0.00  0.00    +0.152 C 
ATOM     21  C   UNL     1      -8.162   0.275   7.745  0.00  0.00    +0.049 C 
ATOM     22  N   UNL     1      -8.199  -0.391   3.529  0.00  0.00    +0.386 N 
ATOM     23  H   UNL     1      -7.712  -1.264   3.763  0.00  0.00    -0.081 HD
ENDROOT
BRANCH   1  25
ATOM     24  C   UNL     1      -0.013   1.086   0.008  0.00  0.00    +0.277 C 
ATOM     25  O   UNL     1      -0.682   1.547   1.184  0.00  0.00    -0.495 OA
ENDBRANCH   1  25
BRANCH  20  26
ATOM     26  O   UNL     1      -6.215  -1.063   7.235  0.00  0.00    -0.377 OA
ATOM     27  C   UNL     1      -5.208  -1.886   7.827  0.00  0.00    +0.194 C 
ENDBRANCH  20  26
BRANCH  19  28
ATOM     28  O   UNL     1      -9.596  -2.188   8.091  0.00  0.00    -0.389 OA
ATOM     29  H   UNL     1     -10.212  -2.873   7.796  0.00  0.00    +0.210 HD
ENDBRANCH  19  28
BRANCH  21  30
ATOM     30  C   UNL     1      -7.274   1.397   8.287  0.00  0.00    +0.162 C 
BRANCH  30  31
ATOM     31  O   UNL     1      -7.122   1.244   9.700  0.00  0.00    -0.395 OA
ATOM     32  H   UNL     1      -6.569   1.922  10.112  0.00  0.00    +0.209 HD
ENDBRANCH  30  31
ENDBRANCH  21  30
TORSDOF 5
