REMARK  Name = ZINC60213824
REMARK  10 active torsions:
REMARK  status: ('A' for Active; 'I' for Inactive)
REMARK    1  A    between atoms: C_1  and  C_2
REMARK    2  A    between atoms: C_2  and  C_3
REMARK    3  A    between atoms: C_3  and  C_5
REMARK    4  A    between atoms: C_3  and  N_6
REMARK    5  A    between atoms: N_6  and  S_7
REMARK    6  A    between atoms: S_7  and  C_10
REMARK    7  A    between atoms: C_13  and  C_16
REMARK    8  A    between atoms: N_18  and  C_19
REMARK    9  A    between atoms: C_24  and  N_25
REMARK   10  A    between atoms: C_26  and  C_28
REMARK                            x       y       z     vdW  Elec       q    Type
REMARK                         _______ _______ _______ _____ _____    ______ ____
ROOT
ATOM      1  C   UNL     1      -6.702  -4.783  -0.198  0.00  0.00    +0.248 C 
ATOM      2  O   UNL     1      -6.939  -5.026  -1.365  0.00  0.00    -0.270 OA
ATOM      3  N   UNL     1      -7.096  -5.641   0.764  0.00  0.00    -0.280 N 
ATOM      4  H   UNL     1      -6.838  -5.489   1.686  0.00  0.00    +0.155 HD
ENDROOT
BRANCH   3   5
ATOM      5  C   UNL     1      -7.879  -6.753   0.431  0.00  0.00    +0.056 A 
ATOM      6  C   UNL     1      -8.669  -6.731  -0.709  0.00  0.00    +0.045 A 
ATOM      7  C   UNL     1      -9.441  -7.830  -1.036  0.00  0.00    +0.043 A 
ATOM      8  C   UNL     1      -9.429  -8.954  -0.229  0.00  0.00    +0.022 A 
ATOM      9  C   UNL     1      -8.645  -8.984   0.909  0.00  0.00    +0.026 A 
ATOM     10  C   UNL     1      -7.863  -7.888   1.241  0.00  0.00    +0.055 A 
ATOM     11 CL   UNL     1     -10.430  -7.801  -2.463  0.00  0.00    -0.083 Cl
BRANCH  10  12
ATOM     12  N   UNL     1      -7.062  -7.918   2.391  0.00  0.00    -0.284 N 
ATOM     13  C   UNL     1      -7.387  -8.729   3.417  0.00  0.00    +0.214 C 
ATOM     14  O   UNL     1      -8.424  -9.358   3.388  0.00  0.00    -0.276 OA
ATOM     15  C   UNL     1      -6.462  -8.856   4.599  0.00  0.00    +0.109 C 
ATOM     16  H   UNL     1      -6.274  -7.355   2.448  0.00  0.00    +0.155 HD
ENDBRANCH  10  12
ENDBRANCH   3   5
BRANCH   1  20
ATOM     17  C   UNL     1      -4.629  -1.227   0.852  0.00  0.00    +0.105 A 
ATOM     18  C   UNL     1      -4.897  -1.501  -0.478  0.00  0.00    +0.029 A 
ATOM     19  C   UNL     1      -5.570  -2.654  -0.826  0.00  0.00    +0.015 A 
ATOM     20  C   UNL     1      -5.980  -3.545   0.168  0.00  0.00    +0.037 A 
ATOM     21  C   UNL     1      -5.706  -3.263   1.507  0.00  0.00    +0.015 A 
ATOM     22  C   UNL     1      -5.028  -2.108   1.840  0.00  0.00    +0.029 A 
BRANCH  17  23
ATOM     23  S   UNL     1      -3.770   0.249   1.287  0.00  0.00    +0.059 S 
ATOM     24  O   UNL     1      -4.117   0.539   2.634  0.00  0.00    -0.153 OA
ATOM     25  O   UNL     1      -3.986   1.172   0.229  0.00  0.00    -0.153 OA
BRANCH  23  26
ATOM     26  N   UNL     1      -2.152  -0.107   1.281  0.00  0.00    -0.187 NA
ATOM     27  H   UNL     1      -1.645  -0.070   2.106  0.00  0.00    +0.148 HD
BRANCH  26  28
ATOM     28  C   UNL     1      -1.488  -0.477   0.029  0.00  0.00    +0.073 C 
ATOM     29  C   UNL     1      -1.452  -2.002  -0.098  0.00  0.00    +0.025 C 
BRANCH  28  31
ATOM     30  C   UNL     1      -0.098   1.598   0.028  0.00  0.00    +0.005 C 
ATOM     31  C   UNL     1      -0.059   0.069   0.028  0.00  0.00    +0.017 C 
ENDBRANCH  28  31
ENDBRANCH  26  28
ENDBRANCH  23  26
ENDBRANCH  17  23
ENDBRANCH   1  20
TORSDOF 7
