REMARK  Name = ZINC36007627
REMARK  10 active torsions:
REMARK  status: ('A' for Active; 'I' for Inactive)
REMARK    1  A    between atoms: C_1  and  C_2
REMARK    2  A    between atoms: C_3  and  C_7
REMARK    3  A    between atoms: C_10  and  S_13
REMARK    4  A    between atoms: N_11  and  N_12
REMARK    5  A    between atoms: S_13  and  C_14
REMARK    6  A    between atoms: C_14  and  C_15
REMARK    7  A    between atoms: N_17  and  C_18
REMARK    8  A    between atoms: C_25  and  C_29
REMARK    9  A    between atoms: C_26  and  C_27
REMARK   10  A    between atoms: C_26  and  C_28
REMARK                            x       y       z     vdW  Elec       q    Type
REMARK                         _______ _______ _______ _____ _____    ______ ____
ROOT
ATOM      1  S   UNL     1      -6.793   1.092  -2.707  0.00  0.00    -0.075 S 
ENDROOT
BRANCH   1   5
ATOM      2  C   UNL     1      -2.952   1.766  -2.966  0.00  0.00    +0.185 A 
ATOM      3  N   UNL     1      -3.221   2.098  -1.725  0.00  0.00    -0.127 NA
ATOM      4  N   UNL     1      -4.472   1.927  -1.486  0.00  0.00    -0.121 NA
ATOM      5  C   UNL     1      -5.079   1.475  -2.559  0.00  0.00    +0.209 A 
ATOM      6  N   UNL     1      -4.135   1.362  -3.541  0.00  0.00    -0.224 N 
BRANCH   2   9
ATOM      7  C   UNL     1      -0.261   2.689  -1.650  0.00  0.00    +0.087 C 
ATOM      8  C   UNL     1      -0.452   2.218  -3.069  0.00  0.00    +0.112 A 
ATOM      9  C   UNL     1      -1.629   1.821  -3.624  0.00  0.00    +0.061 A 
ATOM     10  C   UNL     1      -1.312   1.459  -5.011  0.00  0.00    +0.053 A 
ATOM     11  C   UNL     1       0.006   1.669  -5.158  0.00  0.00    +0.196 A 
ATOM     12  O   UNL     1       0.508   2.125  -4.000  0.00  0.00    -0.467 OA
ENDBRANCH   2   9
BRANCH   6  13
ATOM     13  N   UNL     1      -4.325   0.934  -4.824  0.00  0.00    -0.295 N 
ATOM     14  H   UNL     1      -4.204  -0.065  -4.894  0.00  0.00    +0.163 HD
ATOM     15  H   UNL     1      -5.231   1.214  -5.168  0.00  0.00    +0.163 HD
ENDBRANCH   6  13
ENDBRANCH   1   5
BRANCH   1  16
ATOM     16  C   UNL     1      -7.470   1.468  -1.067  0.00  0.00    +0.173 C 
BRANCH  16  17
ATOM     17  C   UNL     1      -8.949   1.180  -1.057  0.00  0.00    +0.224 C 
ATOM     18  O   UNL     1      -9.493   0.762  -2.057  0.00  0.00    -0.275 OA
ATOM     19  N   UNL     1      -9.668   1.386   0.064  0.00  0.00    -0.311 N 
ATOM     20  H   UNL     1      -9.233   1.720   0.865  0.00  0.00    +0.149 HD
BRANCH  19  21
ATOM     21  C   UNL     1     -11.106   1.107   0.074  0.00  0.00    +0.080 C 
ATOM     22  C   UNL     1     -11.591   0.830   1.516  0.00  0.00    +0.027 C 
ATOM     23  C   UNL     1     -12.640   1.948   1.800  0.00  0.00    -0.003 C 
ATOM     24  C   UNL     1     -11.796   3.252   1.933  0.00  0.00    +0.005 C 
ATOM     25  C   UNL     1     -11.295   3.541   0.499  0.00  0.00    +0.009 C 
ATOM     26  C   UNL     1     -11.908   2.365  -0.379  0.00  0.00    -0.008 C 
ATOM     27  C   UNL     1     -13.267   2.128   0.372  0.00  0.00    -0.025 C 
ATOM     28  C   UNL     1     -13.972   0.858  -0.109  0.00  0.00    +0.012 C 
ATOM     29  C   UNL     1     -14.184   3.350   0.298  0.00  0.00    +0.012 C 
ATOM     30  C   UNL     1     -11.982   2.602  -1.889  0.00  0.00    +0.013 C 
ENDBRANCH  19  21
ENDBRANCH  16  17
ENDBRANCH   1  16
TORSDOF 6
