REMARK  Name = ZINC14116683
REMARK  6 active torsions:
REMARK  status: ('A' for Active; 'I' for Inactive)
REMARK    1  A    between atoms: C_1  and  C_2
REMARK    2  A    between atoms: C_8  and  C_14
REMARK    3  A    between atoms: C_11  and  C_13
REMARK    4  A    between atoms: N_16  and  C_17
REMARK    5  A    between atoms: C_21  and  S_23
REMARK    6  A    between atoms: S_23  and  N_26
REMARK                            x       y       z     vdW  Elec       q    Type
REMARK                         _______ _______ _______ _____ _____    ______ ____
ROOT
ATOM      1  C   UNL     1       5.026  -4.901  -1.458  0.00  0.00    +0.036 A 
ATOM      2  C   UNL     1       4.918  -5.278  -0.126  0.00  0.00    +0.023 A 
ATOM      3  C   UNL     1       5.688  -6.315   0.361  0.00  0.00    +0.004 A 
ATOM      4  C   UNL     1       6.566  -6.979  -0.476  0.00  0.00    +0.029 A 
ATOM      5  C   UNL     1       6.677  -6.606  -1.802  0.00  0.00    +0.114 A 
ATOM      6  C   UNL     1       5.905  -5.573  -2.298  0.00  0.00    +0.052 A 
ENDROOT
BRANCH   1   9
ATOM      7  C   UNL     1       3.778  -3.898  -3.217  0.00  0.00    +0.252 C 
ATOM      8  O   UNL     1       4.099  -4.812  -3.952  0.00  0.00    -0.270 OA
ATOM      9  N   UNL     1       4.247  -3.850  -1.955  0.00  0.00    -0.281 N 
ATOM     10  H   UNL     1       4.046  -3.087  -1.391  0.00  0.00    +0.155 HD
BRANCH   7  17
ATOM     11  C   UNL     1      -0.348  -2.058  -7.115  0.00  0.00    +0.016 C 
ATOM     12  C   UNL     1       1.159  -2.203  -6.894  0.00  0.00    +0.060 C 
ATOM     13  C   UNL     1       1.528  -1.884  -5.457  0.00  0.00    +0.001 A 
ATOM     14  C   UNL     1       1.173  -0.851  -4.620  0.00  0.00    +0.007 A 
ATOM     15  C   UNL     1       1.659  -0.802  -3.323  0.00  0.00    +0.001 A 
ATOM     16  C   UNL     1       2.503  -1.792  -2.867  0.00  0.00    +0.017 A 
ATOM     17  C   UNL     1       2.873  -2.841  -3.708  0.00  0.00    +0.079 A 
ATOM     18  C   UNL     1       2.382  -2.890  -5.026  0.00  0.00    +0.137 A 
ATOM     19  O   UNL     1       2.620  -3.793  -6.012  0.00  0.00    -0.487 OA
ATOM     20  C   UNL     1       1.596  -3.682  -7.016  0.00  0.00    +0.178 C 
ATOM     21  C   UNL     1       2.166  -3.965  -8.407  0.00  0.00    +0.052 C 
ENDBRANCH   7  17
ENDBRANCH   1   9
BRANCH   5  22
ATOM     22  S   UNL     1       7.798  -7.454  -2.864  0.00  0.00    +0.100 S 
ATOM     23  O   UNL     1       8.112  -6.558  -3.922  0.00  0.00    -0.146 OA
ATOM     24  O   UNL     1       8.796  -8.025  -2.029  0.00  0.00    -0.146 OA
BRANCH  22  25
ATOM     25  N   UNL     1       6.970  -8.716  -3.543  0.00  0.00    -0.118 NA
ATOM     26  C   UNL     1       7.566  -9.509  -4.373  0.00  0.00    +0.117 C 
ATOM     27  N   UNL     1       8.876  -9.409  -4.760  0.00  0.00    -0.331 N 
ATOM     28  C   UNL     1       9.325 -10.705  -5.293  0.00  0.00    +0.103 C 
ATOM     29  C   UNL     1       8.052 -11.335  -5.900  0.00  0.00    +0.026 C 
ATOM     30  C   UNL     1       6.926 -10.695  -5.061  0.00  0.00    +0.074 C 
ATOM     31  H   UNL     1       9.421  -8.609  -4.694  0.00  0.00    +0.147 HD
ENDBRANCH  22  25
ENDBRANCH   5  22
TORSDOF 4
