REMARK  Name = ZINC35429439
REMARK  4 active torsions:
REMARK  status: ('A' for Active; 'I' for Inactive)
REMARK    1  A    between atoms: C_10  and  O_11
REMARK    2  A    between atoms: O_11  and  C_12
REMARK    3  A    between atoms: C_13  and  C_20
REMARK    4  A    between atoms: C_20  and  O_21
REMARK                            x       y       z     vdW  Elec       q    Type
REMARK                         _______ _______ _______ _____ _____    ______ ____
ROOT
ATOM      1  O   UNL     1       4.837   0.079  -0.044  0.00  0.00    -0.436 OA
ENDROOT
BRANCH   1  11
ATOM      2  C   UNL     1       0.016   1.270  -0.769  0.00  0.00    +0.001 A 
ATOM      3  C   UNL     1       1.202   2.000  -0.818  0.00  0.00    +0.001 A 
ATOM      4  C   UNL     1       2.401   1.405  -0.572  0.00  0.00    +0.012 A 
ATOM      5  C   UNL     1       2.447   0.036  -0.263  0.00  0.00    +0.024 A 
ATOM      6  C   UNL     1       1.242  -0.707  -0.214  0.00  0.00    -0.014 A 
ATOM      7  C   UNL     1       0.022  -0.058  -0.474  0.00  0.00    +0.008 A 
ATOM      8  C   UNL     1       1.286  -2.077   0.095  0.00  0.00    +0.009 A 
ATOM      9  C   UNL     1       2.482  -2.679   0.344  0.00  0.00    +0.004 A 
ATOM     10  C   UNL     1       3.672  -1.958   0.298  0.00  0.00    +0.047 A 
ATOM     11  C   UNL     1       3.671  -0.614  -0.002  0.00  0.00    +0.138 A 
ENDBRANCH   1  11
BRANCH   1  12
ATOM     12  C   UNL     1       6.000  -0.621   0.047  0.00  0.00    +0.245 A 
ATOM     13  C   UNL     1       7.235  -0.091   0.154  0.00  0.00    +0.113 A 
ATOM     14  N   UNL     1       8.144  -1.148   0.222  0.00  0.00    -0.292 N 
ATOM     15  C   UNL     1       9.506  -1.327   0.333  0.00  0.00    +0.101 A 
ATOM     16  C   UNL     1      10.033  -2.550   0.366  0.00  0.00    +0.067 A 
ATOM     17  S   UNL     1       8.580  -3.581   0.237  0.00  0.00    -0.058 S 
ATOM     18  C   UNL     1       7.374  -2.278   0.148  0.00  0.00    +0.181 A 
ATOM     19  N   UNL     1       6.114  -1.960   0.051  0.00  0.00    -0.186 NA
BRANCH  13  20
ATOM     20  C   UNL     1       7.572   1.377   0.194  0.00  0.00    +0.215 C 
BRANCH  20  21
ATOM     21  O   UNL     1       7.790   1.852  -1.136  0.00  0.00    -0.389 OA
ATOM     22  H   UNL     1       8.012   2.792  -1.187  0.00  0.00    +0.210 HD
ENDBRANCH  20  21
ENDBRANCH  13  20
ENDBRANCH   1  12
TORSDOF 4
