REMARK  Name = ZINC14550671
REMARK  2 active torsions:
REMARK  status: ('A' for Active; 'I' for Inactive)
REMARK    1  A    between atoms: C_12  and  C_21
REMARK    2  A    between atoms: C_24  and  N_27
REMARK                            x       y       z     vdW  Elec       q    Type
REMARK                         _______ _______ _______ _____ _____    ______ ____
ROOT
ATOM      1  C   UNL     1      -5.180   5.490  -3.684  0.00  0.00    +0.001 A 
ATOM      2  C   UNL     1      -3.874   5.885  -3.968  0.00  0.00    +0.001 A 
ATOM      3  C   UNL     1      -2.944   5.997  -2.980  0.00  0.00    +0.010 A 
ATOM      4  C   UNL     1      -3.304   5.711  -1.653  0.00  0.00    +0.003 A 
ATOM      5  C   UNL     1      -4.630   5.309  -1.364  0.00  0.00    -0.016 A 
ATOM      6  C   UNL     1      -5.563   5.205  -2.409  0.00  0.00    +0.008 A 
ATOM      7  C   UNL     1      -4.984   5.022  -0.035  0.00  0.00    +0.009 A 
ATOM      8  C   UNL     1      -4.056   5.132   0.950  0.00  0.00    +0.006 A 
ATOM      9  C   UNL     1      -2.740   5.530   0.684  0.00  0.00    -0.019 A 
ATOM     10  C   UNL     1      -2.359   5.822  -0.604  0.00  0.00    +0.039 A 
ATOM     11  N   UNL     1      -1.069   6.228  -0.928  0.00  0.00    -0.336 N 
ATOM     12  C   UNL     1      -0.076   5.747   0.033  0.00  0.00    +0.105 C 
ATOM     13  C   UNL     1      -0.444   6.246   1.433  0.00  0.00    +0.029 C 
ATOM     14  C   UNL     1      -1.792   5.618   1.845  0.00  0.00    +0.049 C 
ATOM     15  C   UNL     1      -1.422   4.237   2.335  0.00  0.00    -0.023 C 
ATOM     16  C   UNL     1      -0.155   4.193   2.666  0.00  0.00    -0.030 C 
ATOM     17  C   UNL     1       0.498   5.543   2.450  0.00  0.00    +0.033 C 
ATOM     18  H   UNL     1      -1.021   7.230  -1.028  0.00  0.00    +0.147 HD
ENDROOT
BRANCH  12  19
ATOM     19  C   UNL     1      -0.056   4.240   0.025  0.00  0.00    -0.027 A 
ATOM     20  C   UNL     1      -1.146   3.537  -0.451  0.00  0.00    +0.008 A 
ATOM     21  C   UNL     1      -1.127   2.155  -0.459  0.00  0.00    +0.033 A 
ATOM     22  C   UNL     1      -0.018   1.476   0.008  0.00  0.00    +0.126 A 
ATOM     23  C   UNL     1       1.071   2.179   0.489  0.00  0.00    +0.033 A 
ATOM     24  C   UNL     1       1.054   3.562   0.492  0.00  0.00    +0.008 A 
BRANCH  22  25
ATOM     25  N   UNL     1       0.002  -0.004   0.000  0.00  0.00    +0.056 N 
ATOM     26  O   UNL     1      -0.959  -0.624  -0.418  0.00  0.00    -0.126 OA
ATOM     27  O   UNL     1       0.980  -0.602   0.412  0.00  0.00    -0.126 OA
ENDBRANCH  22  25
ENDBRANCH  12  19
TORSDOF 2
