REMARK  Name = ZINC13190190
REMARK  7 active torsions:
REMARK  status: ('A' for Active; 'I' for Inactive)
REMARK    1  A    between atoms: C_1  and  N_2
REMARK    2  A    between atoms: N_2  and  C_3
REMARK    3  A    between atoms: N_2  and  S_4
REMARK    4  A    between atoms: S_4  and  C_7
REMARK    5  A    between atoms: C_10  and  N_15
REMARK    6  A    between atoms: C_11  and  C_13
REMARK    7  A    between atoms: N_15  and  C_16
REMARK                            x       y       z     vdW  Elec       q    Type
REMARK                         _______ _______ _______ _____ _____    ______ ____
ROOT
ATOM      1  C   UNL     1       3.551  -1.317   0.066  0.00  0.00    +0.106 A 
ATOM      2  C   UNL     1       4.775  -0.674  -0.033  0.00  0.00    +0.030 A 
ATOM      3  C   UNL     1       4.837   0.701  -0.130  0.00  0.00    +0.025 A 
ATOM      4  C   UNL     1       3.668   1.452  -0.137  0.00  0.00    +0.042 A 
ATOM      5  C   UNL     1       2.426   0.804  -0.032  0.00  0.00    +0.086 A 
ATOM      6  C   UNL     1       2.381  -0.590   0.067  0.00  0.00    +0.045 A 
ENDROOT
BRANCH   1   7
ATOM      7  S   UNL     1       3.491  -3.073   0.190  0.00  0.00    +0.060 S 
ATOM      8  O   UNL     1       4.745  -3.486   0.717  0.00  0.00    -0.153 OA
ATOM      9  O   UNL     1       2.258  -3.394   0.819  0.00  0.00    -0.153 OA
BRANCH   7  11
ATOM     10  C   UNL     1       4.635  -3.981  -2.086  0.00  0.00    +0.131 C 
ATOM     11  N   UNL     1       3.406  -3.670  -1.352  0.00  0.00    -0.183 NA
ATOM     12  C   UNL     1       2.101  -3.888  -1.982  0.00  0.00    +0.131 C 
ENDBRANCH   7  11
ENDBRANCH   1   7
BRANCH   5  13
ATOM     13  C   UNL     1       1.179   1.588  -0.032  0.00  0.00    +0.388 C 
ATOM     14  O   UNL     1       1.224   2.802  -0.007  0.00  0.00    -0.241 OA
ATOM     15  O   UNL     1      -0.012   0.959  -0.059  0.00  0.00    -0.241 OA
ENDBRANCH   5  13
BRANCH   4  16
ATOM     16  N   UNL     1       3.727   2.835  -0.241  0.00  0.00    -0.340 N 
ATOM     17  H   UNL     1       2.917   3.362  -0.158  0.00  0.00    +0.146 HD
BRANCH  16  18
ATOM     18  C   UNL     1       5.012   3.497  -0.476  0.00  0.00    +0.070 C 
ATOM     19  C   UNL     1       5.726   3.714   0.861  0.00  0.00    +0.022 C 
ATOM     20  C   UNL     1       7.201   4.029   0.605  0.00  0.00    +0.002 C 
ATOM     21  C   UNL     1       7.750   3.076  -0.459  0.00  0.00    +0.000 C 
ATOM     22  C   UNL     1       8.089   3.865  -1.725  0.00  0.00    +0.000 C 
ATOM     23  C   UNL     1       6.798   4.211  -2.470  0.00  0.00    +0.000 C 
ATOM     24  C   UNL     1       6.085   5.358  -1.751  0.00  0.00    +0.002 C 
ATOM     25  C   UNL     1       4.773   4.849  -1.151  0.00  0.00    +0.022 C 
ENDBRANCH  16  18
ENDBRANCH   4  16
TORSDOF 5
