REMARK  Name = ZINC63141753
REMARK  4 active torsions:
REMARK  status: ('A' for Active; 'I' for Inactive)
REMARK    1  A    between atoms: C_8  and  C_29
REMARK    2  A    between atoms: N_19  and  C_23
REMARK    3  A    between atoms: C_23  and  C_24
REMARK    4  A    between atoms: C_33  and  N_35
REMARK                            x       y       z     vdW  Elec       q    Type
REMARK                         _______ _______ _______ _____ _____    ______ ____
ROOT
ATOM      1  C   UNL     1      -0.047   1.286  -0.134  0.00  0.00    +0.001 A 
ATOM      2  C   UNL     1       1.106   2.076  -0.184  0.00  0.00    +0.002 A 
ATOM      3  C   UNL     1       2.371   1.587  -0.192  0.00  0.00    +0.026 A 
ATOM      4  C   UNL     1       2.528   0.171  -0.145  0.00  0.00    +0.043 A 
ATOM      5  N   UNL     1       3.605  -0.557  -0.122  0.00  0.00    -0.375 N 
ATOM      6  C   UNL     1       3.211  -1.967  -0.144  0.00  0.00    +0.131 C 
ATOM      7  C   UNL     1       3.753  -2.726   1.071  0.00  0.00    +0.133 C 
ATOM      8  N   UNL     1       3.015  -4.004   1.172  0.00  0.00    -0.279 N 
ATOM      9  C   UNL     1       1.568  -3.983   1.361  0.00  0.00    +0.167 C 
ATOM     10  C   UNL     1       0.900  -3.234   0.194  0.00  0.00    +0.065 C 
ATOM     11  C   UNL     1       1.692  -1.967  -0.032  0.00  0.00    -0.034 C 
ATOM     12  C   UNL     1       1.312  -0.696  -0.083  0.00  0.00    -0.001 A 
ATOM     13  C   UNL     1      -0.021  -0.072  -0.083  0.00  0.00    +0.010 A 
ATOM     14  C   UNL     1       0.982  -5.352   1.466  0.00  0.00    +0.237 C 
ATOM     15  O   UNL     1      -0.214  -5.445   1.645  0.00  0.00    -0.274 OA
ATOM     16  N   UNL     1       1.688  -6.477   1.375  0.00  0.00    -0.286 N 
ATOM     17  C   UNL     1       3.125  -6.510   1.161  0.00  0.00    +0.204 C 
ATOM     18  C   UNL     1       3.715  -5.141   1.084  0.00  0.00    +0.234 C 
ATOM     19  O   UNL     1       4.912  -5.053   0.909  0.00  0.00    -0.274 OA
ATOM     20  H   UNL     1       4.515  -0.222  -0.096  0.00  0.00    +0.160 HD
ENDROOT
BRANCH   7  21
ATOM     21  C   UNL     1       5.224  -2.998   0.888  0.00  0.00    -0.023 A 
ATOM     22  C   UNL     1       6.062  -3.037   1.987  0.00  0.00    +0.005 A 
ATOM     23  C   UNL     1       7.411  -3.287   1.819  0.00  0.00    +0.003 A 
ATOM     24  C   UNL     1       7.923  -3.498   0.552  0.00  0.00    +0.033 A 
ATOM     25  C   UNL     1       7.085  -3.461  -0.546  0.00  0.00    +0.127 A 
ATOM     26  C   UNL     1       5.735  -3.216  -0.378  0.00  0.00    +0.038 A 
BRANCH  25  27
ATOM     27  N   UNL     1       7.632  -3.687  -1.903  0.00  0.00    +0.056 N 
ATOM     28  O   UNL     1       8.812  -3.905  -2.050  0.00  0.00    -0.126 OA
ATOM     29  O   UNL     1       6.899  -3.655  -2.864  0.00  0.00    -0.126 OA
ENDBRANCH  25  27
ENDBRANCH   7  21
BRANCH  16  30
ATOM     30  C   UNL     1       0.977  -7.753   1.497  0.00  0.00    +0.150 C 
BRANCH  30  31
ATOM     31  C   UNL     1       0.524  -8.208   0.134  0.00  0.00    +0.007 A 
ATOM     32  C   UNL     1       1.172  -8.989  -0.765  0.00  0.00    +0.013 A 
ATOM     33  C   UNL     1       0.555  -9.281  -1.966  0.00  0.00    +0.008 A 
ATOM     34  C   UNL     1      -0.680  -8.779  -2.211  0.00  0.00    +0.045 A 
ATOM     35  S   UNL     1      -1.010  -7.866  -0.713  0.00  0.00    -0.100 S 
ENDBRANCH  30  31
ENDBRANCH  16  30
TORSDOF 4
