REMARK  Name = ZINC40929159
REMARK  6 active torsions:
REMARK  status: ('A' for Active; 'I' for Inactive)
REMARK    1  A    between atoms: C_1  and  C_2
REMARK    2  A    between atoms: C_9  and  C_11
REMARK    3  A    between atoms: N_14  and  C_17
REMARK    4  A    between atoms: C_17  and  C_18
REMARK    5  A    between atoms: C_20  and  C_23
REMARK    6  A    between atoms: C_26  and  C_29
REMARK                            x       y       z     vdW  Elec       q    Type
REMARK                         _______ _______ _______ _____ _____    ______ ____
ROOT
ATOM      1  C   UNL     1       0.477  -4.260   2.010  0.00  0.00    +0.072 C 
ATOM      2  C   UNL     1      -0.309  -4.664   0.758  0.00  0.00    -0.006 C 
ATOM      3  C   UNL     1      -0.342  -6.191   0.654  0.00  0.00    -0.077 C 
ATOM      4  N   UNL     1      -0.992  -6.752   1.844  0.00  0.00    +0.386 N 
ATOM      5  C   UNL     1      -0.205  -6.429   3.041  0.00  0.00    -0.077 C 
ATOM      6  C   UNL     1      -0.167  -4.912   3.237  0.00  0.00    -0.006 C 
ATOM      7  H   UNL     1      -1.918  -6.361   1.936  0.00  0.00    -0.081 HD
ENDROOT
BRANCH   1  15
ATOM      8  C   UNL     1       4.796  -2.566   0.096  0.00  0.00    +0.009 C 
ATOM      9  C   UNL     1       3.716  -2.038   1.041  0.00  0.00    +0.003 C 
ATOM     10  C   UNL     1       3.666  -0.511   0.958  0.00  0.00    +0.006 C 
ATOM     11  C   UNL     1       2.608   0.020   1.928  0.00  0.00    +0.019 C 
ATOM     12  C   UNL     1       1.234  -0.531   1.531  0.00  0.00    +0.108 C 
ATOM     13  N   UNL     1       1.313  -1.996   1.468  0.00  0.00    -0.301 N 
ATOM     14  C   UNL     1       2.355  -2.613   0.635  0.00  0.00    +0.111 C 
ATOM     15  C   UNL     1       0.447  -2.761   2.161  0.00  0.00    +0.219 C 
ATOM     16  O   UNL     1      -0.357  -2.243   2.907  0.00  0.00    -0.275 OA
ENDBRANCH   1  15
BRANCH   4  17
ATOM     17  C   UNL     1      -1.091  -8.211   1.704  0.00  0.00    +0.022 C 
BRANCH  17  18
ATOM     18  C   UNL     1      -1.867  -8.776   2.866  0.00  0.00    +0.211 A 
ATOM     19  N   UNL     1      -3.156  -8.953   2.906  0.00  0.00    -0.193 NA
ATOM     20  C   UNL     1      -3.513  -9.476   4.093  0.00  0.00    +0.202 A 
ATOM     21  N   UNL     1      -2.435  -9.635   4.821  0.00  0.00    -0.056 NA
ATOM     22  O   UNL     1      -1.345  -9.186   4.029  0.00  0.00    -0.340 OA
BRANCH  20  23
ATOM     23  C   UNL     1      -4.896  -9.815   4.510  0.00  0.00    +0.022 A 
ATOM     24  C   UNL     1      -5.961  -9.601   3.637  0.00  0.00    +0.012 A 
ATOM     25  C   UNL     1      -7.246  -9.918   4.029  0.00  0.00    +0.013 A 
ATOM     26  C   UNL     1      -7.477 -10.447   5.286  0.00  0.00    +0.055 A 
ATOM     27  C   UNL     1      -6.424 -10.662   6.156  0.00  0.00    +0.013 A 
ATOM     28  C   UNL     1      -5.135 -10.354   5.772  0.00  0.00    +0.012 A 
BRANCH  26  29
ATOM     29  C   UNL     1      -8.883 -10.791   5.709  0.00  0.00    +0.417 C 
ATOM     30  F   UNL     1      -9.166 -12.114   5.355  0.00  0.00    -0.166 F 
ATOM     31  F   UNL     1      -9.002 -10.643   7.095  0.00  0.00    -0.166 F 
ATOM     32  F   UNL     1      -9.785  -9.934   5.069  0.00  0.00    -0.166 F 
ENDBRANCH  26  29
ENDBRANCH  20  23
ENDBRANCH  17  18
ENDBRANCH   4  17
TORSDOF 5
