REMARK  Name = ZINC35290220
REMARK  7 active torsions:
REMARK  status: ('A' for Active; 'I' for Inactive)
REMARK    1  A    between atoms: C_1  and  C_2
REMARK    2  A    between atoms: C_9  and  C_11
REMARK    3  A    between atoms: C_11  and  S_12
REMARK    4  A    between atoms: S_12  and  C_13
REMARK    5  A    between atoms: C_23  and  C_27
REMARK    6  A    between atoms: C_24  and  C_25
REMARK    7  A    between atoms: C_24  and  C_26
REMARK                            x       y       z     vdW  Elec       q    Type
REMARK                         _______ _______ _______ _____ _____    ______ ____
ROOT
ATOM      1  C   UNL     1       3.777   0.514   5.386  0.00  0.00    +0.210 A 
ATOM      2  N   UNL     1       4.310   1.268   6.346  0.00  0.00    -0.223 NA
ATOM      3  C   UNL     1       5.106   0.706   7.227  0.00  0.00    +0.074 A 
ATOM      4  C   UNL     1       5.372  -0.658   7.133  0.00  0.00    +0.089 A 
ATOM      5  N   UNL     1       4.822  -1.360   6.169  0.00  0.00    -0.150 NA
ATOM      6  N   UNL     1       4.039  -0.786   5.319  0.00  0.00    -0.122 NA
ATOM      7  C   UNL     1       6.319  -1.017   8.278  0.00  0.00    +0.048 C 
ATOM      8  C   UNL     1       7.677  -0.358   7.878  0.00  0.00    +0.011 C 
ATOM      9  C   UNL     1       7.398   1.162   7.969  0.00  0.00    +0.014 C 
ATOM     10  C   UNL     1       5.878   1.241   8.433  0.00  0.00    +0.018 C 
ATOM     11  C   UNL     1       5.810  -0.015   9.379  0.00  0.00    -0.016 C 
ATOM     12  C   UNL     1       6.777   0.093  10.560  0.00  0.00    +0.012 C 
ATOM     13  C   UNL     1       4.382  -0.325   9.833  0.00  0.00    +0.012 C 
ATOM     14  C   UNL     1       5.398   2.576   9.005  0.00  0.00    +0.018 C 
ENDROOT
BRANCH   1  15
ATOM     15  S   UNL     1       2.707   1.249   4.195  0.00  0.00    -0.075 S 
BRANCH  15  16
ATOM     16  C   UNL     1       2.232  -0.133   3.120  0.00  0.00    +0.173 C 
BRANCH  16  24
ATOM     17  C   UNL     1       0.008   1.528  -0.006  0.00  0.00    +0.028 C 
ATOM     18  C   UNL     1       0.016  -0.002  -0.007  0.00  0.00    +0.073 C 
ATOM     19  C   UNL     1       0.633  -0.512  -1.313  0.00  0.00    +0.022 C 
ATOM     20  C   UNL     1       0.765  -2.035  -1.250  0.00  0.00    +0.003 C 
ATOM     21  C   UNL     1       1.692  -2.421  -0.095  0.00  0.00    +0.019 C 
ATOM     22  C   UNL     1       1.087  -1.933   1.225  0.00  0.00    +0.108 C 
ATOM     23  N   UNL     1       0.819  -0.492   1.122  0.00  0.00    -0.298 N 
ATOM     24  C   UNL     1       1.304   0.365   2.042  0.00  0.00    +0.226 C 
ATOM     25  O   UNL     1       0.994   1.537   2.003  0.00  0.00    -0.275 OA
ENDBRANCH  16  24
ENDBRANCH  15  16
ENDBRANCH   1  15
TORSDOF 3
