REMARK  Name = ZINC35621607
REMARK  12 active torsions:
REMARK  status: ('A' for Active; 'I' for Inactive)
REMARK    1  A    between atoms: C_1  and  C_2
REMARK    2  A    between atoms: C_2  and  C_3
REMARK    3  A    between atoms: C_4  and  C_17
REMARK    4  A    between atoms: C_5  and  O_16
REMARK    5  A    between atoms: N_6  and  C_8
REMARK    6  A    between atoms: C_11  and  O_14
REMARK    7  A    between atoms: O_14  and  C_15
REMARK    8  A    between atoms: C_18  and  N_31
REMARK    9  A    between atoms: N_21  and  C_24
REMARK   10  A    between atoms: C_27  and  C_30
REMARK   11  A    between atoms: N_34  and  C_37
REMARK   12  A    between atoms: C_37  and  C_38
REMARK                            x       y       z     vdW  Elec       q    Type
REMARK                         _______ _______ _______ _____ _____    ______ ____
ROOT
ATOM      1  C   UNL     1      -1.652  -0.622   2.538  0.00  0.00    +0.078 C 
ATOM      2  C   UNL     1      -1.891   0.454   3.352  0.00  0.00    +0.106 C 
ATOM      3  C   UNL     1      -1.408   0.076   4.695  0.00  0.00    +0.272 C 
ATOM      4  O   UNL     1      -1.451   0.777   5.686  0.00  0.00    -0.268 OA
ATOM      5  N   UNL     1      -0.914  -1.172   4.637  0.00  0.00    -0.201 N 
ATOM      6  C   UNL     1      -1.028  -1.658   3.389  0.00  0.00    +0.260 C 
ATOM      7  O   UNL     1      -0.675  -2.760   3.021  0.00  0.00    -0.269 OA
ENDROOT
BRANCH   5   8
ATOM      8  C   UNL     1      -0.364  -1.869   5.722  0.00  0.00    +0.045 A 
ATOM      9  C   UNL     1      -0.307  -1.272   6.974  0.00  0.00    +0.024 A 
ATOM     10  C   UNL     1       0.236  -1.961   8.041  0.00  0.00    +0.005 A 
ATOM     11  C   UNL     1       0.721  -3.243   7.864  0.00  0.00    -0.050 A 
ATOM     12  C   UNL     1       0.664  -3.841   6.618  0.00  0.00    +0.005 A 
ATOM     13  C   UNL     1       0.118  -3.159   5.548  0.00  0.00    +0.024 A 
ATOM     14  C   UNL     1       1.312  -3.992   9.030  0.00  0.00    +0.044 C 
ENDBRANCH   5   8
BRANCH   2  15
ATOM     15  N   UNL     1      -2.471   1.660   2.986  0.00  0.00    -0.323 N 
ATOM     16  C   UNL     1      -3.841   1.708   2.452  0.00  0.00    +0.120 C 
ATOM     17  C   UNL     1      -4.636   2.752   3.243  0.00  0.00    +0.103 C 
ATOM     18  N   UNL     1      -3.916   4.032   3.220  0.00  0.00    -0.300 NA
ATOM     19  C   UNL     1      -2.611   3.921   3.886  0.00  0.00    +0.103 C 
ATOM     20  C   UNL     1      -1.735   2.926   3.127  0.00  0.00    +0.120 C 
BRANCH  18  21
ATOM     21  C   UNL     1      -4.724   5.102   3.819  0.00  0.00    +0.081 C 
ATOM     22  C   UNL     1      -4.057   6.454   3.556  0.00  0.00    +0.020 C 
ENDBRANCH  18  21
ENDBRANCH   2  15
BRANCH   1  24
ATOM     23  C   UNL     1      -1.110  -0.376   0.029  0.00  0.00    +0.075 A 
ATOM     24  C   UNL     1      -1.962  -0.728   1.098  0.00  0.00    +0.073 A 
ATOM     25  C   UNL     1      -3.145  -1.193   0.542  0.00  0.00    +0.224 A 
ATOM     26  N   UNL     1      -3.010  -1.123  -0.802  0.00  0.00    -0.200 N 
ATOM     27  N   UNL     1      -1.741  -0.608  -1.090  0.00  0.00    -0.168 NA
BRANCH  26  28
ATOM     28  C   UNL     1      -3.978  -1.498  -1.745  0.00  0.00    +0.069 A 
ATOM     29  C   UNL     1      -4.817  -2.574  -1.489  0.00  0.00    +0.031 A 
ATOM     30  C   UNL     1      -5.770  -2.942  -2.418  0.00  0.00    +0.048 A 
ATOM     31  C   UNL     1      -5.888  -2.238  -3.608  0.00  0.00    +0.120 A 
ATOM     32  C   UNL     1      -5.048  -1.164  -3.865  0.00  0.00    +0.048 A 
ATOM     33  C   UNL     1      -4.100  -0.790  -2.933  0.00  0.00    +0.031 A 
BRANCH  31  34
ATOM     34  O   UNL     1      -6.825  -2.602  -4.522  0.00  0.00    -0.495 OA
ATOM     35  C   UNL     1      -6.891  -1.833  -5.725  0.00  0.00    +0.277 C 
ENDBRANCH  31  34
ENDBRANCH  26  28
BRANCH  23  37
ATOM     36  C   UNL     1       0.222   1.706   0.224  0.00  0.00    +0.010 C 
ATOM     37  C   UNL     1       0.285   0.179   0.157  0.00  0.00    +0.054 C 
ENDBRANCH  23  37
BRANCH  25  38
ATOM     38  O   UNL     1      -4.233  -1.635   1.219  0.00  0.00    -0.492 OA
ATOM     39  H   UNL     1      -4.876  -0.943   1.425  0.00  0.00    +0.294 HD
ENDBRANCH  25  38
ENDBRANCH   1  24
TORSDOF 8
