REMARK  Name = ZINC38731988
REMARK  7 active torsions:
REMARK  status: ('A' for Active; 'I' for Inactive)
REMARK    1  A    between atoms: CG_4  and  CB_7
REMARK    2  A    between atoms: CB_7  and  CA_8
REMARK    3  A    between atoms: CA_8  and  C_10
REMARK    4  A    between atoms: CA_8  and  N_12
REMARK    5  A    between atoms: C_10  and  O_11
REMARK    6  A    between atoms: C_13  and  C_15
REMARK    7  A    between atoms: C_21  and  C_23
REMARK                            x       y       z     vdW  Elec       q    Type
REMARK                         _______ _______ _______ _____ _____    ______ ____
ROOT
ATOM      1  C   UNK A   0       4.596   2.039   4.180  0.00  0.00    +0.087 C 
ATOM      2  C   UNK A   0       6.032   2.475   3.884  0.00  0.00    +0.013 C 
ATOM      3  C   UNK A   0       6.976   1.286   4.077  0.00  0.00    +0.001 C 
ATOM      4  C   UNK A   0       6.882   0.789   5.520  0.00  0.00    +0.001 C 
ATOM      5  C   UNK A   0       5.446   0.353   5.817  0.00  0.00    +0.013 C 
ATOM      6  C   UNK A   0       4.502   1.542   5.624  0.00  0.00    +0.087 C 
ENDROOT
BRANCH   6   7
ATOM      7  C   UNK A   0       3.087   1.112   5.916  0.00  0.00    +0.219 C 
ATOM      8  O   UNK A   0       2.784  -0.061   5.855  0.00  0.00    -0.275 OA
ATOM      9  N   UNK A   0       2.158   2.031   6.245  0.00  0.00    -0.298 N 
ATOM     10  C   UNK A   0       2.480   3.465   6.212  0.00  0.00    +0.126 C 
ATOM     11  C   UNK A   0       1.466   4.175   5.307  0.00  0.00    +0.125 C 
ATOM     12  N   UNK A   0       0.112   3.762   5.704  0.00  0.00    -0.314 N 
ATOM     13  C   UNK A   0      -0.210   2.328   5.737  0.00  0.00    +0.125 C 
ATOM     14  C   UNK A   0       0.803   1.619   6.636  0.00  0.00    +0.126 C 
ATOM     15  C   UNK A   0      -0.846   4.710   6.043  0.00  0.00    +0.099 A 
ATOM     16  C   UNK A   0      -0.567   6.063   5.875  0.00  0.00    +0.042 A 
ATOM     17  C   UNK A   0      -1.530   6.995   6.216  0.00  0.00    +0.005 A 
ATOM     18  C   UNK A   0      -2.743   6.542   6.717  0.00  0.00    +0.018 A 
ATOM     19  C   UNK A   0      -2.952   5.186   6.858  0.00  0.00    +0.084 A 
ATOM     20  N   UNK A   0      -2.018   4.318   6.519  0.00  0.00    -0.350 N 
ATOM     21  H   UNK A   0      -2.192   3.369   6.624  0.00  0.00    +0.166 HD
ENDBRANCH   6   7
BRANCH   1  23
ATOM     22  N   PHE A   1       4.212   1.139   1.908  0.00  0.00    -0.310 N 
ATOM     23  C   UNK A   0       4.204   0.929   3.240  0.00  0.00    +0.217 C 
ATOM     24  O   UNK A   0       3.881  -0.154   3.681  0.00  0.00    -0.275 OA
ATOM     25  H   PHE A   1       4.471   2.005   1.556  0.00  0.00    +0.149 HD
BRANCH  22  26
ATOM     26  CA  PHE A   1       3.831   0.059   0.994  0.00  0.00    +0.103 C 
BRANCH  26  27
ATOM     27  CB  PHE A   1       3.324   0.659  -0.319  0.00  0.00    +0.059 C 
BRANCH  27  31
ATOM     28  CZ  PHE A   1      -0.273   2.846   0.408  0.00  0.00    +0.000 A 
ATOM     29  CE1 PHE A   1       0.952   3.481   0.494  0.00  0.00    +0.000 A 
ATOM     30  CD1 PHE A   1       2.115   2.773   0.259  0.00  0.00    +0.004 A 
ATOM     31  CG  PHE A   1       2.055   1.430  -0.062  0.00  0.00    -0.046 A 
ATOM     32  CD2 PHE A   1       0.830   0.795  -0.147  0.00  0.00    +0.004 A 
ATOM     33  CE2 PHE A   1      -0.334   1.503   0.086  0.00  0.00    +0.000 A 
ENDBRANCH  27  31
ENDBRANCH  26  27
BRANCH  26  34
ATOM     34  C   PHE A   1       5.048  -0.825   0.714  0.00  0.00    +0.178 C 
BRANCH  34  35
ATOM     35  O   PHE A   1       6.036  -0.068   0.014  0.00  0.00    -0.393 OA
ATOM     36  H   PHE A   1       6.837  -0.567  -0.197  0.00  0.00    +0.209 HD
ENDBRANCH  34  35
ENDBRANCH  26  34
ENDBRANCH  22  26
ENDBRANCH   1  23
TORSDOF 7
