REMARK  Name = ZINC35512118
REMARK  6 active torsions:
REMARK  status: ('A' for Active; 'I' for Inactive)
REMARK    1  A    between atoms: C_1  and  C_2
REMARK    2  A    between atoms: C_2  and  C_3
REMARK    3  A    between atoms: C_9  and  C_25
REMARK    4  A    between atoms: C_28  and  O_31
REMARK    5  A    between atoms: O_31  and  C_32
REMARK    6  A    between atoms: C_32  and  C_33
REMARK                            x       y       z     vdW  Elec       q    Type
REMARK                         _______ _______ _______ _____ _____    ______ ____
ROOT
ATOM      1  C   UNL     1       0.707  -0.490  -1.238  0.00  0.00    +0.103 A 
ATOM      2  N   UNL     1       1.983  -0.760  -1.437  0.00  0.00    -0.145 NA
ATOM      3  N   UNL     1       2.418  -1.164  -2.549  0.00  0.00    -0.125 NA
ATOM      4  C   UNL     1       1.617  -1.343  -3.591  0.00  0.00    +0.191 A 
ATOM      5  S   UNL     1       0.051  -0.874  -2.859  0.00  0.00    -0.035 S 
ATOM      6  N   UNL     1       1.908  -1.775  -4.878  0.00  0.00    -0.230 N 
ATOM      7  C   UNL     1       3.238  -2.152  -5.384  0.00  0.00    +0.151 C 
ATOM      8  C   UNL     1       3.036  -2.539  -6.812  0.00  0.00    +0.072 A 
ATOM      9  C   UNL     1       3.984  -2.993  -7.834  0.00  0.00    +0.199 A 
ATOM     10  O   UNL     1       5.139  -3.293  -7.586  0.00  0.00    -0.287 OA
ATOM     11  C   UNL     1       3.404  -3.052  -9.199  0.00  0.00    +0.067 A 
ATOM     12  C   UNL     1       4.224  -3.271 -10.305  0.00  0.00    +0.053 A 
ATOM     13  C   UNL     1       3.669  -3.318 -11.567  0.00  0.00    +0.124 A 
ATOM     14  C   UNL     1       2.299  -3.147 -11.730  0.00  0.00    +0.042 A 
ATOM     15  C   UNL     1       1.481  -2.932 -10.645  0.00  0.00    +0.050 A 
ATOM     16  C   UNL     1       2.019  -2.883  -9.359  0.00  0.00    +0.140 A 
ATOM     17  O   UNL     1       1.190  -2.680  -8.309  0.00  0.00    -0.450 OA
ATOM     18  C   UNL     1       1.706  -2.401  -7.096  0.00  0.00    +0.199 A 
ATOM     19  C   UNL     1       1.021  -1.929  -5.882  0.00  0.00    +0.289 C 
ATOM     20  O   UNL     1      -0.171  -1.707  -5.797  0.00  0.00    -0.266 OA
ATOM     21  F   UNL     1       4.457  -3.530 -12.644  0.00  0.00    -0.205 F 
ENDROOT
BRANCH   7  22
ATOM     22  C   UNL     1       4.181  -0.980  -5.290  0.00  0.00    -0.022 A 
ATOM     23  C   UNL     1       3.725   0.296  -5.563  0.00  0.00    +0.009 A 
ATOM     24  C   UNL     1       4.588   1.372  -5.478  0.00  0.00    +0.046 A 
ATOM     25  C   UNL     1       5.912   1.171  -5.117  0.00  0.00    +0.121 A 
ATOM     26  C   UNL     1       6.367  -0.111  -4.843  0.00  0.00    +0.046 A 
ATOM     27  C   UNL     1       5.500  -1.183  -4.925  0.00  0.00    +0.009 A 
BRANCH  25  28
ATOM     28  O   UNL     1       6.763   2.227  -5.034  0.00  0.00    -0.492 OA
BRANCH  28  29
ATOM     29  C   UNL     1       8.112   1.946  -4.657  0.00  0.00    +0.225 C 
ATOM     30  C   UNL     1       8.913   3.249  -4.616  0.00  0.00    +0.048 C 
ENDBRANCH  28  29
ENDBRANCH  25  28
ENDBRANCH   7  22
BRANCH   1  32
ATOM     31  C   UNL     1      -0.019   1.526   0.010  0.00  0.00    +0.011 C 
ATOM     32  C   UNL     1       0.002  -0.004   0.002  0.00  0.00    +0.061 C 
ENDBRANCH   1  32
TORSDOF 4
