REMARK  Name = ZINC66473840
REMARK  11 active torsions:
REMARK  status: ('A' for Active; 'I' for Inactive)
REMARK    1  A    between atoms: C_1  and  C_2
REMARK    2  A    between atoms: C_2  and  C_3
REMARK    3  A    between atoms: C_3  and  C_4
REMARK    4  A    between atoms: C_4  and  N_5
REMARK    5  A    between atoms: C_6  and  C_8
REMARK    6  A    between atoms: C_12  and  C_28
REMARK    7  A    between atoms: N_14  and  C_16
REMARK    8  A    between atoms: C_16  and  C_17
REMARK    9  A    between atoms: C_19  and  N_25
REMARK   10  A    between atoms: C_22  and  O_23
REMARK   11  A    between atoms: O_23  and  C_24
REMARK                            x       y       z     vdW  Elec       q    Type
REMARK                         _______ _______ _______ _____ _____    ______ ____
ROOT
ATOM      1  C   UNL     1       2.269  -4.308  -3.932  0.00  0.00    +0.058 C 
ATOM      2  C   UNL     1       3.707  -3.780  -3.943  0.00  0.00    +0.009 C 
ATOM      3  C   UNL     1       4.460  -4.355  -2.740  0.00  0.00    -0.015 C 
ATOM      4  C   UNL     1       4.403  -5.883  -2.791  0.00  0.00    -0.071 C 
ATOM      5  N   UNL     1       3.004  -6.325  -2.752  0.00  0.00    +0.385 N 
ATOM      6  C   UNL     1       2.292  -5.838  -3.940  0.00  0.00    -0.065 C 
ATOM      7  C   UNL     1       5.154  -6.462  -1.591  0.00  0.00    -0.013 C 
ATOM      8  H   UNL     1       2.560  -5.961  -1.922  0.00  0.00    -0.081 HD
ENDROOT
BRANCH   1  10
ATOM      9  N   UNL     1       1.425  -2.500  -2.470  0.00  0.00    -0.315 N 
ATOM     10  C   UNL     1       1.564  -3.822  -2.692  0.00  0.00    +0.214 C 
ATOM     11  O   UNL     1       1.121  -4.620  -1.894  0.00  0.00    -0.276 OA
ATOM     12  H   UNL     1       1.779  -1.861  -3.109  0.00  0.00    +0.149 HD
BRANCH   9  13
ATOM     13  C   UNL     1       0.739  -2.027  -1.265  0.00  0.00    +0.104 C 
BRANCH  13  14
ATOM     14  C   UNL     1       0.718  -0.497  -1.257  0.00  0.00    +0.018 C 
BRANCH  14  16
ATOM     15  C   UNL     1      -0.019   1.526   0.010  0.00  0.00    +0.004 C 
ATOM     16  C   UNL     1       0.002  -0.004   0.002  0.00  0.00    -0.002 C 
ENDBRANCH  14  16
ENDBRANCH  13  14
ENDBRANCH   9  13
ENDBRANCH   1  10
BRANCH   5  17
ATOM     17  C   UNL     1       2.957  -7.793  -2.723  0.00  0.00    -0.039 C 
BRANCH  17  18
ATOM     18  C   UNL     1       1.529  -8.247  -2.558  0.00  0.00    -0.020 A 
ATOM     19  C   UNL     1       1.064  -8.629  -1.315  0.00  0.00    +0.038 A 
ATOM     20  C   UNL     1      -0.245  -9.046  -1.163  0.00  0.00    +0.127 A 
ATOM     21  C   UNL     1      -1.093  -9.081  -2.255  0.00  0.00    +0.036 A 
ATOM     22  C   UNL     1      -0.633  -8.700  -3.501  0.00  0.00    +0.048 A 
ATOM     23  C   UNL     1       0.680  -8.276  -3.654  0.00  0.00    +0.122 A 
BRANCH  20  24
ATOM     24  N   UNL     1      -0.741  -9.455   0.170  0.00  0.00    +0.056 N 
ATOM     25  O   UNL     1      -0.001  -9.425   1.125  0.00  0.00    -0.126 OA
ATOM     26  O   UNL     1      -1.886  -9.819   0.304  0.00  0.00    -0.126 OA
ENDBRANCH  20  24
BRANCH  23  27
ATOM     27  O   UNL     1       1.133  -7.896  -4.878  0.00  0.00    -0.495 OA
ATOM     28  C   UNL     1       0.203  -7.952  -5.961  0.00  0.00    +0.277 C 
ENDBRANCH  23  27
ENDBRANCH  17  18
ENDBRANCH   5  17
TORSDOF 8
