REMARK  Name = ZINC32694177
REMARK  7 active torsions:
REMARK  status: ('A' for Active; 'I' for Inactive)
REMARK    1  A    between atoms: C_1  and  C_2
REMARK    2  A    between atoms: C_3  and  C_22
REMARK    3  A    between atoms: C_4  and  C_11
REMARK    4  A    between atoms: C_5  and  C_9
REMARK    5  A    between atoms: C_6  and  C_8
REMARK    6  A    between atoms: C_16  and  O_17
REMARK    7  A    between atoms: O_17  and  C_18
REMARK                            x       y       z     vdW  Elec       q    Type
REMARK                         _______ _______ _______ _____ _____    ______ ____
ROOT
ATOM      1  C   UNL     1      -5.150   2.950  -2.362  0.00  0.00    +0.061 C 
ATOM      2  C   UNL     1      -4.394   3.302  -1.107  0.00  0.00    +0.019 C 
ATOM      3  C   UNL     1      -3.354   4.149  -1.174  0.00  0.00    +0.058 C 
ATOM      4  C   UNL     1      -2.566   4.522   0.049  0.00  0.00    +0.106 C 
ATOM      5  C   UNL     1      -3.318   4.162   1.299  0.00  0.00    +0.058 C 
ATOM      6  C   UNL     1      -4.359   3.315   1.271  0.00  0.00    +0.019 C 
ATOM      7  N   UNL     1      -4.776   2.754   0.091  0.00  0.00    -0.320 N 
ATOM      8  C   UNL     1      -5.078   2.977   2.551  0.00  0.00    +0.061 C 
ATOM      9  H   UNL     1      -5.418   1.861   0.107  0.00  0.00    +0.152 HD
ENDROOT
BRANCH   4  10
ATOM     10  C   UNL     1      -1.250   3.788   0.033  0.00  0.00    +0.009 A 
ATOM     11  C   UNL     1      -1.229   2.406   0.021  0.00  0.00    +0.028 A 
ATOM     12  C   UNL     1      -0.021   1.732   0.012  0.00  0.00    +0.041 A 
ATOM     13  C   UNL     1       1.168   2.439   0.004  0.00  0.00    +0.023 A 
ATOM     14  C   UNL     1       1.151   3.820   0.011  0.00  0.00    +0.047 A 
ATOM     15  C   UNL     1      -0.059   4.498   0.026  0.00  0.00    +0.131 A 
ATOM     16 CL   UNL     1       0.002  -0.004   0.002  0.00  0.00    -0.084 Cl
BRANCH  15  17
ATOM     17  O   UNL     1      -0.077   5.857   0.032  0.00  0.00    -0.434 OA
BRANCH  17  18
ATOM     18  C   UNL     1       1.187   6.523   0.024  0.00  0.00    +0.541 C 
ATOM     19  F   UNL     1       1.918   6.152   1.157  0.00  0.00    -0.166 F 
ATOM     20  F   UNL     1       1.896   6.163  -1.127  0.00  0.00    -0.166 F 
ENDBRANCH  17  18
ENDBRANCH  15  17
ENDBRANCH   4  10
BRANCH   5  21
ATOM     21  C   UNL     1      -2.916   4.736   2.547  0.00  0.00    +0.097 C 
ATOM     22  N   UNL     1      -2.596   5.191   3.538  0.00  0.00    -0.191 NA
ENDBRANCH   5  21
BRANCH   3  23
ATOM     23  C   UNL     1      -2.989   4.710  -2.440  0.00  0.00    +0.097 C 
ATOM     24  N   UNL     1      -2.700   5.154  -3.445  0.00  0.00    -0.191 NA
ENDBRANCH   3  23
TORSDOF 5
