REMARK  Name = ZINC01321013
REMARK  7 active torsions:
REMARK  status: ('A' for Active; 'I' for Inactive)
REMARK    1  A    between atoms: C_1  and  C_2
REMARK    2  A    between atoms: C_2  and  C_3
REMARK    3  A    between atoms: C_2  and  C_4
REMARK    4  A    between atoms: C_2  and  C_5
REMARK    5  A    between atoms: N_16  and  C_19
REMARK    6  A    between atoms: C_19  and  C_20
REMARK    7  A    between atoms: N_22  and  C_23
REMARK                            x       y       z     vdW  Elec       q    Type
REMARK                         _______ _______ _______ _____ _____    ______ ____
ROOT
ATOM      1  C   UNL     1       0.024  -0.013  -0.022  0.00  0.00    -0.000 C 
ATOM      2  C   UNL     1       0.767  -0.522   1.216  0.00  0.00    +0.009 C 
ATOM      3  C   UNL     1       1.003  -2.028   1.097  0.00  0.00    +0.037 C 
ATOM      4  C   UNL     1      -0.328  -2.715   0.804  0.00  0.00    -0.023 A 
ATOM      5  C   UNL     1      -1.378  -2.006   0.323  0.00  0.00    -0.004 A 
ATOM      6  S   UNL     1      -2.689  -3.187   0.135  0.00  0.00    -0.071 S 
ATOM      7  C   UNL     1      -1.830  -4.624   0.699  0.00  0.00    +0.138 A 
ATOM      8  C   UNL     1      -0.544  -4.134   1.016  0.00  0.00    +0.079 A 
ATOM      9  C   UNL     1       0.416  -5.080   1.515  0.00  0.00    +0.279 A 
ATOM     10  O   UNL     1       1.552  -4.755   1.817  0.00  0.00    -0.265 OA
ATOM     11  N   UNL     1      -0.024  -6.357   1.627  0.00  0.00    -0.201 N 
ATOM     12  N   UNL     1      -1.322  -6.734   1.283  0.00  0.00    -0.061 NA
ATOM     13  N   UNL     1      -2.201  -5.893   0.832  0.00  0.00    -0.123 NA
ATOM     14  C   UNL     1      -1.417  -0.540   0.018  0.00  0.00    +0.046 C 
ENDROOT
BRANCH   1  16
ATOM     15  C   UNL     1       1.448   2.040  -0.038  0.00  0.00    +0.011 C 
ATOM     16  C   UNL     1       0.010   1.517  -0.019  0.00  0.00    -0.035 C 
ATOM     17  C   UNL     1      -0.733   2.023  -1.257  0.00  0.00    +0.011 C 
ATOM     18  C   UNL     1      -0.698   2.019   1.241  0.00  0.00    +0.011 C 
ENDBRANCH   1  16
BRANCH  11  19
ATOM     19  C   UNL     1       0.898  -7.379   2.128  0.00  0.00    +0.245 C 
BRANCH  19  20
ATOM     20  C   UNL     1       0.786  -7.465   3.629  0.00  0.00    +0.239 C 
ATOM     21  O   UNL     1       0.012  -6.743   4.221  0.00  0.00    -0.273 OA
ATOM     22  N   UNL     1       1.546  -8.343   4.312  0.00  0.00    -0.284 N 
ATOM     23  H   UNL     1       2.115  -8.966   3.834  0.00  0.00    +0.155 HD
BRANCH  22  24
ATOM     24  C   UNL     1       1.513  -8.357   5.711  0.00  0.00    +0.033 A 
ATOM     25  C   UNL     1       2.665  -8.645   6.431  0.00  0.00    +0.023 A 
ATOM     26  C   UNL     1       2.630  -8.652   7.812  0.00  0.00    +0.002 A 
ATOM     27  C   UNL     1       1.448  -8.383   8.477  0.00  0.00    +0.000 A 
ATOM     28  C   UNL     1       0.298  -8.101   7.763  0.00  0.00    +0.002 A 
ATOM     29  C   UNL     1       0.327  -8.087   6.382  0.00  0.00    +0.023 A 
ENDBRANCH  22  24
ENDBRANCH  19  20
ENDBRANCH  11  19
TORSDOF 4
