REMARK  Name = ZINC67102524
REMARK  5 active torsions:
REMARK  status: ('A' for Active; 'I' for Inactive)
REMARK    1  A    between atoms: C_1  and  C_2
REMARK    2  A    between atoms: C_6  and  C_7
REMARK    3  A    between atoms: N_9  and  N_10
REMARK    4  A    between atoms: C_16  and  C_19
REMARK    5  A    between atoms: C_22  and  O_25
REMARK                            x       y       z     vdW  Elec       q    Type
REMARK                         _______ _______ _______ _____ _____    ______ ____
ROOT
ATOM      1  N   UNL     1       0.058  -0.732   4.900  0.00  0.00    -0.218 N 
ATOM      2  C   UNL     1       0.182  -1.623   5.904  0.00  0.00    +0.319 C 
ATOM      3  O   UNL     1       0.188  -1.241   7.058  0.00  0.00    -0.251 OA
ATOM      4  N   UNL     1       0.299  -2.937   5.628  0.00  0.00    -0.280 N 
ATOM      5  C   UNL     1       0.320  -3.946   6.701  0.00  0.00    +0.114 C 
ATOM      6  C   UNL     1      -0.895  -4.859   6.514  0.00  0.00    +0.054 C 
ATOM      7  C   UNL     1      -1.028  -5.263   5.075  0.00  0.00    -0.041 C 
ATOM      8  C   UNL     1      -0.465  -4.631   4.074  0.00  0.00    -0.004 C 
ATOM      9  C   UNL     1       0.404  -3.421   4.244  0.00  0.00    +0.137 C 
ATOM     10  H   UNL     1      -0.021  -1.041   3.984  0.00  0.00    +0.174 HD
ENDROOT
BRANCH   7  11
ATOM     11  C   UNL     1      -1.849  -6.452   4.766  0.00  0.00    -0.022 A 
ATOM     12  C   UNL     1      -3.223  -6.438   5.016  0.00  0.00    +0.012 A 
ATOM     13  C   UNL     1      -3.986  -7.549   4.726  0.00  0.00    +0.046 A 
ATOM     14  C   UNL     1      -3.389  -8.681   4.187  0.00  0.00    +0.117 A 
ATOM     15  C   UNL     1      -2.023  -8.699   3.938  0.00  0.00    +0.046 A 
ATOM     16  C   UNL     1      -1.255  -7.590   4.219  0.00  0.00    +0.012 A 
BRANCH  14  17
ATOM     17  O   UNL     1      -4.144  -9.775   3.903  0.00  0.00    -0.507 OA
ATOM     18  H   UNL     1      -4.507  -9.780   3.007  0.00  0.00    +0.292 HD
ENDBRANCH  14  17
ENDBRANCH   7  11
BRANCH   1  21
ATOM     19  C   UNL     1       0.021   1.534   4.170  0.00  0.00    +0.267 C 
ATOM     20  O   UNL     1       0.015   1.148   3.016  0.00  0.00    -0.268 OA
ATOM     21  N   UNL     1       0.043   0.641   5.180  0.00  0.00    -0.229 N 
ATOM     22  H   UNL     1       0.049   0.949   6.099  0.00  0.00    +0.173 HD
BRANCH  19  28
ATOM     23  C   UNL     1      -0.030   3.850   2.088  0.00  0.00    +0.045 C 
ATOM     24  C   UNL     1      -0.017   4.041   3.583  0.00  0.00    -0.031 A 
ATOM     25  C   UNL     1      -0.034   5.288   4.160  0.00  0.00    +0.011 A 
ATOM     26  C   UNL     1      -0.021   5.389   5.512  0.00  0.00    +0.046 A 
ATOM     27  S   UNL     1       0.013   3.795   6.043  0.00  0.00    -0.092 S 
ATOM     28  C   UNL     1       0.006   2.970   4.463  0.00  0.00    +0.078 A 
ENDBRANCH  19  28
ENDBRANCH   1  21
TORSDOF 4
