REMARK  Name = ZINC08489174
REMARK  9 active torsions:
REMARK  status: ('A' for Active; 'I' for Inactive)
REMARK    1  A    between atoms: C_1  and  C_2
REMARK    2  A    between atoms: C_7  and  N_12
REMARK    3  A    between atoms: C_9  and  C_11
REMARK    4  A    between atoms: C_13  and  C_15
REMARK    5  A    between atoms: C_15  and  C_17
REMARK    6  A    between atoms: C_15  and  S_18
REMARK    7  A    between atoms: S_18  and  C_19
REMARK    8  A    between atoms: C_22  and  C_25
REMARK    9  A    between atoms: N_23  and  N_24
REMARK                            x       y       z     vdW  Elec       q    Type
REMARK                         _______ _______ _______ _____ _____    ______ ____
ROOT
ATOM      1  C   UNL     1      -5.284   4.767   0.117  0.00  0.00    +0.137 C 
ATOM      2  C   UNL     1      -4.562   5.603   1.176  0.00  0.00    +0.029 C 
ENDROOT
BRANCH   1   4
ATOM      3  N   UNL     1      -7.252   6.122  -0.522  0.00  0.00    -0.311 N 
ATOM      4  C   UNL     1      -6.760   5.068   0.159  0.00  0.00    +0.226 C 
ATOM      5  O   UNL     1      -7.504   4.363   0.806  0.00  0.00    -0.275 OA
ATOM      6  H   UNL     1      -6.657   6.686  -1.040  0.00  0.00    +0.149 HD
BRANCH   3  12
ATOM      7  C   UNL     1     -10.983   8.271  -2.953  0.00  0.00    +0.008 C 
ATOM      8  C   UNL     1     -10.584   7.496  -1.695  0.00  0.00    -0.009 C 
ATOM      9  C   UNL     1     -10.898   8.337  -0.457  0.00  0.00    +0.003 C 
ATOM     10  C   UNL     1     -10.499   7.562   0.801  0.00  0.00    +0.002 C 
ATOM     11  C   UNL     1      -9.000   7.256   0.758  0.00  0.00    +0.022 C 
ATOM     12  C   UNL     1      -8.687   6.415  -0.481  0.00  0.00    +0.076 C 
ATOM     13  C   UNL     1      -9.086   7.190  -1.738  0.00  0.00    +0.009 C 
ATOM     14  C   UNL     1      -8.299   8.501  -1.800  0.00  0.00    +0.009 C 
ENDBRANCH   3  12
ENDBRANCH   1   4
BRANCH   1  15
ATOM     15  S   UNL     1      -5.017   3.008   0.451  0.00  0.00    -0.072 S 
BRANCH  15  16
ATOM     16  C   UNL     1      -3.276   2.909   0.195  0.00  0.00    +0.209 A 
ATOM     17  N   UNL     1      -2.481   3.898  -0.144  0.00  0.00    -0.120 NA
ATOM     18  N   UNL     1      -1.271   3.478  -0.247  0.00  0.00    -0.123 NA
ATOM     19  C   UNL     1      -1.219   2.191   0.020  0.00  0.00    +0.217 A 
ATOM     20  N   UNL     1      -2.504   1.786   0.306  0.00  0.00    -0.221 N 
BRANCH  19  21
ATOM     21  C   UNL     1      -0.016   1.343   0.009  0.00  0.00    +0.173 A 
ATOM     22  C   UNL     1       1.273   1.784  -0.001  0.00  0.00    +0.053 A 
ATOM     23  C   UNL     1       2.093   0.639  -0.015  0.00  0.00    +0.042 A 
ATOM     24  C   UNL     1       1.275  -0.433  -0.012  0.00  0.00    +0.196 A 
ATOM     25  O   UNL     1       0.002  -0.004   0.002  0.00  0.00    -0.460 OA
ENDBRANCH  19  21
BRANCH  20  26
ATOM     26  N   UNL     1      -2.919   0.527   0.634  0.00  0.00    -0.294 N 
ATOM     27  H   UNL     1      -2.887   0.385   1.633  0.00  0.00    +0.163 HD
ATOM     28  H   UNL     1      -3.844   0.346   0.273  0.00  0.00    +0.163 HD
ENDBRANCH  20  26
ENDBRANCH  15  16
ENDBRANCH   1  15
TORSDOF 6
