REMARK  Name = ZINC42294921
REMARK  4 active torsions:
REMARK  status: ('A' for Active; 'I' for Inactive)
REMARK    1  A    between atoms: C_1  and  C_2
REMARK    2  A    between atoms: C_2  and  C_3
REMARK    3  A    between atoms: N_12  and  C_13
REMARK    4  A    between atoms: C_13  and  C_14
REMARK                            x       y       z     vdW  Elec       q    Type
REMARK                         _______ _______ _______ _____ _____    ______ ____
ROOT
ATOM      1  C   UNL     1       0.691  -0.610   1.228  0.00  0.00    +0.077 C 
ATOM      2  C   UNL     1       0.823  -2.123   1.022  0.00  0.00    +0.022 C 
ATOM      3  C   UNL     1       1.368  -2.762   2.301  0.00  0.00    +0.003 C 
ATOM      4  C   UNL     1       0.391  -2.515   3.453  0.00  0.00    +0.019 C 
ATOM      5  C   UNL     1       0.254  -1.008   3.687  0.00  0.00    +0.109 C 
ATOM      6  N   UNL     1      -0.128  -0.363   2.423  0.00  0.00    -0.283 N 
ATOM      7  C   UNL     1      -1.211   0.437   2.360  0.00  0.00    +0.303 C 
ATOM      8  O   UNL     1      -1.578   0.879   1.288  0.00  0.00    -0.253 OA
ATOM      9  N   UNL     1      -1.887   0.747   3.484  0.00  0.00    -0.296 N 
ATOM     10  H   UNL     1      -1.639   0.337   4.327  0.00  0.00    +0.150 HD
ENDROOT
BRANCH   1  12
ATOM     11  C   UNL     1       0.873  -0.241  -1.236  0.00  0.00    +0.006 C 
ATOM     12  C   UNL     1       0.018   0.017   0.006  0.00  0.00    +0.019 C 
ENDBRANCH   1  12
BRANCH   9  13
ATOM     13  C   UNL     1      -2.996   1.702   3.432  0.00  0.00    +0.153 C 
BRANCH  13  14
ATOM     14  C   UNL     1      -3.587   1.873   4.833  0.00  0.00    +0.228 C 
ATOM     15  C   UNL     1      -4.760   2.862   4.782  0.00  0.00    +0.275 C 
ATOM     16  O   UNL     1      -5.297   2.989   6.103  0.00  0.00    -0.485 OA
ATOM     17  C   UNL     1      -5.506   1.833   6.791  0.00  0.00    +0.162 A 
ATOM     18  C   UNL     1      -6.340   1.843   7.900  0.00  0.00    +0.049 A 
ATOM     19  C   UNL     1      -6.560   0.678   8.611  0.00  0.00    +0.004 A 
ATOM     20  C   UNL     1      -5.950  -0.499   8.219  0.00  0.00    +0.004 A 
ATOM     21  C   UNL     1      -5.120  -0.515   7.115  0.00  0.00    +0.049 A 
ATOM     22  C   UNL     1      -4.895   0.649   6.396  0.00  0.00    +0.163 A 
ATOM     23  O   UNL     1      -4.080   0.616   5.307  0.00  0.00    -0.480 OA
ENDBRANCH  13  14
ENDBRANCH   9  13
TORSDOF 3
