REMARK  Name = ZINC00783980
REMARK  6 active torsions:
REMARK  status: ('A' for Active; 'I' for Inactive)
REMARK    1  A    between atoms: C_1  and  O_2
REMARK    2  A    between atoms: O_2  and  C_3
REMARK    3  A    between atoms: C_6  and  S_9
REMARK    4  A    between atoms: S_9  and  N_12
REMARK    5  A    between atoms: C_15  and  C_18
REMARK    6  A    between atoms: N_23  and  C_26
REMARK                            x       y       z     vdW  Elec       q    Type
REMARK                         _______ _______ _______ _____ _____    ______ ____
ROOT
ATOM      1  N   UNL     1       0.404   8.092  -5.424  0.00  0.00    -0.177 NA
ATOM      2  C   UNL     1       0.868   9.231  -4.620  0.00  0.00    +0.110 C 
ATOM      3  C   UNL     1       1.793   8.710  -3.516  0.00  0.00    +0.030 C 
ATOM      4  C   UNL     1       1.065   7.630  -2.713  0.00  0.00    +0.078 C 
ATOM      5  C   UNL     1       0.708   6.461  -3.634  0.00  0.00    +0.030 C 
ATOM      6  C   UNL     1      -0.230   6.956  -4.740  0.00  0.00    +0.110 C 
ENDROOT
BRANCH   4   7
ATOM      7  C   UNL     1       1.960   7.140  -1.604  0.00  0.00    +0.219 C 
ATOM      8  O   UNL     1       3.162   7.278  -1.689  0.00  0.00    -0.275 OA
ATOM      9  N   UNL     1       1.425   6.548  -0.518  0.00  0.00    -0.298 N 
ATOM     10  C   UNL     1      -0.033   6.459  -0.348  0.00  0.00    +0.126 C 
ATOM     11  C   UNL     1      -0.394   6.990   1.044  0.00  0.00    +0.124 C 
ATOM     12  N   UNL     1       0.394   6.274   2.056  0.00  0.00    -0.327 N 
ATOM     13  C   UNL     1       1.832   6.522   1.886  0.00  0.00    +0.124 C 
ATOM     14  C   UNL     1       2.284   5.973   0.528  0.00  0.00    +0.126 C 
BRANCH  12  15
ATOM     15  C   UNL     1      -0.023   6.613   3.347  0.00  0.00    +0.030 A 
ATOM     16  C   UNL     1       0.598   6.043   4.451  0.00  0.00    +0.026 A 
ATOM     17  C   UNL     1       0.185   6.379   5.725  0.00  0.00    +0.040 A 
ATOM     18  C   UNL     1      -0.848   7.284   5.903  0.00  0.00    +0.124 A 
ATOM     19  C   UNL     1      -1.468   7.854   4.804  0.00  0.00    +0.040 A 
ATOM     20  C   UNL     1      -1.059   7.520   3.528  0.00  0.00    +0.026 A 
ATOM     21  F   UNL     1      -1.251   7.612   7.150  0.00  0.00    -0.205 F 
ENDBRANCH  12  15
ENDBRANCH   4   7
BRANCH   1  22
ATOM     22  S   UNL     1       0.590   8.088  -7.069  0.00  0.00    +0.061 S 
ATOM     23  O   UNL     1      -0.397   7.207  -7.588  0.00  0.00    -0.153 OA
ATOM     24  O   UNL     1       0.684   9.448  -7.470  0.00  0.00    -0.153 OA
BRANCH  22  28
ATOM     25  C   UNL     1       4.608   6.197  -7.957  0.00  0.00    +0.120 A 
ATOM     26  C   UNL     1       3.471   5.407  -7.878  0.00  0.00    +0.047 A 
ATOM     27  C   UNL     1       2.246   5.986  -7.607  0.00  0.00    +0.032 A 
ATOM     28  C   UNL     1       2.154   7.352  -7.415  0.00  0.00    +0.106 A 
ATOM     29  C   UNL     1       3.285   8.143  -7.499  0.00  0.00    +0.032 A 
ATOM     30  C   UNL     1       4.513   7.568  -7.764  0.00  0.00    +0.047 A 
BRANCH  25  32
ATOM     31  C   UNL     1       6.942   6.505  -8.290  0.00  0.00    +0.277 C 
ATOM     32  O   UNL     1       5.814   5.630  -8.223  0.00  0.00    -0.495 OA
ENDBRANCH  25  32
ENDBRANCH  22  28
ENDBRANCH   1  22
TORSDOF 5
