REMARK  Name = ZINC02027871
REMARK  5 active torsions:
REMARK  status: ('A' for Active; 'I' for Inactive)
REMARK    1  A    between atoms: C_1  and  C_2
REMARK    2  A    between atoms: C_2  and  C_20
REMARK    3  A    between atoms: C_7  and  C_19
REMARK    4  A    between atoms: N_10  and  C_13
REMARK    5  A    between atoms: C_13  and  N_46
REMARK                            x       y       z     vdW  Elec       q    Type
REMARK                         _______ _______ _______ _____ _____    ______ ____
ROOT
ATOM      1  C   UNL     1      -1.812   1.182  -1.765  0.00  0.00    +0.012 C 
ATOM      2  C   UNL     1      -0.537   1.942  -1.391  0.00  0.00    -0.010 C 
ATOM      3  C   UNL     1       0.658   1.506  -2.285  0.00  0.00    +0.082 C 
ATOM      4  C   UNL     1       1.892   1.979  -1.479  0.00  0.00    +0.014 C 
ATOM      5  C   UNL     1       1.456   1.984  -0.001  0.00  0.00    +0.017 C 
ATOM      6  C   UNL     1      -0.018   1.514   0.010  0.00  0.00    +0.051 C 
ATOM      7  C   UNL     1       0.002  -0.004   0.002  0.00  0.00    +0.227 C 
ATOM      8  O   UNL     1      -0.266  -0.623   1.009  0.00  0.00    -0.275 OA
ATOM      9  N   UNL     1       0.319  -0.658  -1.131  0.00  0.00    -0.258 N 
ATOM     10  C   UNL     1       0.668  -0.011  -2.258  0.00  0.00    +0.224 C 
ATOM     11  O   UNL     1       0.989  -0.637  -3.246  0.00  0.00    -0.275 OA
ATOM     12  C   UNL     1      -0.825   2.095   1.173  0.00  0.00    +0.021 C 
ATOM     13  C   UNL     1      -0.758   3.454  -1.461  0.00  0.00    +0.012 C 
ENDROOT
BRANCH   9  14
ATOM     14  C   UNL     1       0.283  -2.123  -1.137  0.00  0.00    +0.041 C 
BRANCH  14  20
ATOM     15  C   UNL     1      -1.985  -2.528  -0.393  0.00  0.00    -0.077 C 
ATOM     16  C   UNL     1      -3.399  -2.867  -0.871  0.00  0.00    -0.019 C 
ATOM     17  C   UNL     1      -3.399  -4.266  -1.494  0.00  0.00    -0.004 C 
ATOM     18  C   UNL     1      -2.390  -4.305  -2.644  0.00  0.00    -0.019 C 
ATOM     19  C   UNL     1      -1.005  -3.924  -2.115  0.00  0.00    -0.077 C 
ATOM     20  N   UNL     1      -1.067  -2.558  -1.552  0.00  0.00    +0.390 N 
ATOM     21  H   UNL     1      -1.417  -1.916  -2.272  0.00  0.00    -0.080 HD
ENDBRANCH  14  20
ENDBRANCH   9  14
TORSDOF 2
