REMARK  Name = ZINC20996767
REMARK  8 active torsions:
REMARK  status: ('A' for Active; 'I' for Inactive)
REMARK    1  A    between atoms: C_1  and  C_2
REMARK    2  A    between atoms: C_3  and  C_15
REMARK    3  A    between atoms: N_6  and  C_9
REMARK    4  A    between atoms: N_7  and  C_8
REMARK    5  A    between atoms: C_15  and  N_16
REMARK    6  A    between atoms: N_16  and  C_17
REMARK    7  A    between atoms: N_22  and  C_24
REMARK    8  A    between atoms: C_24  and  C_25
REMARK                            x       y       z     vdW  Elec       q    Type
REMARK                         _______ _______ _______ _____ _____    ______ ____
ROOT
ATOM      1  N   UNL     1      -3.333  -0.556  -0.531  0.00  0.00    -0.311 NA
ATOM      2  H   UNL     1      -2.988  -0.142  -1.384  0.00  0.00    +0.122 HD
ENDROOT
BRANCH   1   3
ATOM      3  C   UNL     1      -4.692  -0.088  -0.231  0.00  0.00    +0.037 C 
ATOM      4  C   UNL     1      -4.811   1.398  -0.581  0.00  0.00    +0.015 C 
ATOM      5  C   UNL     1      -6.252   1.856  -0.339  0.00  0.00    -0.017 C 
ATOM      6  C   UNL     1      -7.203   0.987  -1.164  0.00  0.00    -0.079 C 
ATOM      7  N   UNL     1      -7.061  -0.418  -0.764  0.00  0.00    +0.381 N 
ATOM      8  C   UNL     1      -5.702  -0.886  -1.060  0.00  0.00    -0.060 C 
ATOM      9  H   UNL     1      -7.237  -0.504   0.226  0.00  0.00    -0.082 HD
BRANCH   7  10
ATOM     10  C   UNL     1      -8.031  -1.237  -1.504  0.00  0.00    -0.075 C 
BRANCH  10  11
ATOM     11  C   UNL     1      -9.451  -0.840  -1.094  0.00  0.00    -0.028 C 
ATOM     12  C   UNL     1      -9.671  -1.185   0.380  0.00  0.00    +0.002 C 
ATOM     13  C   UNL     1     -11.091  -0.788   0.790  0.00  0.00    +0.000 C 
ATOM     14  C   UNL     1     -12.101  -1.552  -0.069  0.00  0.00    +0.000 C 
ATOM     15  C   UNL     1     -11.881  -1.207  -1.543  0.00  0.00    +0.000 C 
ATOM     16  C   UNL     1     -10.461  -1.604  -1.953  0.00  0.00    +0.002 C 
ENDBRANCH  10  11
ENDBRANCH   7  10
ENDBRANCH   1   3
BRANCH   1  17
ATOM     17  C   UNL     1      -2.423  -0.286   0.591  0.00  0.00    +0.123 C 
BRANCH  17  20
ATOM     18  C   UNL     1      -0.122   1.428  -0.620  0.00  0.00    +0.065 C 
ATOM     19  C   UNL     1      -0.044  -0.037  -0.277  0.00  0.00    +0.043 A 
ATOM     20  C   UNL     1      -1.041  -0.778   0.246  0.00  0.00    +0.053 A 
ATOM     21  C   UNL     1      -0.563  -2.099   0.418  0.00  0.00    +0.276 A 
ATOM     22  O   UNL     1      -1.194  -3.039   0.867  0.00  0.00    -0.265 OA
ATOM     23  N   UNL     1       0.716  -2.128  -0.007  0.00  0.00    -0.217 N 
ATOM     24  N   UNL     1       1.047  -0.841  -0.450  0.00  0.00    -0.284 N 
ATOM     25  C   UNL     1       2.341  -0.427  -1.000  0.00  0.00    +0.171 C 
BRANCH  23  26
ATOM     26  C   UNL     1       1.559  -3.244  -0.011  0.00  0.00    +0.067 A 
ATOM     27  C   UNL     1       2.847  -3.145   0.498  0.00  0.00    +0.028 A 
ATOM     28  C   UNL     1       3.677  -4.249   0.493  0.00  0.00    +0.002 A 
ATOM     29  C   UNL     1       3.226  -5.452  -0.018  0.00  0.00    +0.000 A 
ATOM     30  C   UNL     1       1.944  -5.554  -0.526  0.00  0.00    +0.002 A 
ATOM     31  C   UNL     1       1.108  -4.455  -0.519  0.00  0.00    +0.028 A 
ENDBRANCH  23  26
ENDBRANCH  17  20
ENDBRANCH   1  17
TORSDOF 6
