REMARK  Name = ZINC34926688
REMARK  4 active torsions:
REMARK  status: ('A' for Active; 'I' for Inactive)
REMARK    1  A    between atoms: C_1  and  C_2
REMARK    2  A    between atoms: C_2  and  C_24
REMARK    3  A    between atoms: N_5  and  C_9
REMARK    4  A    between atoms: C_12  and  C_15
REMARK                            x       y       z     vdW  Elec       q    Type
REMARK                         _______ _______ _______ _____ _____    ______ ____
ROOT
ATOM      1  C   UNL     1       3.381  -2.409  -0.244  0.00  0.00    +0.040 A 
ATOM      2  C   UNL     1       3.804  -2.891  -1.478  0.00  0.00    +0.024 A 
ATOM      3  C   UNL     1       4.924  -3.689  -1.560  0.00  0.00    +0.015 A 
ATOM      4  C   UNL     1       5.635  -4.014  -0.401  0.00  0.00    +0.037 A 
ATOM      5  C   UNL     1       5.207  -3.527   0.836  0.00  0.00    +0.015 A 
ATOM      6  C   UNL     1       4.089  -2.726   0.910  0.00  0.00    +0.024 A 
ENDROOT
BRANCH   1  11
ATOM      7  C   UNL     1      -0.596   0.592   1.268  0.00  0.00    +0.036 C 
ATOM      8  C   UNL     1      -0.003  -0.011  -0.008  0.00  0.00    +0.048 C 
ATOM      9  C   UNL     1       1.371   0.591  -0.213  0.00  0.00    +0.014 C 
ATOM     10  C   UNL     1       2.405  -0.228  -0.279  0.00  0.00    +0.080 C 
ATOM     11  N   UNL     1       2.245  -1.600  -0.164  0.00  0.00    -0.259 N 
ATOM     12  C   UNL     1       1.056  -2.190   0.018  0.00  0.00    +0.142 C 
ATOM     13  N   UNL     1      -0.085  -1.477   0.104  0.00  0.00    -0.317 N 
ATOM     14  S   UNL     1       0.983  -3.896   0.145  0.00  0.00    -0.018 S 
ATOM     15  C   UNL     1      -0.886   0.421  -1.181  0.00  0.00    +0.036 C 
ATOM     16  H   UNL     1      -0.939  -1.918   0.237  0.00  0.00    +0.149 HD
ENDBRANCH   1  11
BRANCH   4  17
ATOM     17  C   UNL     1       6.835  -4.869  -0.485  0.00  0.00    +0.228 A 
ATOM     18  N   UNL     1       7.323  -5.372  -1.592  0.00  0.00    -0.209 NA
ATOM     19  C   UNL     1       8.427  -6.103  -1.289  0.00  0.00    +0.110 A 
ATOM     20  C   UNL     1       9.329  -6.848  -2.053  0.00  0.00    +0.031 A 
ATOM     21  C   UNL     1      10.375  -7.495  -1.434  0.00  0.00    +0.002 A 
ATOM     22  C   UNL     1      10.539  -7.411  -0.059  0.00  0.00    +0.004 A 
ATOM     23  C   UNL     1       9.655  -6.680   0.708  0.00  0.00    +0.048 A 
ATOM     24  C   UNL     1       8.596  -6.022   0.102  0.00  0.00    +0.156 A 
ATOM     25  O   UNL     1       7.592  -5.243   0.564  0.00  0.00    -0.435 OA
ENDBRANCH   4  17
TORSDOF 2
