REMARK  Name = ZINC63948343
REMARK  5 active torsions:
REMARK  status: ('A' for Active; 'I' for Inactive)
REMARK    1  A    between atoms: C_7  and  C_10
REMARK    2  A    between atoms: C_10  and  C_11
REMARK    3  A    between atoms: C_11  and  C_12
REMARK    4  A    between atoms: N_17  and  S_20
REMARK    5  A    between atoms: S_20  and  C_23
REMARK                            x       y       z     vdW  Elec       q    Type
REMARK                         _______ _______ _______ _____ _____    ______ ____
ROOT
ATOM      1  C   UNL     1      -0.484  -4.830  -1.460  0.00  0.00    +0.216 C 
ATOM      2  O   UNL     1      -0.925  -5.254  -0.412  0.00  0.00    -0.276 OA
ATOM      3  N   UNL     1      -0.837  -5.413  -2.623  0.00  0.00    -0.299 N 
ATOM      4  C   UNL     1      -0.307  -4.915  -3.900  0.00  0.00    +0.125 C 
ATOM      5  C   UNL     1       0.368  -6.078  -4.638  0.00  0.00    +0.128 C 
ATOM      6  N   UNL     1      -0.553  -7.223  -4.652  0.00  0.00    -0.174 NA
ATOM      7  C   UNL     1      -1.083  -7.721  -3.375  0.00  0.00    +0.128 C 
ATOM      8  C   UNL     1      -1.754  -6.562  -2.637  0.00  0.00    +0.125 C 
ENDROOT
BRANCH   6   9
ATOM      9  S   UNL     1      -0.986  -7.939  -6.081  0.00  0.00    +0.061 S 
ATOM     10  O   UNL     1      -2.234  -8.579  -5.853  0.00  0.00    -0.153 OA
ATOM     11  O   UNL     1      -0.805  -6.961  -7.096  0.00  0.00    -0.153 OA
BRANCH   9  12
ATOM     12  C   UNL     1       0.185  -9.217  -6.399  0.00  0.00    +0.106 A 
ATOM     13  C   UNL     1       1.333  -8.939  -7.116  0.00  0.00    +0.029 A 
ATOM     14  C   UNL     1       2.252  -9.941  -7.366  0.00  0.00    +0.017 A 
ATOM     15  C   UNL     1       2.022 -11.222  -6.897  0.00  0.00    +0.018 A 
ATOM     16  C   UNL     1       0.873 -11.500  -6.180  0.00  0.00    +0.017 A 
ATOM     17  C   UNL     1      -0.043 -10.496  -5.926  0.00  0.00    +0.029 A 
ATOM     18 BR   UNL     1       3.278 -12.594  -7.239  0.00  0.00    -0.050 Br
ENDBRANCH   9  12
ENDBRANCH   6   9
BRANCH   1  19
ATOM     19  C   UNL     1       0.457  -3.653  -1.462  0.00  0.00    +0.100 C 
BRANCH  19  20
ATOM     20  C   UNL     1       0.691  -3.186  -0.024  0.00  0.00    +0.042 C 
BRANCH  20  27
ATOM     21  C   UNL     1      -0.016   1.348   0.009  0.00  0.00    +0.001 A 
ATOM     22  C   UNL     1       1.166   2.101   0.002  0.00  0.00    +0.002 A 
ATOM     23  C   UNL     1       2.391   1.535  -0.013  0.00  0.00    +0.026 A 
ATOM     24  C   UNL     1       2.529   0.120  -0.022  0.00  0.00    +0.043 A 
ATOM     25  N   UNL     1       3.587  -0.654  -0.037  0.00  0.00    -0.380 N 
ATOM     26  C   UNL     1       3.143  -2.053  -0.041  0.00  0.00    +0.144 C 
ATOM     27  C   UNL     1       1.631  -2.008  -0.025  0.00  0.00    -0.041 C 
ATOM     28  C   UNL     1       1.295  -0.698  -0.014  0.00  0.00    -0.001 A 
ATOM     29  C   UNL     1       0.002  -0.004   0.002  0.00  0.00    +0.010 A 
ATOM     30  H   UNL     1       4.509  -0.353  -0.045  0.00  0.00    +0.160 HD
ENDBRANCH  20  27
ENDBRANCH  19  20
ENDBRANCH   1  19
TORSDOF 5
