REMARK  Name = ZINC39947501
REMARK  5 active torsions:
REMARK  status: ('A' for Active; 'I' for Inactive)
REMARK    1  A    between atoms: C_4  and  C_7
REMARK    2  A    between atoms: C_7  and  C_9
REMARK    3  A    between atoms: C_7  and  N_20
REMARK    4  A    between atoms: C_9  and  C_11
REMARK    5  A    between atoms: C_26  and  C_28
REMARK                            x       y       z     vdW  Elec       q    Type
REMARK                         _______ _______ _______ _____ _____    ______ ____
ROOT
ATOM      1  C   UNL     1       3.711  -0.707  -0.038  0.00  0.00    +0.159 C 
ENDROOT
BRANCH   1   2
ATOM      2  N   UNL     1       3.611  -1.868  -0.933  0.00  0.00    -0.286 NA
ATOM      3  C   UNL     1       3.188  -1.459  -2.279  0.00  0.00    +0.104 C 
ATOM      4  C   UNL     1       2.921  -2.707  -3.127  0.00  0.00    +0.123 C 
ATOM      5  N   UNL     1       4.115  -3.565  -3.084  0.00  0.00    -0.296 N 
ATOM      6  C   UNL     1       4.680  -3.906  -1.770  0.00  0.00    +0.123 C 
ATOM      7  C   UNL     1       4.878  -2.611  -0.975  0.00  0.00    +0.104 C 
ATOM      8  C   UNL     1       4.675  -4.028  -4.219  0.00  0.00    +0.257 C 
ATOM      9  O   UNL     1       4.196  -3.738  -5.295  0.00  0.00    -0.272 OA
BRANCH   8  10
ATOM     10  C   UNL     1       5.898  -4.906  -4.152  0.00  0.00    +0.262 C 
ATOM     11  C   UNL     1       5.558  -6.284  -3.533  0.00  0.00    +0.084 C 
ATOM     12  C   UNL     1       5.289  -7.120  -4.772  0.00  0.00    +0.015 C 
ATOM     13  C   UNL     1       5.764  -6.457  -5.804  0.00  0.00    +0.184 C 
ATOM     14  O   UNL     1       6.340  -5.278  -5.473  0.00  0.00    -0.487 OA
ENDBRANCH   8  10
ENDBRANCH   1   2
BRANCH   1  18
ATOM     15  C   UNL     1      -0.017   1.378   0.010  0.00  0.00    +0.000 A 
ATOM     16  C   UNL     1       1.171   2.086   0.002  0.00  0.00    +0.000 A 
ATOM     17  C   UNL     1       2.377   1.411  -0.013  0.00  0.00    +0.005 A 
ATOM     18  C   UNL     1       2.396   0.029  -0.020  0.00  0.00    -0.023 A 
ATOM     19  C   UNL     1       1.208  -0.679  -0.012  0.00  0.00    +0.005 A 
ATOM     20  C   UNL     1       0.002  -0.004   0.002  0.00  0.00    +0.000 A 
ENDBRANCH   1  18
BRANCH   1  21
ATOM     21  C   UNL     1       4.044  -1.175   1.356  0.00  0.00    +0.183 C 
ATOM     22  O   UNL     1       3.918  -2.346   1.649  0.00  0.00    -0.290 OA
BRANCH  21  23
ATOM     23  C   UNL     1       4.501  -0.251   2.320  0.00  0.00    +0.025 C 
ATOM     24  C   UNL     1       4.852  -0.515   3.631  0.00  0.00    +0.006 A 
ATOM     25  C   UNL     1       4.873  -1.702   4.401  0.00  0.00    +0.010 A 
ATOM     26  C   UNL     1       5.271  -1.669   5.693  0.00  0.00    +0.001 A 
ATOM     27  C   UNL     1       5.675  -0.483   6.327  0.00  0.00    +0.002 A 
ATOM     28  C   UNL     1       5.691   0.703   5.682  0.00  0.00    +0.026 A 
ATOM     29  C   UNL     1       5.273   0.755   4.271  0.00  0.00    +0.043 A 
ATOM     30  N   UNL     1       5.192   1.742   3.424  0.00  0.00    -0.380 N 
ATOM     31  C   UNL     1       4.716   1.235   2.133  0.00  0.00    +0.152 C 
ATOM     32  H   UNL     1       5.416   2.666   3.616  0.00  0.00    +0.160 HD
ENDBRANCH  21  23
ENDBRANCH   1  21
TORSDOF 5
