REMARK  Name = ZINC56332513
REMARK  9 active torsions:
REMARK  status: ('A' for Active; 'I' for Inactive)
REMARK    1  A    between atoms: C_1  and  C_2
REMARK    2  A    between atoms: N_5  and  C_11
REMARK    3  A    between atoms: C_7  and  C_10
REMARK    4  A    between atoms: C_14  and  C_18
REMARK    5  A    between atoms: C_18  and  N_19
REMARK    6  A    between atoms: N_22  and  C_23
REMARK    7  A    between atoms: C_23  and  C_24
REMARK    8  A    between atoms: C_27  and  O_30
REMARK    9  A    between atoms: O_30  and  C_31
REMARK                            x       y       z     vdW  Elec       q    Type
REMARK                         _______ _______ _______ _____ _____    ______ ____
ROOT
ATOM      1  C   UNL     1      -4.250  -5.460  -3.268  0.00  0.00    +0.141 C 
ENDROOT
BRANCH   1   5
ATOM      2  C   UNL     1      -2.095  -2.849  -0.657  0.00  0.00    +0.066 A 
ATOM      3  C   UNL     1      -1.491  -3.338  -1.808  0.00  0.00    +0.026 A 
ATOM      4  C   UNL     1      -2.190  -4.182  -2.649  0.00  0.00    +0.007 A 
ATOM      5  C   UNL     1      -3.491  -4.540  -2.347  0.00  0.00    -0.027 A 
ATOM      6  C   UNL     1      -4.098  -4.055  -1.203  0.00  0.00    +0.045 A 
ATOM      7  C   UNL     1      -3.402  -3.215  -0.353  0.00  0.00    +0.145 A 
ATOM      8  F   UNL     1      -3.992  -2.746   0.768  0.00  0.00    -0.204 F 
BRANCH   2  12
ATOM      9  C   UNL     1      -0.019   1.526   0.010  0.00  0.00    +0.039 C 
ATOM     10  C   UNL     1       0.002  -0.004   0.002  0.00  0.00    +0.133 C 
ATOM     11  C   UNL     1      -1.436  -0.536   0.015  0.00  0.00    +0.136 C 
ATOM     12  N   UNL     1      -1.389  -1.995   0.196  0.00  0.00    -0.323 N 
ATOM     13  C   UNL     1      -0.578  -2.530   1.302  0.00  0.00    +0.136 C 
ATOM     14  C   UNL     1       0.818  -1.901   1.226  0.00  0.00    +0.133 C 
ATOM     15  O   UNL     1       0.691  -0.479   1.161  0.00  0.00    -0.371 OA
ATOM     16  C   UNL     1       1.539  -2.407  -0.025  0.00  0.00    +0.039 C 
ENDBRANCH   2  12
ENDBRANCH   1   5
BRANCH   1  17
ATOM     17  N   UNL     1      -4.032  -6.850  -2.858  0.00  0.00    -0.295 N 
ATOM     18  C   UNL     1      -4.617  -7.853  -3.542  0.00  0.00    +0.300 C 
ATOM     19  O   UNL     1      -5.325  -7.606  -4.498  0.00  0.00    -0.253 OA
ATOM     20  N   UNL     1      -4.416  -9.132  -3.165  0.00  0.00    -0.295 N 
ATOM     21  H   UNL     1      -3.467  -7.047  -2.095  0.00  0.00    +0.151 HD
ATOM     22  H   UNL     1      -3.851  -9.329  -2.402  0.00  0.00    +0.151 HD
BRANCH  20  23
ATOM     23  C   UNL     1      -5.052 -10.223  -3.908  0.00  0.00    +0.141 C 
BRANCH  23  24
ATOM     24  C   UNL     1      -4.669 -11.542  -3.288  0.00  0.00    -0.030 A 
ATOM     25  C   UNL     1      -3.538 -12.207  -3.723  0.00  0.00    +0.009 A 
ATOM     26  C   UNL     1      -3.185 -13.417  -3.157  0.00  0.00    +0.046 A 
ATOM     27  C   UNL     1      -3.968 -13.964  -2.151  0.00  0.00    +0.120 A 
ATOM     28  C   UNL     1      -5.102 -13.295  -1.716  0.00  0.00    +0.046 A 
ATOM     29  C   UNL     1      -5.448 -12.083  -2.281  0.00  0.00    +0.009 A 
BRANCH  27  30
ATOM     30  O   UNL     1      -3.623 -15.154  -1.592  0.00  0.00    -0.495 OA
ATOM     31  C   UNL     1      -4.475 -15.658  -0.561  0.00  0.00    +0.277 C 
ENDBRANCH  27  30
ENDBRANCH  23  24
ENDBRANCH  20  23
ENDBRANCH   1  17
TORSDOF 6
