REMARK  Name = ZINC53005271
REMARK  4 active torsions:
REMARK  status: ('A' for Active; 'I' for Inactive)
REMARK    1  A    between atoms: C_1  and  C_2
REMARK    2  A    between atoms: C_5  and  N_22
REMARK    3  A    between atoms: C_6  and  C_8
REMARK    4  A    between atoms: N_22  and  C_23
REMARK                            x       y       z     vdW  Elec       q    Type
REMARK                         _______ _______ _______ _____ _____    ______ ____
ROOT
ATOM      1  C   UNL     1       0.062  -2.830   2.422  0.00  0.00    +0.249 C 
ATOM      2  O   UNL     1       0.203  -4.038   2.428  0.00  0.00    -0.270 OA
ATOM      3  N   UNL     1      -0.064  -2.161   3.584  0.00  0.00    -0.290 N 
ATOM      4  C   UNL     1      -0.339  -0.713   3.610  0.00  0.00    +0.136 C 
ATOM      5  C   UNL     1       0.666  -0.035   4.547  0.00  0.00    +0.179 C 
ATOM      6  O   UNL     1       0.684  -0.709   5.809  0.00  0.00    -0.373 OA
ATOM      7  C   UNL     1       1.089  -2.073   5.720  0.00  0.00    +0.139 C 
ATOM      8  C   UNL     1       0.059  -2.845   4.878  0.00  0.00    +0.105 C 
ATOM      9  C   UNL     1       0.545  -4.280   4.691  0.00  0.00    +0.025 C 
ATOM     10  C   UNL     1       0.657  -4.949   6.065  0.00  0.00    +0.002 C 
ATOM     11  C   UNL     1       1.641  -4.175   6.944  0.00  0.00    +0.003 C 
ATOM     12  C   UNL     1       1.168  -2.723   7.100  0.00  0.00    +0.033 C 
ENDROOT
BRANCH   1  18
ATOM     13  C   UNL     1      -2.239   0.311  -0.691  0.00  0.00    +0.044 C 
ATOM     14  C   UNL     1      -1.073  -0.586  -0.362  0.00  0.00    -0.050 A 
ATOM     15  C   UNL     1      -0.031  -0.721  -1.266  0.00  0.00    +0.005 A 
ATOM     16  C   UNL     1       1.042  -1.538  -0.977  0.00  0.00    +0.024 A 
ATOM     17  C   UNL     1       1.084  -2.234   0.225  0.00  0.00    +0.039 A 
ATOM     18  C   UNL     1       0.030  -2.099   1.142  0.00  0.00    +0.058 A 
ATOM     19  C   UNL     1      -1.047  -1.262   0.837  0.00  0.00    +0.018 A 
BRANCH  17  20
ATOM     20  N   UNL     1       2.163  -3.058   0.517  0.00  0.00    -0.346 N 
ATOM     21  C   UNL     1       3.205  -3.285  -0.487  0.00  0.00    +0.125 C 
ATOM     22  H   UNL     1       2.226  -3.484   1.387  0.00  0.00    +0.146 HD
ENDBRANCH  17  20
ENDBRANCH   1  18
TORSDOF 2
