REMARK  Name = ZINC13389411
REMARK  6 active torsions:
REMARK  status: ('A' for Active; 'I' for Inactive)
REMARK    1  A    between atoms: C_1  and  O_2
REMARK    2  A    between atoms: O_2  and  C_3
REMARK    3  A    between atoms: C_6  and  C_12
REMARK    4  A    between atoms: C_8  and  N_9
REMARK    5  A    between atoms: C_25  and  O_28
REMARK    6  A    between atoms: O_28  and  C_29
REMARK                            x       y       z     vdW  Elec       q    Type
REMARK                         _______ _______ _______ _____ _____    ______ ____
ROOT
ATOM      1  C   UNL     1      -1.818   0.743  -1.587  0.00  0.00    +0.105 C 
ATOM      2  C   UNL     1      -0.526   1.493  -1.840  0.00  0.00    +0.029 C 
ATOM      3  C   UNL     1       0.366   1.016  -2.992  0.00  0.00    +0.033 C 
ATOM      4  C   UNL     1       1.755   1.414  -2.486  0.00  0.00    -0.030 C 
ATOM      5  C   UNL     1       1.758   1.455  -1.158  0.00  0.00    -0.023 C 
ATOM      6  C   UNL     1       0.413   1.062  -0.671  0.00  0.00    +0.050 C 
ATOM      7  C   UNL     1      -0.185   1.619   0.562  0.00  0.00    +0.002 A 
ATOM      8  C   UNL     1       0.594   2.023   1.628  0.00  0.00    +0.047 A 
ATOM      9  C   UNL     1       0.009   2.525   2.776  0.00  0.00    +0.024 A 
ATOM     10  C   UNL     1      -1.368   2.621   2.856  0.00  0.00    +0.049 A 
ATOM     11  C   UNL     1      -2.138   2.182   1.830  0.00  0.00    +0.141 A 
ATOM     12  C   UNL     1      -1.567   1.695   0.648  0.00  0.00    +0.075 A 
ATOM     13  N   UNL     1      -2.432   1.333  -0.386  0.00  0.00    -0.334 N 
ATOM     14 CL   UNL     1       2.323   1.902   1.526  0.00  0.00    -0.083 Cl
ATOM     15  H   UNL     1      -3.042   2.098  -0.631  0.00  0.00    +0.147 HD
ENDROOT
BRANCH   1  19
ATOM     16  C   UNL     1      -0.995  -3.397  -0.923  0.00  0.00    +0.150 A 
ATOM     17  C   UNL     1      -1.154  -2.919  -2.216  0.00  0.00    +0.048 A 
ATOM     18  C   UNL     1      -1.425  -1.581  -2.428  0.00  0.00    +0.009 A 
ATOM     19  C   UNL     1      -1.528  -0.717  -1.353  0.00  0.00    -0.025 A 
ATOM     20  C   UNL     1      -1.370  -1.191  -0.064  0.00  0.00    +0.042 A 
ATOM     21  C   UNL     1      -1.104  -2.529   0.153  0.00  0.00    +0.168 A 
BRANCH  21  22
ATOM     22  N   UNL     1      -0.935  -3.036   1.534  0.00  0.00    +0.060 N 
ATOM     23  O   UNL     1      -1.030  -2.274   2.478  0.00  0.00    -0.126 OA
ATOM     24  O   UNL     1      -0.700  -4.216   1.724  0.00  0.00    -0.126 OA
ENDBRANCH  21  22
BRANCH  16  26
ATOM     25  C   UNL     1      -0.634  -5.549  -1.868  0.00  0.00    +0.277 C 
ATOM     26  O   UNL     1      -0.733  -4.714  -0.712  0.00  0.00    -0.493 OA
ENDBRANCH  16  26
ENDBRANCH   1  19
BRANCH  11  27
ATOM     27  O   UNL     1      -3.491   2.269   1.937  0.00  0.00    -0.493 OA
ATOM     28  C   UNL     1      -4.014   2.773   3.167  0.00  0.00    +0.277 C 
ENDBRANCH  11  27
TORSDOF 4
