REMARK  Name = ZINC04044160
REMARK  5 active torsions:
REMARK  status: ('A' for Active; 'I' for Inactive)
REMARK    1  A    between atoms: C_1  and  C_2
REMARK    2  A    between atoms: C_6  and  N_8
REMARK    3  A    between atoms: C_16  and  C_22
REMARK    4  A    between atoms: C_22  and  O_24
REMARK    5  A    between atoms: O_24  and  C_25
REMARK                            x       y       z     vdW  Elec       q    Type
REMARK                         _______ _______ _______ _____ _____    ______ ____
ROOT
ATOM      1  N   UNL     1       0.052  -2.797   2.393  0.00  0.00    -0.268 N 
ATOM      2  C   UNL     1       0.079  -4.276   2.500  0.00  0.00    +0.153 C 
ATOM      3  C   UNL     1       0.534  -4.529   3.904  0.00  0.00    +0.116 C 
ATOM      4  C   UNL     1       0.204  -5.744   4.694  0.00  0.00    +0.008 C 
ATOM      5  C   UNL     1       1.010  -5.658   5.760  0.00  0.00    +0.004 C 
ATOM      6  C   UNL     1       1.862  -4.396   5.586  0.00  0.00    +0.157 C 
ATOM      7  O   UNL     1       1.959  -4.342   4.117  0.00  0.00    -0.359 OA
ATOM      8  C   UNL     1       0.925  -3.174   5.857  0.00  0.00    +0.145 C 
ATOM      9  C   UNL     1      -0.074  -3.296   4.669  0.00  0.00    +0.129 C 
ATOM     10  C   UNL     1       0.051  -2.224   3.623  0.00  0.00    +0.227 C 
ATOM     11  O   UNL     1       0.134  -1.034   3.843  0.00  0.00    -0.275 OA
ENDROOT
BRANCH   1  17
ATOM     12  C   UNL     1      -0.018   1.503   0.010  0.00  0.00    +0.044 C 
ATOM     13  C   UNL     1       0.002  -0.004   0.002  0.00  0.00    -0.049 A 
ATOM     14  C   UNL     1       0.006  -0.688  -1.200  0.00  0.00    +0.003 A 
ATOM     15  C   UNL     1       0.025  -2.071  -1.212  0.00  0.00    +0.002 A 
ATOM     16  C   UNL     1       0.041  -2.773  -0.022  0.00  0.00    +0.023 A 
ATOM     17  C   UNL     1       0.037  -2.089   1.186  0.00  0.00    +0.037 A 
ATOM     18  C   UNL     1       0.023  -0.700   1.194  0.00  0.00    +0.027 A 
ENDBRANCH   1  17
BRANCH   8  19
ATOM     19  C   UNL     1       0.233  -3.311   7.189  0.00  0.00    +0.314 C 
ATOM     20  O   UNL     1      -0.973  -3.373   7.240  0.00  0.00    -0.250 OA
BRANCH  19  21
ATOM     21  O   UNL     1       0.956  -3.364   8.319  0.00  0.00    -0.468 OA
ATOM     22  C   UNL     1       0.234  -3.494   9.545  0.00  0.00    +0.280 C 
ENDBRANCH  19  21
ENDBRANCH   8  19
TORSDOF 3
