REMARK  Name = ZINC47057043
REMARK  8 active torsions:
REMARK  status: ('A' for Active; 'I' for Inactive)
REMARK    1  A    between atoms: C_1  and  C_2
REMARK    2  A    between atoms: C_2  and  C_3
REMARK    3  A    between atoms: C_3  and  C_4
REMARK    4  A    between atoms: C_5  and  C_16
REMARK    5  A    between atoms: N_8  and  C_9
REMARK    6  A    between atoms: C_9  and  C_10
REMARK    7  A    between atoms: C_16  and  N_18
REMARK    8  A    between atoms: N_25  and  C_28
REMARK                            x       y       z     vdW  Elec       q    Type
REMARK                         _______ _______ _______ _____ _____    ______ ____
ROOT
ATOM      1  C   UNL     1       0.739  -2.004  -1.265  0.00  0.00    +0.052 A 
ATOM      2  C   UNL     1       1.714  -2.810  -0.718  0.00  0.00    +0.079 A 
ATOM      3  C   UNL     1       1.333  -4.148  -0.954  0.00  0.00    +0.147 A 
ATOM      4  N   UNL     1       0.200  -4.138  -1.602  0.00  0.00    -0.178 NA
ATOM      5  N   UNL     1      -0.194  -2.809  -1.802  0.00  0.00    -0.263 N 
ENDROOT
BRANCH   2   6
ATOM      6  C   UNL     1       2.933  -2.357  -0.015  0.00  0.00    +0.273 C 
ATOM      7  O   UNL     1       3.150  -1.165   0.124  0.00  0.00    -0.268 OA
BRANCH   6   8
ATOM      8  N   UNL     1       3.798  -3.253   0.468  0.00  0.00    -0.152 NA
ATOM      9  C   UNL     1       4.896  -2.845   1.101  0.00  0.00    +0.164 A 
ATOM     10  N   UNL     1       5.886  -3.600   1.650  0.00  0.00    -0.339 N 
ATOM     11  C   UNL     1       6.943  -2.986   2.264  0.00  0.00    +0.030 A 
ATOM     12  C   UNL     1       6.902  -1.644   2.267  0.00  0.00    +0.026 A 
ATOM     13  S   UNL     1       5.401  -1.269   1.409  0.00  0.00    -0.056 S 
ATOM     14  C   UNL     1       7.911  -0.717   2.862  0.00  0.00    +0.128 C 
ATOM     15  N   UNL     1       8.785  -1.501   3.757  0.00  0.00    -0.300 NA
ATOM     16  C   UNL     1       9.263  -2.716   3.081  0.00  0.00    +0.090 C 
ATOM     17  C   UNL     1       8.113  -3.713   2.913  0.00  0.00    +0.069 C 
ATOM     18  C   UNL     1       9.911  -0.689   4.237  0.00  0.00    +0.105 C 
ATOM     19  H   UNL     1       5.842  -4.569   1.607  0.00  0.00    +0.167 HD
ENDBRANCH   6   8
ENDBRANCH   2   6
BRANCH   1  20
ATOM     20  C   UNL     1       0.718  -0.497  -1.257  0.00  0.00    +0.055 C 
BRANCH  20  22
ATOM     21  C   UNL     1      -0.019   1.526   0.010  0.00  0.00    +0.004 C 
ATOM     22  C   UNL     1       0.002  -0.004   0.002  0.00  0.00    +0.003 C 
ENDBRANCH  20  22
ENDBRANCH   1  20
BRANCH   5  23
ATOM     23  C   UNL     1      -1.414  -2.371  -2.485  0.00  0.00    +0.179 C 
BRANCH  23  24
ATOM     24  C   UNL     1      -1.133  -2.205  -3.957  0.00  0.00    -0.026 A 
ATOM     25  C   UNL     1      -0.694  -0.988  -4.443  0.00  0.00    +0.005 A 
ATOM     26  C   UNL     1      -0.437  -0.835  -5.793  0.00  0.00    +0.000 A 
ATOM     27  C   UNL     1      -0.619  -1.899  -6.656  0.00  0.00    +0.000 A 
ATOM     28  C   UNL     1      -1.057  -3.117  -6.169  0.00  0.00    +0.000 A 
ATOM     29  C   UNL     1      -1.310  -3.271  -4.819  0.00  0.00    +0.005 A 
ENDBRANCH  23  24
ENDBRANCH   5  23
TORSDOF 6
