REMARK  Name = ZINC39791695
REMARK  9 active torsions:
REMARK  status: ('A' for Active; 'I' for Inactive)
REMARK    1  A    between atoms: C_1  and  C_2
REMARK    2  A    between atoms: C_2  and  O_3
REMARK    3  A    between atoms: O_3  and  C_4
REMARK    4  A    between atoms: C_4  and  C_6
REMARK    5  A    between atoms: C_7  and  C_16
REMARK    6  A    between atoms: C_16  and  O_17
REMARK    7  A    between atoms: O_17  and  C_18
REMARK    8  A    between atoms: C_18  and  C_20
REMARK    9  A    between atoms: C_21  and  C_22
REMARK                            x       y       z     vdW  Elec       q    Type
REMARK                         _______ _______ _______ _____ _____    ______ ____
ROOT
ATOM      1  O   UNL     1      -0.188  -5.099  -2.337  0.00  0.00    -0.457 OA
ENDROOT
BRANCH   1   2
ATOM      2  C   UNL     1      -0.789  -6.074  -1.626  0.00  0.00    +0.332 C 
ATOM      3  O   UNL     1      -0.199  -6.609  -0.708  0.00  0.00    -0.246 OA
BRANCH   2   4
ATOM      4  C   UNL     1      -2.158  -6.490  -1.960  0.00  0.00    +0.088 C 
ATOM      5  C   UNL     1      -2.752  -7.452  -1.258  0.00  0.00    -0.003 C 
BRANCH   5   6
ATOM      6  C   UNL     1      -4.156  -7.878  -1.601  0.00  0.00    +0.121 C 
ATOM      7  C   UNL     1      -5.044  -7.550  -0.417  0.00  0.00    -0.001 C 
ATOM      8  C   UNL     1      -5.732  -8.580   0.152  0.00  0.00    -0.007 A 
ATOM      9  C   UNL     1      -6.611  -8.352   1.300  0.00  0.00    +0.009 A 
ATOM     10  C   UNL     1      -7.277  -9.409   1.835  0.00  0.00    +0.001 A 
ATOM     11  C   UNL     1      -7.136 -10.695   1.314  0.00  0.00    +0.002 A 
ATOM     12  C   UNL     1      -6.336 -10.972   0.251  0.00  0.00    +0.024 A 
ATOM     13  C   UNL     1      -5.603  -9.949  -0.377  0.00  0.00    +0.040 A 
ATOM     14  N   UNL     1      -4.822 -10.232  -1.419  0.00  0.00    -0.284 N 
ATOM     15  C   UNL     1      -4.106  -9.320  -2.053  0.00  0.00    +0.228 C 
ATOM     16  O   UNL     1      -3.410  -9.640  -2.998  0.00  0.00    -0.274 OA
ATOM     17  H   UNL     1      -4.776 -11.152  -1.726  0.00  0.00    +0.155 HD
ENDBRANCH   5   6
ENDBRANCH   2   4
ENDBRANCH   1   2
BRANCH   1  18
ATOM     18  C   UNL     1       1.144  -4.746  -1.957  0.00  0.00    +0.270 C 
BRANCH  18  20
ATOM     19  C   UNL     1       1.450  -2.345  -2.519  0.00  0.00    +0.104 A 
ATOM     20  C   UNL     1       1.649  -3.648  -2.857  0.00  0.00    +0.021 A 
ATOM     21  C   UNL     1       2.325  -3.969  -4.046  0.00  0.00    +0.032 A 
ATOM     22  C   UNL     1       2.627  -5.256  -4.566  0.00  0.00    +0.132 A 
ATOM     23  C   UNL     1       3.301  -5.390  -5.752  0.00  0.00    +0.039 A 
ATOM     24  C   UNL     1       3.710  -4.280  -6.481  0.00  0.00    +0.004 A 
ATOM     25  C   UNL     1       3.434  -3.014  -6.008  0.00  0.00    +0.016 A 
ATOM     26  C   UNL     1       2.757  -2.863  -4.816  0.00  0.00    +0.023 A 
ATOM     27  S   UNL     1       2.206  -1.463  -3.874  0.00  0.00    -0.081 S 
ATOM     28  F   UNL     1       2.246  -6.359  -3.885  0.00  0.00    -0.205 F 
BRANCH  19  29
ATOM     29  C   UNL     1       0.776  -1.800  -1.335  0.00  0.00    +0.346 C 
ATOM     30  O   UNL     1       0.312  -2.551  -0.499  0.00  0.00    -0.244 OA
BRANCH  29  31
ATOM     31  O   UNL     1       0.671  -0.465  -1.174  0.00  0.00    -0.461 OA
BRANCH  31  33
ATOM     32  C   UNL     1      -0.019   1.526   0.010  0.00  0.00    +0.048 C 
ATOM     33  C   UNL     1       0.002  -0.004   0.002  0.00  0.00    +0.229 C 
ENDBRANCH  31  33
ENDBRANCH  29  31
ENDBRANCH  19  29
ENDBRANCH  18  20
ENDBRANCH   1  18
TORSDOF 8
