REMARK  Name = ZINC04967499
REMARK  6 active torsions:
REMARK  status: ('A' for Active; 'I' for Inactive)
REMARK    1  A    between atoms: C_1  and  C_2
REMARK    2  A    between atoms: C_4  and  N_27
REMARK    3  A    between atoms: C_11  and  C_14
REMARK    4  A    between atoms: N_16  and  C_17
REMARK    5  A    between atoms: N_27  and  C_28
REMARK    6  A    between atoms: N_27  and  C_29
REMARK                            x       y       z     vdW  Elec       q    Type
REMARK                         _______ _______ _______ _____ _____    ______ ____
ROOT
ATOM      1  C   UNL     1      -5.831  -6.202  -0.370  0.00  0.00    +0.066 C 
ATOM      2  C   UNL     1      -5.522  -5.156   0.670  0.00  0.00    +0.045 A 
ATOM      3  C   UNL     1      -6.356  -4.984   1.757  0.00  0.00    +0.066 A 
ATOM      4  C   UNL     1      -6.033  -4.003   2.696  0.00  0.00    +0.126 A 
ATOM      5  N   UNL     1      -4.939  -3.271   2.514  0.00  0.00    -0.199 NA
ATOM      6  C   UNL     1      -4.165  -3.467   1.458  0.00  0.00    +0.220 A 
ATOM      7  N   UNL     1      -4.450  -4.387   0.548  0.00  0.00    -0.219 NA
ATOM      8  N   UNL     1      -3.033  -2.687   1.297  0.00  0.00    -0.300 N 
ATOM      9  C   UNL     1      -2.310  -3.054   0.072  0.00  0.00    +0.108 C 
ATOM     10  C   UNL     1      -0.994  -2.277   0.003  0.00  0.00    +0.032 C 
ATOM     11  C   UNL     1      -1.293  -0.775   0.010  0.00  0.00    +0.078 C 
ATOM     12  C   UNL     1      -2.088  -0.426   1.271  0.00  0.00    +0.032 C 
ATOM     13  C   UNL     1      -3.372  -1.259   1.305  0.00  0.00    +0.108 C 
ENDROOT
BRANCH  11  14
ATOM     14  C   UNL     1       0.002  -0.004   0.002  0.00  0.00    +0.217 C 
ATOM     15  O   UNL     1       1.060  -0.596  -0.011  0.00  0.00    -0.275 OA
ATOM     16  N   UNL     1      -0.016   1.344   0.009  0.00  0.00    -0.310 N 
ATOM     17  H   UNL     1      -0.863   1.817   0.016  0.00  0.00    +0.149 HD
BRANCH  16  18
ATOM     18  C   UNL     1       1.242   2.093   0.001  0.00  0.00    +0.035 C 
ATOM     19  C   UNL     1       2.038   1.741  -1.257  0.00  0.00    +0.029 C 
ATOM     20  C   UNL     1       3.352   2.524  -1.266  0.00  0.00    -0.008 C 
ATOM     21  C   UNL     1       3.052   4.024  -1.255  0.00  0.00    +0.007 C 
ATOM     22  C   UNL     1       2.257   4.377   0.004  0.00  0.00    -0.008 C 
ATOM     23  C   UNL     1       0.943   3.594   0.012  0.00  0.00    +0.029 C 
ATOM     24  C   UNL     1       3.076   4.011   1.244  0.00  0.00    +0.007 C 
ATOM     25  C   UNL     1       3.376   2.511   1.233  0.00  0.00    -0.008 C 
ATOM     26  C   UNL     1       4.171   2.159  -0.026  0.00  0.00    +0.007 C 
ATOM     27  C   UNL     1       2.062   1.728   1.241  0.00  0.00    +0.029 C 
ENDBRANCH  16  18
ENDBRANCH  11  14
BRANCH   4  28
ATOM     28  N   UNL     1      -6.842  -3.795   3.802  0.00  0.00    -0.321 N 
ATOM     29  C   UNL     1      -7.983  -4.679   4.051  0.00  0.00    +0.130 C 
ATOM     30  C   UNL     1      -6.555  -2.692   4.722  0.00  0.00    +0.130 C 
ENDBRANCH   4  28
TORSDOF 3
