REMARK  Name = ZINC59266272
REMARK  3 active torsions:
REMARK  status: ('A' for Active; 'I' for Inactive)
REMARK    1  A    between atoms: C_3  and  O_26
REMARK    2  A    between atoms: C_6  and  N_7
REMARK    3  A    between atoms: N_15  and  C_16
REMARK                            x       y       z     vdW  Elec       q    Type
REMARK                         _______ _______ _______ _____ _____    ______ ____
ROOT
ATOM      1  N   UNL     1      -1.193  -0.727   0.001  0.00  0.00    -0.327 N 
ATOM      2  C   UNL     1      -2.479  -0.029   0.133  0.00  0.00    +0.124 C 
ATOM      3  C   UNL     1      -3.375  -0.424  -1.047  0.00  0.00    +0.128 C 
ATOM      4  N   UNL     1      -3.374  -1.888  -1.168  0.00  0.00    -0.283 N 
ATOM      5  C   UNL     1      -2.088  -2.587  -1.300  0.00  0.00    +0.128 C 
ATOM      6  C   UNL     1      -1.192  -2.191  -0.125  0.00  0.00    +0.124 C 
ATOM      7  C   UNL     1      -4.532  -2.578  -1.157  0.00  0.00    +0.303 C 
ATOM      8  O   UNL     1      -5.593  -1.985  -1.146  0.00  0.00    -0.253 OA
ATOM      9  N   UNL     1      -4.513  -3.926  -1.160  0.00  0.00    -0.294 N 
ATOM     10  H   UNL     1      -3.669  -4.399  -1.093  0.00  0.00    +0.151 HD
ENDROOT
BRANCH   9  11
ATOM     11  C   UNL     1      -5.767  -4.676  -1.262  0.00  0.00    +0.037 C 
ATOM     12  C   UNL     1      -6.671  -4.321  -0.080  0.00  0.00    +0.029 C 
ATOM     13  C   UNL     1      -7.981  -5.104  -0.186  0.00  0.00    -0.008 C 
ATOM     14  C   UNL     1      -7.682  -6.604  -0.167  0.00  0.00    +0.007 C 
ATOM     15  C   UNL     1      -6.778  -6.959  -1.349  0.00  0.00    -0.008 C 
ATOM     16  C   UNL     1      -5.468  -6.176  -1.242  0.00  0.00    +0.029 C 
ATOM     17  C   UNL     1      -7.483  -6.597  -2.657  0.00  0.00    +0.007 C 
ATOM     18  C   UNL     1      -7.783  -5.097  -2.677  0.00  0.00    -0.008 C 
ATOM     19  C   UNL     1      -8.687  -4.742  -1.495  0.00  0.00    +0.007 C 
ATOM     20  C   UNL     1      -6.473  -4.314  -2.570  0.00  0.00    +0.029 C 
ENDBRANCH   9  11
BRANCH   1  26
ATOM     21  C   UNL     1       1.221  -0.688  -0.023  0.00  0.00    +0.027 A 
ATOM     22  C   UNL     1       2.407   0.020  -0.034  0.00  0.00    +0.047 A 
ATOM     23  C   UNL     1       2.387   1.407  -0.033  0.00  0.00    +0.117 A 
ATOM     24  C   UNL     1       1.177   2.084  -0.020  0.00  0.00    +0.047 A 
ATOM     25  C   UNL     1      -0.010   1.378  -0.008  0.00  0.00    +0.027 A 
ATOM     26  C   UNL     1       0.009  -0.011  -0.010  0.00  0.00    +0.030 A 
BRANCH  23  27
ATOM     27  O   UNL     1       3.555   2.103  -0.043  0.00  0.00    -0.507 OA
ATOM     28  H   UNL     1       3.885   2.306  -0.930  0.00  0.00    +0.292 HD
ENDBRANCH  23  27
ENDBRANCH   1  26
TORSDOF 3
