REMARK  Name = ZINC14741046
REMARK  10 active torsions:
REMARK  status: ('A' for Active; 'I' for Inactive)
REMARK    1  A    between atoms: C_1  and  C_2
REMARK    2  A    between atoms: C_2  and  C_3
REMARK    3  A    between atoms: C_2  and  C_4
REMARK    4  A    between atoms: C_4  and  N_5
REMARK    5  A    between atoms: C_13  and  C_14
REMARK    6  A    between atoms: C_13  and  N_62
REMARK    7  A    between atoms: N_24  and  C_27
REMARK    8  A    between atoms: C_27  and  C_28
REMARK    9  A    between atoms: C_28  and  O_29
REMARK   10  A    between atoms: O_29  and  C_30
REMARK                            x       y       z     vdW  Elec       q    Type
REMARK                         _______ _______ _______ _____ _____    ______ ____
ROOT
ATOM      1  N   UNL     1      -0.535   1.778   1.433  0.00  0.00    -0.224 N 
ATOM      2  C   UNL     1      -0.245   2.834   2.223  0.00  0.00    +0.247 C 
ATOM      3  O   UNL     1       0.639   3.648   2.064  0.00  0.00    -0.273 OA
ATOM      4  C   UNL     1      -1.256   2.787   3.345  0.00  0.00    +0.112 C 
ATOM      5  C   UNL     1      -0.550   2.623   4.687  0.00  0.00    +0.017 C 
ATOM      6  C   UNL     1      -1.593   2.604   5.808  0.00  0.00    -0.076 C 
ATOM      7  C   UNL     1      -3.110   3.980   4.510  0.00  0.00    -0.076 C 
ATOM      8  C   UNL     1      -2.118   4.046   3.345  0.00  0.00    +0.017 C 
ATOM      9  N   UNL     1      -2.071   1.604   3.043  0.00  0.00    -0.269 N 
ATOM     10  C   UNL     1      -1.574   1.080   1.906  0.00  0.00    +0.312 C 
ATOM     11  O   UNL     1      -2.018   0.083   1.371  0.00  0.00    -0.252 OA
ATOM     12  N   UNL     1      -2.353   3.872   5.776  0.00  0.00    +0.383 N 
ATOM     13  H   UNL     1      -1.694   4.657   5.838  0.00  0.00    -0.081 HD
ENDROOT
BRANCH   1  14
ATOM     14  C   UNL     1       0.200   1.437   0.213  0.00  0.00    +0.121 C 
BRANCH  14  16
ATOM     15  C   UNL     1       0.394   1.881  -2.238  0.00  0.00    +0.009 C 
ATOM     16  C   UNL     1      -0.446   2.137  -0.985  0.00  0.00    +0.001 C 
ATOM     17  C   UNL     1      -1.858   1.587  -1.195  0.00  0.00    +0.009 C 
ENDBRANCH  14  16
ENDBRANCH   1  14
BRANCH  12  18
ATOM     18  C   UNL     1      -3.281   3.932   6.924  0.00  0.00    -0.025 C 
BRANCH  18  19
ATOM     19  C   UNL     1      -2.475   4.040   8.193  0.00  0.00    +0.000 A 
ATOM     20  C   UNL     1      -2.140   3.008   8.984  0.00  0.00    +0.029 A 
ATOM     21  C   UNL     1      -1.361   3.556  10.097  0.00  0.00    -0.000 A 
ATOM     22  C   UNL     1      -0.744   2.997  11.217  0.00  0.00    +0.010 A 
ATOM     23  C   UNL     1      -0.078   3.802  12.098  0.00  0.00    +0.001 A 
ATOM     24  C   UNL     1      -0.010   5.173  11.887  0.00  0.00    +0.002 A 
ATOM     25  C   UNL     1      -0.612   5.745  10.788  0.00  0.00    +0.026 A 
ATOM     26  C   UNL     1      -1.295   4.944   9.878  0.00  0.00    +0.047 A 
ATOM     27  N   UNL     1      -1.982   5.205   8.714  0.00  0.00    -0.360 N 
ATOM     28  H   UNL     1      -2.099   6.085   8.321  0.00  0.00    +0.166 HD
ENDBRANCH  18  19
ENDBRANCH  12  18
BRANCH   9  29
ATOM     29  C   UNL     1      -3.201   1.094   3.824  0.00  0.00    +0.138 C 
BRANCH  29  30
ATOM     30  C   UNL     1      -2.863  -0.298   4.361  0.00  0.00    +0.178 C 
BRANCH  30  31
ATOM     31  O   UNL     1      -1.755  -0.206   5.259  0.00  0.00    -0.381 OA
ATOM     32  C   UNL     1      -1.356  -1.458   5.820  0.00  0.00    +0.194 C 
ENDBRANCH  30  31
ENDBRANCH  29  30
ENDBRANCH   9  29
TORSDOF 7
