REMARK  Name = ZINC45886302
REMARK  5 active torsions:
REMARK  status: ('A' for Active; 'I' for Inactive)
REMARK    1  A    between atoms: C_1  and  C_2
REMARK    2  A    between atoms: N_8  and  C_9
REMARK    3  A    between atoms: C_10  and  N_18
REMARK    4  A    between atoms: C_12  and  O_16
REMARK    5  A    between atoms: O_16  and  C_17
REMARK                            x       y       z     vdW  Elec       q    Type
REMARK                         _______ _______ _______ _____ _____    ______ ____
ROOT
ATOM      1  C   UNL     1       1.134   0.402   2.181  0.00  0.00    +0.075 A 
ATOM      2  C   UNL     1       0.263   0.764   3.199  0.00  0.00    +0.152 A 
ATOM      3  C   UNL     1       0.679   1.635   4.187  0.00  0.00    +0.080 A 
ATOM      4  C   UNL     1       1.968   2.146   4.163  0.00  0.00    +0.123 A 
ATOM      5  C   UNL     1       2.840   1.785   3.147  0.00  0.00    +0.063 A 
ATOM      6  C   UNL     1       2.427   0.910   2.160  0.00  0.00    +0.045 A 
ATOM      7 BR   UNL     1       3.619   0.410   0.779  0.00  0.00    -0.048 Br
ENDROOT
BRANCH   1  14
ATOM      8  C   UNL     1       0.073   1.553  -0.031  0.00  0.00    +0.028 C 
ATOM      9  C   UNL     1       0.044   0.023  -0.029  0.00  0.00    +0.070 C 
ATOM     10  C   UNL     1       0.782  -0.506  -1.262  0.00  0.00    +0.022 C 
ATOM     11  C   UNL     1       0.871  -2.032  -1.183  0.00  0.00    +0.003 C 
ATOM     12  C   UNL     1       1.663  -2.434   0.064  0.00  0.00    +0.019 C 
ATOM     13  C   UNL     1       0.934  -1.927   1.312  0.00  0.00    +0.105 C 
ATOM     14  N   UNL     1       0.713  -0.480   1.179  0.00  0.00    -0.324 N 
ENDBRANCH   1  14
BRANCH   2  15
ATOM     15  N   UNL     1      -1.113   0.219   3.224  0.00  0.00    +0.058 N 
ATOM     16  O   UNL     1      -1.903   0.609   4.053  0.00  0.00    -0.126 OA
ATOM     17  O   UNL     1      -1.448  -0.616   2.417  0.00  0.00    -0.126 OA
ENDBRANCH   2  15
BRANCH   4  18
ATOM     18  O   UNL     1       2.377   3.003   5.137  0.00  0.00    -0.495 OA
ATOM     19  C   UNL     1       3.718   3.491   5.050  0.00  0.00    +0.277 C 
ENDBRANCH   4  18
TORSDOF 3
