REMARK  Name = ZINC35426925
REMARK  8 active torsions:
REMARK  status: ('A' for Active; 'I' for Inactive)
REMARK    1  A    between atoms: C_1  and  C_2
REMARK    2  A    between atoms: C_2  and  C_3
REMARK    3  A    between atoms: C_2  and  N_4
REMARK    4  A    between atoms: N_4  and  C_5
REMARK    5  A    between atoms: N_4  and  C_6
REMARK    6  A    between atoms: N_9  and  S_12
REMARK    7  A    between atoms: S_12  and  C_15
REMARK    8  A    between atoms: C_26  and  C_28
REMARK                            x       y       z     vdW  Elec       q    Type
REMARK                         _______ _______ _______ _____ _____    ______ ____
ROOT
ATOM      1  S   UNL     1      -1.539  -5.285   2.582  0.00  0.00    +0.061 S 
ATOM      2  O   UNL     1      -1.007  -4.868   3.832  0.00  0.00    -0.153 OA
ATOM      3  O   UNL     1      -2.927  -5.516   2.383  0.00  0.00    -0.153 OA
ENDROOT
BRANCH   1   4
ATOM      4  C   UNL     1      -0.714  -6.784   2.159  0.00  0.00    +0.107 A 
ATOM      5  C   UNL     1      -1.318  -7.676   1.291  0.00  0.00    +0.030 A 
ATOM      6  C   UNL     1      -0.666  -8.846   0.938  0.00  0.00    +0.018 A 
ATOM      7  C   UNL     1       0.580  -9.113   1.473  0.00  0.00    +0.029 A 
ATOM      8  C   UNL     1       1.178  -8.240   2.370  0.00  0.00    +0.051 A 
ATOM      9  C   UNL     1       0.532  -7.053   2.693  0.00  0.00    +0.053 A 
ATOM     10  N   UNL     1       2.393  -8.562   2.994  0.00  0.00    -0.270 N 
ATOM     11  C   UNL     1       2.390  -9.602   4.033  0.00  0.00    +0.114 C 
ATOM     12  C   UNL     1       2.646 -10.967   3.450  0.00  0.00    +0.030 C 
ATOM     13  C   UNL     1       1.539 -11.515   2.562  0.00  0.00    +0.076 C 
ATOM     14  S   UNL     1       1.469 -10.578   1.006  0.00  0.00    -0.123 S 
ATOM     15  C   UNL     1       3.534  -7.934   2.649  0.00  0.00    +0.217 C 
ATOM     16  O   UNL     1       4.576  -8.224   3.198  0.00  0.00    -0.276 OA
ATOM     17  C   UNL     1       3.516  -6.871   1.581  0.00  0.00    +0.109 C 
ENDBRANCH   1   4
BRANCH   1  21
ATOM     18  C   UNL     1      -0.984  -1.618   0.204  0.00  0.00    -0.066 C 
ATOM     19  C   UNL     1      -2.243  -2.483   0.110  0.00  0.00    +0.002 C 
ATOM     20  C   UNL     1      -1.854  -3.959   0.232  0.00  0.00    +0.108 C 
ATOM     21  N   UNL     1      -1.085  -4.146   1.470  0.00  0.00    -0.177 NA
ATOM     22  C   UNL     1       0.095  -3.301   1.702  0.00  0.00    +0.108 C 
ATOM     23  C   UNL     1      -0.316  -1.831   1.564  0.00  0.00    +0.002 C 
BRANCH  18  24
ATOM     24  N   UNL     1      -1.349  -0.203   0.054  0.00  0.00    +0.381 N 
ATOM     25  C   UNL     1      -2.361   0.150   1.059  0.00  0.00    -0.095 C 
ATOM     26  H   UNL     1      -0.530   0.371   0.186  0.00  0.00    -0.081 HD
BRANCH  24  28
ATOM     27  C   UNL     1      -2.256   1.500  -1.453  0.00  0.00    -0.014 C 
ATOM     28  C   UNL     1      -1.895   0.022  -1.291  0.00  0.00    -0.075 C 
ATOM     29  C   UNL     1      -0.848  -0.365  -2.337  0.00  0.00    -0.014 C 
ENDBRANCH  24  28
ENDBRANCH  18  24
ENDBRANCH   1  21
TORSDOF 4
