REMARK  Name = ZINC36038182
REMARK  3 active torsions:
REMARK  status: ('A' for Active; 'I' for Inactive)
REMARK    1  A    between atoms: C_1  and  C_2
REMARK    2  A    between atoms: C_2  and  C_3
REMARK    3  A    between atoms: C_3  and  N_4
REMARK                            x       y       z     vdW  Elec       q    Type
REMARK                         _______ _______ _______ _____ _____    ______ ____
ROOT
ATOM      1  N   UNL     1       0.762  -1.992   1.233  0.00  0.00    +0.381 N 
ATOM      2  C   UNL     1      -0.621  -2.456   1.269  0.00  0.00    -0.069 C 
ATOM      3  C   UNL     1      -0.714  -3.971   1.421  0.00  0.00    +0.018 C 
ATOM      4  C   UNL     1      -0.033  -4.684   0.251  0.00  0.00    +0.007 C 
ATOM      5  C   UNL     1       1.476  -4.560   0.225  0.00  0.00    +0.002 C 
ATOM      6  C   UNL     1       2.186  -4.724   1.561  0.00  0.00    +0.020 C 
ATOM      7  C   UNL     1       1.493  -3.924   2.662  0.00  0.00    +0.070 C 
ATOM      8  C   UNL     1       1.571  -2.432   2.355  0.00  0.00    -0.057 C 
ATOM      9  C   UNL     1       0.053  -4.370   2.670  0.00  0.00    +0.030 C 
ATOM     10  N   UNL     1      -0.483  -5.014   3.602  0.00  0.00    -0.266 NA
ATOM     11  C   UNL     1       0.191  -5.465   4.813  0.00  0.00    +0.126 C 
ATOM     12  C   UNL     1       0.394  -6.986   4.725  0.00  0.00    +0.050 C 
ATOM     13  C   UNL     1      -0.965  -7.664   4.544  0.00  0.00    +0.004 C 
ATOM     14  C   UNL     1      -1.854  -7.353   5.749  0.00  0.00    +0.000 C 
ATOM     15  C   UNL     1      -2.047  -5.840   5.865  0.00  0.00    +0.004 C 
ATOM     16  C   UNL     1      -0.688  -5.158   6.030  0.00  0.00    +0.050 C 
ATOM     17  N   UNL     1       1.492  -4.829   4.981  0.00  0.00    -0.290 N 
ATOM     18  C   UNL     1       2.115  -4.160   4.006  0.00  0.00    +0.225 C 
ATOM     19  O   UNL     1       3.230  -3.727   4.208  0.00  0.00    -0.275 OA
ATOM     20  H   UNL     1       1.927  -4.892   5.848  0.00  0.00    +0.151 HD
ATOM     21  H   UNL     1       1.190  -2.263   0.363  0.00  0.00    -0.082 HD
ENDROOT
BRANCH   1  22
ATOM     22  C   UNL     1       0.742  -0.511   1.242  0.00  0.00    -0.079 C 
BRANCH  22  24
ATOM     23  C   UNL     1      -0.019   1.526   0.010  0.00  0.00    +0.002 C 
ATOM     24  C   UNL     1       0.002  -0.004   0.002  0.00  0.00    -0.022 C 
ENDBRANCH  22  24
ENDBRANCH   1  22
TORSDOF 2
