REMARK  Name = ZINC36642616
REMARK  7 active torsions:
REMARK  status: ('A' for Active; 'I' for Inactive)
REMARK    1  A    between atoms: C_1  and  C_2
REMARK    2  A    between atoms: C_4  and  C_14
REMARK    3  A    between atoms: N_16  and  C_17
REMARK    4  A    between atoms: C_17  and  C_18
REMARK    5  A    between atoms: C_18  and  N_19
REMARK    6  A    between atoms: N_19  and  C_20
REMARK    7  A    between atoms: N_19  and  C_21
REMARK                            x       y       z     vdW  Elec       q    Type
REMARK                         _______ _______ _______ _____ _____    ______ ____
ROOT
ATOM      1  C   UNL     1      -0.094  -0.203  -2.532  0.00  0.00    +0.266 C 
ATOM      2  O   UNL     1      -0.719  -1.022  -3.171  0.00  0.00    -0.271 OA
ATOM      3  N   UNL     1      -0.181   1.105  -2.845  0.00  0.00    -0.249 N 
ATOM      4  C   UNL     1      -1.071   1.526  -3.821  0.00  0.00    +0.168 A 
ATOM      5  N   UNL     1      -1.294   2.741  -4.263  0.00  0.00    -0.221 NA
ATOM      6  C   UNL     1      -2.201   3.008  -5.228  0.00  0.00    +0.116 A 
ATOM      7  C   UNL     1      -2.535   4.264  -5.790  0.00  0.00    +0.152 A 
ATOM      8  C   UNL     1      -3.490   4.362  -6.771  0.00  0.00    +0.079 A 
ATOM      9  C   UNL     1      -4.158   3.240  -7.247  0.00  0.00    +0.127 A 
ATOM     10  C   UNL     1      -3.855   1.997  -6.719  0.00  0.00    +0.055 A 
ATOM     11  C   UNL     1      -2.901   1.891  -5.736  0.00  0.00    +0.046 A 
ATOM     12  S   UNL     1      -2.203   0.551  -4.802  0.00  0.00    -0.052 S 
ATOM     13  F   UNL     1      -5.094   3.362  -8.213  0.00  0.00    -0.205 F 
ATOM     14  F   UNL     1      -1.908   5.379  -5.355  0.00  0.00    -0.203 F 
ENDROOT
BRANCH   1  17
ATOM     15  C   UNL     1      -0.643   0.622   0.236  0.00  0.00    +0.056 C 
ATOM     16  C   UNL     1      -0.054  -0.748  -0.106  0.00  0.00    +0.220 C 
ATOM     17  C   UNL     1       0.782  -0.647  -1.389  0.00  0.00    +0.299 C 
ATOM     18  O   UNL     1       1.328  -1.940  -1.671  0.00  0.00    -0.472 OA
ATOM     19  C   UNL     1       1.895  -2.606  -0.628  0.00  0.00    +0.163 A 
ATOM     20  C   UNL     1       2.747  -3.670  -0.882  0.00  0.00    +0.049 A 
ATOM     21  C   UNL     1       3.328  -4.357   0.166  0.00  0.00    +0.004 A 
ATOM     22  C   UNL     1       3.060  -3.987   1.471  0.00  0.00    +0.004 A 
ATOM     23  C   UNL     1       2.213  -2.927   1.731  0.00  0.00    +0.049 A 
ATOM     24  C   UNL     1       1.629  -2.231   0.683  0.00  0.00    +0.163 A 
ATOM     25  O   UNL     1       0.802  -1.184   0.956  0.00  0.00    -0.481 OA
ENDBRANCH   1  17
BRANCH   3  26
ATOM     26  C   UNL     1       0.664   2.082  -2.154  0.00  0.00    +0.097 C 
BRANCH  26  27
ATOM     27  C   UNL     1       2.023   2.164  -2.853  0.00  0.00    -0.060 C 
BRANCH  27  28
ATOM     28  N   UNL     1       2.909   3.058  -2.095  0.00  0.00    +0.377 N 
ATOM     29  C   UNL     1       3.205   2.460  -0.786  0.00  0.00    -0.097 C 
ATOM     30  C   UNL     1       4.161   3.252  -2.839  0.00  0.00    -0.097 C 
ATOM     31  H   UNL     1       2.455   3.949  -1.963  0.00  0.00    -0.083 HD
ENDBRANCH  27  28
ENDBRANCH  26  27
ENDBRANCH   3  26
TORSDOF 4
