REMARK  Name = ZINC67536986
REMARK  6 active torsions:
REMARK  status: ('A' for Active; 'I' for Inactive)
REMARK    1  A    between atoms: C_1  and  C_2
REMARK    2  A    between atoms: C_6  and  N_8
REMARK    3  A    between atoms: N_11  and  C_12
REMARK    4  A    between atoms: C_12  and  C_14
REMARK    5  A    between atoms: C_12  and  C_15
REMARK    6  A    between atoms: C_22  and  C_24
REMARK                            x       y       z     vdW  Elec       q    Type
REMARK                         _______ _______ _______ _____ _____    ______ ____
ROOT
ATOM      1  N   UNL     1       0.551  -2.501   2.301  0.00  0.00    -0.267 N 
ATOM      2  C   UNL     1       0.430  -1.940   3.520  0.00  0.00    +0.305 C 
ATOM      3  O   UNL     1       0.241  -0.743   3.623  0.00  0.00    -0.252 OA
ATOM      4  N   UNL     1       0.519  -2.705   4.626  0.00  0.00    -0.288 N 
ATOM      5  H   UNL     1       0.629  -3.464   2.216  0.00  0.00    +0.156 HD
ATOM      6  H   UNL     1       0.669  -3.660   4.545  0.00  0.00    +0.151 HD
ENDROOT
BRANCH   1  12
ATOM      7  C   UNL     1      -1.011   1.520  -0.060  0.00  0.00    +0.044 C 
ATOM      8  C   UNL     1      -0.185   0.260  -0.015  0.00  0.00    -0.049 A 
ATOM      9  C   UNL     1       0.587  -0.098  -1.106  0.00  0.00    +0.006 A 
ATOM     10  C   UNL     1       1.347  -1.252  -1.069  0.00  0.00    +0.040 A 
ATOM     11  C   UNL     1       1.338  -2.052   0.059  0.00  0.00    +0.145 A 
ATOM     12  C   UNL     1       0.563  -1.694   1.156  0.00  0.00    +0.070 A 
ATOM     13  C   UNL     1      -0.194  -0.531   1.117  0.00  0.00    +0.029 A 
ATOM     14  F   UNL     1       2.080  -3.181   0.094  0.00  0.00    -0.204 F 
ENDBRANCH   1  12
BRANCH   4  15
ATOM     15  C   UNL     1       0.388  -2.095   5.952  0.00  0.00    +0.157 C 
ATOM     16  C   UNL     1      -1.094  -1.990   6.320  0.00  0.00    +0.038 C 
BRANCH  15  17
ATOM     17  C   UNL     1       1.100  -2.947   6.970  0.00  0.00    +0.236 C 
ATOM     18  O   UNL     1       1.419  -4.084   6.692  0.00  0.00    -0.274 OA
ATOM     19  N   UNL     1       1.383  -2.446   8.189  0.00  0.00    -0.297 N 
ATOM     20  C   UNL     1       0.891  -1.120   8.585  0.00  0.00    +0.108 C 
ATOM     21  C   UNL     1       0.135  -1.251   9.911  0.00  0.00    +0.019 C 
ATOM     22  C   UNL     1       1.041  -1.921  10.947  0.00  0.00    +0.003 C 
ATOM     23  C   UNL     1       1.418  -3.324  10.465  0.00  0.00    +0.022 C 
ATOM     24  C   UNL     1       2.184  -3.219   9.148  0.00  0.00    +0.073 C 
ATOM     25  C   UNL     1       2.438  -4.622   8.592  0.00  0.00    +0.028 C 
ENDBRANCH  15  17
ENDBRANCH   4  15
TORSDOF 3
