REMARK  Name = ZINC63731661
REMARK  9 active torsions:
REMARK  status: ('A' for Active; 'I' for Inactive)
REMARK    1  A    between atoms: C_1  and  C_2
REMARK    2  A    between atoms: C_3  and  N_9
REMARK    3  A    between atoms: C_10  and  S_21
REMARK    4  A    between atoms: C_15  and  C_18
REMARK    5  A    between atoms: S_21  and  C_22
REMARK    6  A    between atoms: C_22  and  C_23
REMARK    7  A    between atoms: N_25  and  C_26
REMARK    8  A    between atoms: C_26  and  C_27
REMARK    9  A    between atoms: C_27  and  C_28
REMARK                            x       y       z     vdW  Elec       q    Type
REMARK                         _______ _______ _______ _____ _____    ______ ____
ROOT
ATOM      1  N   UNL     1      -0.010   0.010  -2.412  0.00  0.00    -0.253 N 
ATOM      2  C   UNL     1       1.239   0.401  -3.072  0.00  0.00    +0.260 C 
ATOM      3  N   UNL     1       1.258   0.052  -4.496  0.00  0.00    -0.230 NA
ATOM      4  C   UNL     1       0.155  -0.010  -5.168  0.00  0.00    +0.185 C 
ATOM      5  C   UNL     1      -1.177   0.155  -4.490  0.00  0.00    +0.083 C 
ATOM      6  C   UNL     1      -2.086   0.045  -5.464  0.00  0.00    +0.075 C 
ATOM      7  N   UNL     1      -1.433  -0.191  -6.622  0.00  0.00    -0.152 NA
ATOM      8  N   UNL     1      -0.153  -0.238  -6.468  0.00  0.00    -0.129 NA
ATOM      9  C   UNL     1      -3.579   0.163  -5.298  0.00  0.00    +0.068 C 
ATOM     10  C   UNL     1      -1.225   0.357  -3.031  0.00  0.00    +0.133 C 
ATOM     11  N   UNL     1      -2.270   0.806  -2.392  0.00  0.00    -0.285 NA
ATOM     12  H   UNL     1      -3.079   1.027  -2.879  0.00  0.00    +0.188 HD
ENDROOT
BRANCH   1  15
ATOM     13  C   UNL     1      -0.018   1.503   0.010  0.00  0.00    +0.047 C 
ATOM     14  C   UNL     1       0.002  -0.004   0.002  0.00  0.00    -0.011 A 
ATOM     15  C   UNL     1       0.006  -0.693  -1.204  0.00  0.00    +0.042 A 
ATOM     16  C   UNL     1       0.025  -2.082  -1.208  0.00  0.00    +0.024 A 
ATOM     17  C   UNL     1       0.040  -2.774  -0.012  0.00  0.00    +0.003 A 
ATOM     18  C   UNL     1       0.035  -2.087   1.187  0.00  0.00    +0.020 A 
ATOM     19  C   UNL     1       0.023  -0.702   1.194  0.00  0.00    +0.046 A 
ATOM     20 CL   UNL     1       0.025   0.157   2.703  0.00  0.00    -0.083 Cl
ENDBRANCH   1  15
BRANCH   2  21
ATOM     21  S   UNL     1       1.452   2.195  -2.908  0.00  0.00    -0.106 S 
BRANCH  21  22
ATOM     22  C   UNL     1      -0.009   2.888  -3.729  0.00  0.00    +0.168 C 
BRANCH  22  23
ATOM     23  C   UNL     1       0.044   4.393  -3.663  0.00  0.00    +0.223 C 
ATOM     24  O   UNL     1       0.976   4.943  -3.116  0.00  0.00    -0.275 OA
ATOM     25  N   UNL     1      -0.945   5.126  -4.212  0.00  0.00    -0.314 N 
ATOM     26  H   UNL     1      -1.690   4.686  -4.650  0.00  0.00    +0.149 HD
BRANCH  25  27
ATOM     27  C   UNL     1      -0.893   6.589  -4.149  0.00  0.00    +0.109 C 
BRANCH  27  28
ATOM     28  C   UNL     1      -2.126   7.173  -4.841  0.00  0.00    +0.054 C 
BRANCH  28  29
ATOM     29  C   UNL     1      -2.073   8.678  -4.775  0.00  0.00    -0.046 A 
ATOM     30  C   UNL     1      -2.639   9.343  -3.704  0.00  0.00    +0.004 A 
ATOM     31  C   UNL     1      -2.591  10.723  -3.644  0.00  0.00    +0.000 A 
ATOM     32  C   UNL     1      -1.976  11.438  -4.655  0.00  0.00    +0.000 A 
ATOM     33  C   UNL     1      -1.409  10.773  -5.726  0.00  0.00    +0.000 A 
ATOM     34  C   UNL     1      -1.454   9.392  -5.784  0.00  0.00    +0.004 A 
ENDBRANCH  28  29
ENDBRANCH  27  28
ENDBRANCH  25  27
ENDBRANCH  22  23
ENDBRANCH  21  22
ENDBRANCH   2  21
TORSDOF 7
