REMARK  Name = ZINC36645327
REMARK  8 active torsions:
REMARK  status: ('A' for Active; 'I' for Inactive)
REMARK    1  A    between atoms: C_1  and  C_2
REMARK    2  A    between atoms: C_4  and  C_14
REMARK    3  A    between atoms: N_16  and  C_17
REMARK    4  A    between atoms: C_17  and  C_18
REMARK    5  A    between atoms: C_18  and  C_19
REMARK    6  A    between atoms: C_19  and  N_20
REMARK    7  A    between atoms: N_20  and  C_21
REMARK    8  A    between atoms: N_20  and  C_22
REMARK                            x       y       z     vdW  Elec       q    Type
REMARK                         _______ _______ _______ _____ _____    ______ ____
ROOT
ATOM      1  C   UNL     1       1.926   0.093  -1.492  0.00  0.00    +0.266 C 
ATOM      2  O   UNL     1       2.898  -0.628  -1.562  0.00  0.00    -0.271 OA
ATOM      3  N   UNL     1       2.083   1.421  -1.321  0.00  0.00    -0.247 N 
ATOM      4  C   UNL     1       3.354   1.974  -1.316  0.00  0.00    +0.168 A 
ATOM      5  N   UNL     1       3.705   3.228  -1.159  0.00  0.00    -0.221 NA
ATOM      6  C   UNL     1       4.997   3.628  -1.176  0.00  0.00    +0.116 A 
ATOM      7  C   UNL     1       5.507   4.940  -1.021  0.00  0.00    +0.152 A 
ATOM      8  C   UNL     1       6.857   5.176  -1.065  0.00  0.00    +0.079 A 
ATOM      9  C   UNL     1       7.768   4.146  -1.262  0.00  0.00    +0.127 A 
ATOM     10  C   UNL     1       7.302   2.851  -1.417  0.00  0.00    +0.055 A 
ATOM     11  C   UNL     1       5.952   2.606  -1.374  0.00  0.00    +0.046 A 
ATOM     12  S   UNL     1       4.932   1.158  -1.512  0.00  0.00    -0.052 S 
ATOM     13  F   UNL     1       9.094   4.404  -1.303  0.00  0.00    -0.205 F 
ATOM     14  F   UNL     1       4.654   5.970  -0.827  0.00  0.00    -0.203 F 
ENDROOT
BRANCH   1  17
ATOM     15  C   UNL     1       0.387  -0.594   0.902  0.00  0.00    +0.056 C 
ATOM     16  C   UNL     1       0.273  -1.404  -0.391  0.00  0.00    +0.220 C 
ATOM     17  C   UNL     1       0.542  -0.494  -1.598  0.00  0.00    +0.299 C 
ATOM     18  O   UNL     1       0.442  -1.286  -2.787  0.00  0.00    -0.472 OA
ATOM     19  C   UNL     1       1.082  -2.487  -2.778  0.00  0.00    +0.163 A 
ATOM     20  C   UNL     1       1.336  -3.132  -3.979  0.00  0.00    +0.049 A 
ATOM     21  C   UNL     1       1.982  -4.354  -3.986  0.00  0.00    +0.004 A 
ATOM     22  C   UNL     1       2.376  -4.937  -2.796  0.00  0.00    +0.004 A 
ATOM     23  C   UNL     1       2.127  -4.299  -1.595  0.00  0.00    +0.049 A 
ATOM     24  C   UNL     1       1.481  -3.071  -1.582  0.00  0.00    +0.163 A 
ATOM     25  O   UNL     1       1.249  -2.452  -0.392  0.00  0.00    -0.481 OA
ENDBRANCH   1  17
BRANCH   3  26
ATOM     26  C   UNL     1       0.910   2.280  -1.141  0.00  0.00    +0.114 C 
BRANCH  26  27
ATOM     27  C   UNL     1       0.672   2.511   0.353  0.00  0.00    +0.001 C 
BRANCH  27  28
ATOM     28  C   UNL     1      -0.624   3.301   0.547  0.00  0.00    -0.078 C 
BRANCH  28  29
ATOM     29  N   UNL     1      -0.824   3.570   1.977  0.00  0.00    +0.376 N 
ATOM     30  C   UNL     1       0.245   4.453   2.463  0.00  0.00    -0.097 C 
ATOM     31  C   UNL     1      -2.125   4.223   2.175  0.00  0.00    -0.097 C 
ATOM     32  H   UNL     1      -0.802   2.701   2.489  0.00  0.00    -0.083 HD
ENDBRANCH  28  29
ENDBRANCH  27  28
ENDBRANCH  26  27
ENDBRANCH   3  26
TORSDOF 5
