REMARK  Name = ZINC22789015
REMARK  7 active torsions:
REMARK  status: ('A' for Active; 'I' for Inactive)
REMARK    1  A    between atoms: C_1  and  C_2
REMARK    2  A    between atoms: C_2  and  C_4
REMARK    3  A    between atoms: C_2  and  N_11
REMARK    4  A    between atoms: N_9  and  C_10
REMARK    5  A    between atoms: N_14  and  C_17
REMARK    6  A    between atoms: C_17  and  C_18
REMARK    7  A    between atoms: C_17  and  C_25
REMARK                            x       y       z     vdW  Elec       q    Type
REMARK                         _______ _______ _______ _____ _____    ______ ____
ROOT
ATOM      1  N   UNL     1       0.713  -0.491   1.192  0.00  0.00    -0.289 NA
ATOM      2  C   UNL     1       0.068  -0.012   2.423  0.00  0.00    +0.100 C 
ATOM      3  C   UNL     1       0.788  -0.604   3.636  0.00  0.00    +0.100 C 
ATOM      4  N   UNL     1       2.205  -0.213   3.601  0.00  0.00    -0.289 NA
ATOM      5  C   UNL     1       2.849  -0.692   2.370  0.00  0.00    +0.100 C 
ATOM      6  C   UNL     1       2.129  -0.100   1.156  0.00  0.00    +0.100 C 
ENDROOT
BRANCH   1   8
ATOM      7  C   UNL     1      -0.019   1.526   0.010  0.00  0.00    +0.034 C 
ATOM      8  C   UNL     1       0.002  -0.004   0.002  0.00  0.00    +0.140 C 
BRANCH   8   9
ATOM      9  C   UNL     1      -1.412  -0.526   0.013  0.00  0.00    +0.237 C 
ATOM     10  O   UNL     1      -1.790  -1.233   0.922  0.00  0.00    -0.274 OA
ATOM     11  N   UNL     1      -2.256  -0.206  -0.988  0.00  0.00    -0.239 N 
ATOM     12  C   UNL     1      -3.520  -0.672  -0.979  0.00  0.00    +0.306 C 
ATOM     13  O   UNL     1      -3.899  -1.381  -0.067  0.00  0.00    -0.252 OA
ATOM     14  N   UNL     1      -4.364  -0.353  -1.980  0.00  0.00    -0.302 N 
ATOM     15  C   UNL     1      -5.738  -0.860  -1.970  0.00  0.00    +0.129 C 
ATOM     16  H   UNL     1      -1.953   0.360  -1.716  0.00  0.00    +0.159 HD
ATOM     17  H   UNL     1      -4.061   0.213  -2.707  0.00  0.00    +0.150 HD
ENDBRANCH   8   9
ENDBRANCH   1   8
BRANCH   4  18
ATOM     18  C   UNL     1       2.915  -0.700   4.791  0.00  0.00    +0.117 C 
BRANCH  18  19
ATOM     19  C   UNL     1       4.361  -0.281   4.719  0.00  0.00    -0.026 A 
ATOM     20  C   UNL     1       4.693   0.979   4.257  0.00  0.00    +0.008 A 
ATOM     21  C   UNL     1       6.019   1.364   4.191  0.00  0.00    +0.038 A 
ATOM     22  C   UNL     1       7.014   0.488   4.588  0.00  0.00    +0.123 A 
ATOM     23  C   UNL     1       6.681  -0.774   5.051  0.00  0.00    +0.038 A 
ATOM     24  C   UNL     1       5.354  -1.155   5.121  0.00  0.00    +0.008 A 
ATOM     25  F   UNL     1       8.311   0.863   4.523  0.00  0.00    -0.205 F 
ENDBRANCH  18  19
BRANCH  18  26
ATOM     26  C   UNL     1       2.284  -0.114   6.027  0.00  0.00    -0.026 A 
ATOM     27  C   UNL     1       1.861   1.202   6.030  0.00  0.00    +0.008 A 
ATOM     28  C   UNL     1       1.282   1.740   7.163  0.00  0.00    +0.038 A 
ATOM     29  C   UNL     1       1.124   0.960   8.296  0.00  0.00    +0.123 A 
ATOM     30  C   UNL     1       1.547  -0.358   8.293  0.00  0.00    +0.038 A 
ATOM     31  C   UNL     1       2.122  -0.895   7.157  0.00  0.00    +0.008 A 
ATOM     32  F   UNL     1       0.557   1.485   9.405  0.00  0.00    -0.205 F 
ENDBRANCH  18  26
ENDBRANCH   4  18
TORSDOF 5
