REMARK  Name = ZINC61117581
REMARK  3 active torsions:
REMARK  status: ('A' for Active; 'I' for Inactive)
REMARK    1  A    between atoms: C_1  and  C_2
REMARK    2  A    between atoms: C_4  and  N_9
REMARK    3  A    between atoms: N_9  and  C_10
REMARK                            x       y       z     vdW  Elec       q    Type
REMARK                         _______ _______ _______ _____ _____    ______ ____
ROOT
ATOM      1  N   UNL     1       0.028  -2.770  -2.419  0.00  0.00    -0.341 N 
ATOM      2  H   UNL     1       0.017  -2.282  -3.257  0.00  0.00    +0.146 HD
ENDROOT
BRANCH   1   3
ATOM      3  C   UNL     1       0.048  -4.235  -2.425  0.00  0.00    +0.071 C 
ATOM      4  C   UNL     1      -1.381  -4.765  -2.293  0.00  0.00    +0.027 C 
ATOM      5  C   UNL     1      -1.360  -6.295  -2.296  0.00  0.00    +0.067 C 
ATOM      6  C   UNL     1      -0.745  -6.793  -3.604  0.00  0.00    +0.170 C 
ATOM      7  C   UNL     1       0.682  -6.261  -3.743  0.00  0.00    +0.067 C 
ATOM      8  C   UNL     1       0.657  -4.731  -3.738  0.00  0.00    +0.027 C 
ATOM      9  O   UNL     1      -0.722  -8.230  -3.605  0.00  0.00    -0.346 OA
ATOM     10  C   UNL     1      -1.924  -8.619  -4.313  0.00  0.00    +0.191 C 
ATOM     11  C   UNL     1      -2.023  -7.515  -5.395  0.00  0.00    +0.191 C 
ATOM     12  O   UNL     1      -1.537  -6.342  -4.711  0.00  0.00    -0.346 OA
ENDBRANCH   1   3
BRANCH   1  16
ATOM     13  C   UNL     1      -0.018   1.503   0.010  0.00  0.00    +0.047 C 
ATOM     14  C   UNL     1       0.002  -0.004   0.002  0.00  0.00    -0.014 A 
ATOM     15  C   UNL     1       0.006  -0.688  -1.198  0.00  0.00    +0.029 A 
ATOM     16  C   UNL     1       0.025  -2.076  -1.205  0.00  0.00    +0.028 A 
ATOM     17  C   UNL     1       0.040  -2.775  -0.005  0.00  0.00    +0.026 A 
ATOM     18  C   UNL     1       0.036  -2.087   1.193  0.00  0.00    +0.040 A 
ATOM     19  C   UNL     1       0.023  -0.702   1.197  0.00  0.00    +0.126 A 
ATOM     20  F   UNL     1       0.025  -0.032   2.370  0.00  0.00    -0.205 F 
ENDBRANCH   1  16
TORSDOF 2
