REMARK  Name = ZINC05184573
REMARK  6 active torsions:
REMARK  status: ('A' for Active; 'I' for Inactive)
REMARK    1  A    between atoms: C_4  and  N_9
REMARK    2  A    between atoms: C_5  and  C_7
REMARK    3  A    between atoms: C_10  and  C_12
REMARK    4  A    between atoms: C_17  and  N_18
REMARK    5  A    between atoms: N_18  and  S_19
REMARK    6  A    between atoms: S_19  and  C_22
REMARK                            x       y       z     vdW  Elec       q    Type
REMARK                         _______ _______ _______ _____ _____    ______ ____
ROOT
ATOM      1  C   UNL     1       1.968  -2.145  -3.773  0.00  0.00    +0.059 A 
ATOM      2  C   UNL     1       3.011  -1.752  -4.616  0.00  0.00    +0.015 A 
ATOM      3  C   UNL     1       4.305  -1.730  -4.143  0.00  0.00    +0.001 A 
ATOM      4  C   UNL     1       4.579  -2.097  -2.835  0.00  0.00    +0.002 A 
ATOM      5  C   UNL     1       3.559  -2.483  -1.989  0.00  0.00    +0.025 A 
ATOM      6  C   UNL     1       2.249  -2.516  -2.449  0.00  0.00    +0.060 A 
ENDROOT
BRANCH   1   8
ATOM      7  N   UNL     1       0.316  -1.813  -5.545  0.00  0.00    -0.280 N 
ATOM      8  C   UNL     1       0.581  -2.170  -4.272  0.00  0.00    +0.250 C 
ATOM      9  O   UNL     1      -0.324  -2.513  -3.536  0.00  0.00    -0.270 OA
ATOM     10  H   UNL     1       1.044  -1.618  -6.155  0.00  0.00    +0.155 HD
BRANCH   7  14
ATOM     11  C   UNL     1      -3.635  -1.548  -6.854  0.00  0.00    +0.001 A 
ATOM     12  C   UNL     1      -3.333  -1.398  -5.511  0.00  0.00    +0.002 A 
ATOM     13  C   UNL     1      -2.026  -1.490  -5.074  0.00  0.00    +0.024 A 
ATOM     14  C   UNL     1      -1.003  -1.724  -5.983  0.00  0.00    +0.051 A 
ATOM     15  C   UNL     1      -1.306  -1.878  -7.344  0.00  0.00    +0.073 A 
ATOM     16  C   UNL     1      -2.633  -1.787  -7.771  0.00  0.00    +0.021 A 
BRANCH  15  17
ATOM     17  C   UNL     1      -0.261  -2.126  -8.291  0.00  0.00    +0.101 C 
ATOM     18  N   UNL     1       0.569  -2.323  -9.042  0.00  0.00    -0.191 NA
ENDBRANCH  15  17
ENDBRANCH   7  14
ENDBRANCH   1   8
BRANCH   6  19
ATOM     19  N   UNL     1       1.221  -2.910  -1.601  0.00  0.00    -0.216 N 
ATOM     20  H   UNL     1       0.473  -3.419  -1.950  0.00  0.00    +0.174 HD
BRANCH  19  21
ATOM     21  S   UNL     1       1.274  -2.509   0.004  0.00  0.00    +0.072 S 
ATOM     22  O   UNL     1       2.526  -2.966   0.497  0.00  0.00    -0.150 OA
ATOM     23  O   UNL     1       0.036  -2.923   0.567  0.00  0.00    -0.150 OA
BRANCH  21  24
ATOM     24  C   UNL     1       1.306  -0.749   0.101  0.00  0.00    +0.109 A 
ATOM     25  C   UNL     1       0.122  -0.039   0.173  0.00  0.00    +0.031 A 
ATOM     26  C   UNL     1       0.147   1.340   0.250  0.00  0.00    +0.040 A 
ATOM     27  C   UNL     1       1.358   2.011   0.255  0.00  0.00    +0.124 A 
ATOM     28  C   UNL     1       2.543   1.299   0.182  0.00  0.00    +0.040 A 
ATOM     29  C   UNL     1       2.516  -0.080   0.106  0.00  0.00    +0.031 A 
ATOM     30  F   UNL     1       1.383   3.360   0.329  0.00  0.00    -0.205 F 
ENDBRANCH  21  24
ENDBRANCH  19  21
ENDBRANCH   6  19
TORSDOF 6
