REMARK  Name = ZINC34975290
REMARK  9 active torsions:
REMARK  status: ('A' for Active; 'I' for Inactive)
REMARK    1  A    between atoms: C_1  and  C_2
REMARK    2  A    between atoms: C_5  and  C_8
REMARK    3  A    between atoms: C_15  and  C_17
REMARK    4  A    between atoms: C_18  and  C_20
REMARK    5  A    between atoms: C_20  and  C_22
REMARK    6  A    between atoms: C_20  and  N_25
REMARK    7  A    between atoms: C_22  and  C_23
REMARK    8  A    between atoms: C_22  and  C_24
REMARK    9  A    between atoms: N_28  and  C_29
REMARK                            x       y       z     vdW  Elec       q    Type
REMARK                         _______ _______ _______ _____ _____    ______ ____
ROOT
ATOM      1  C   UNL     1      -0.869  -4.175   0.689  0.00  0.00    +0.247 C 
ATOM      2  O   UNL     1      -1.230  -4.761  -0.313  0.00  0.00    -0.270 OA
ATOM      3  N   UNL     1      -0.454  -4.872   1.765  0.00  0.00    -0.292 N 
ATOM      4  C   UNL     1      -0.104  -4.183   3.014  0.00  0.00    +0.127 C 
ATOM      5  C   UNL     1       1.323  -4.582   3.412  0.00  0.00    +0.127 C 
ATOM      6  N   UNL     1       1.433  -6.046   3.356  0.00  0.00    -0.297 N 
ATOM      7  C   UNL     1       1.083  -6.736   2.107  0.00  0.00    +0.130 C 
ATOM      8  C   UNL     1      -0.349  -6.337   1.711  0.00  0.00    +0.091 C 
ATOM      9  C   UNL     1      -1.348  -6.960   2.688  0.00  0.00    +0.029 C 
ATOM     10  C   UNL     1       1.848  -6.744   4.432  0.00  0.00    +0.236 C 
ATOM     11  O   UNL     1       2.052  -6.174   5.483  0.00  0.00    -0.274 OA
ENDROOT
BRANCH   1  16
ATOM     12  C   UNL     1      -0.933   1.578   0.841  0.00  0.00    +0.044 C 
ATOM     13  C   UNL     1      -0.917   0.071   0.801  0.00  0.00    -0.050 A 
ATOM     14  C   UNL     1      -1.429  -0.652   1.864  0.00  0.00    +0.004 A 
ATOM     15  C   UNL     1      -1.417  -2.031   1.833  0.00  0.00    +0.013 A 
ATOM     16  C   UNL     1      -0.886  -2.697   0.728  0.00  0.00    +0.037 A 
ATOM     17  C   UNL     1      -0.370  -1.962  -0.341  0.00  0.00    +0.013 A 
ATOM     18  C   UNL     1      -0.394  -0.583  -0.300  0.00  0.00    +0.004 A 
ENDBRANCH   1  16
BRANCH  10  19
ATOM     19  C   UNL     1       2.059  -8.232   4.329  0.00  0.00    +0.163 C 
BRANCH  19  20
ATOM     20  N   UNL     1       2.122  -8.811   5.674  0.00  0.00    -0.288 N 
ATOM     21  C   UNL     1       1.803 -10.106   5.866  0.00  0.00    +0.305 C 
ATOM     22  O   UNL     1       1.464 -10.795   4.923  0.00  0.00    -0.252 OA
ATOM     23  N   UNL     1       1.861 -10.638   7.103  0.00  0.00    -0.267 N 
ATOM     24  H   UNL     1       2.393  -8.261   6.426  0.00  0.00    +0.151 HD
ATOM     25  H   UNL     1       2.078 -10.076   7.863  0.00  0.00    +0.156 HD
BRANCH  23  26
ATOM     26  C   UNL     1       1.607 -12.004   7.291  0.00  0.00    +0.070 A 
ATOM     27  C   UNL     1       0.765 -12.681   6.419  0.00  0.00    +0.029 A 
ATOM     28  C   UNL     1       0.516 -14.027   6.605  0.00  0.00    +0.040 A 
ATOM     29  C   UNL     1       1.105 -14.702   7.662  0.00  0.00    +0.126 A 
ATOM     30  C   UNL     1       1.945 -14.030   8.534  0.00  0.00    +0.078 A 
ATOM     31  C   UNL     1       2.202 -12.684   8.347  0.00  0.00    +0.147 A 
ATOM     32  F   UNL     1       3.026 -12.029   9.194  0.00  0.00    -0.203 F 
ATOM     33  F   UNL     1       0.859 -16.018   7.842  0.00  0.00    -0.205 F 
ENDBRANCH  23  26
ENDBRANCH  19  20
BRANCH  19  34
ATOM     34  C   UNL     1       3.370  -8.512   3.592  0.00  0.00    +0.012 C 
ATOM     35  C   UNL     1       4.543  -7.973   4.414  0.00  0.00    +0.009 C 
ATOM     36  C   UNL     1       3.534 -10.021   3.398  0.00  0.00    +0.009 C 
ENDBRANCH  19  34
ENDBRANCH  10  19
TORSDOF 5
