REMARK  Name = ZINC66241361
REMARK  7 active torsions:
REMARK  status: ('A' for Active; 'I' for Inactive)
REMARK    1  A    between atoms: C_1  and  C_2
REMARK    2  A    between atoms: N_4  and  C_5
REMARK    3  A    between atoms: C_10  and  N_11
REMARK    4  A    between atoms: C_12  and  C_14
REMARK    5  A    between atoms: C_17  and  N_20
REMARK    6  A    between atoms: C_21  and  N_27
REMARK    7  A    between atoms: C_22  and  C_25
REMARK                            x       y       z     vdW  Elec       q    Type
REMARK                         _______ _______ _______ _____ _____    ______ ____
ROOT
ATOM      1  N   UNL     1      -3.549  -2.291  -0.130  0.00  0.00    -0.280 N 
ATOM      2  C   UNL     1      -4.681  -3.022  -0.106  0.00  0.00    +0.248 C 
ATOM      3  O   UNL     1      -4.625  -4.233  -0.204  0.00  0.00    -0.270 OA
ATOM      4  H   UNL     1      -3.598  -1.322  -0.132  0.00  0.00    +0.155 HD
ENDROOT
BRANCH   1  10
ATOM      5  C   UNL     1      -1.193  -2.277  -0.687  0.00  0.00    +0.055 A 
ATOM      6  C   UNL     1       0.040  -2.913  -0.700  0.00  0.00    +0.026 A 
ATOM      7  C   UNL     1       0.164  -4.191  -0.189  0.00  0.00    +0.022 A 
ATOM      8  C   UNL     1      -0.939  -4.840   0.338  0.00  0.00    +0.043 A 
ATOM      9  C   UNL     1      -2.172  -4.214   0.355  0.00  0.00    +0.045 A 
ATOM     10  C   UNL     1      -2.304  -2.929  -0.151  0.00  0.00    +0.056 A 
ATOM     11 CL   UNL     1      -0.774  -6.446   0.977  0.00  0.00    -0.083 Cl
BRANCH   5  15
ATOM     12  C   UNL     1      -0.356   1.180  -1.921  0.00  0.00    +0.109 C 
ATOM     13  C   UNL     1      -0.250  -0.166  -1.251  0.00  0.00    +0.214 C 
ATOM     14  O   UNL     1       0.800  -0.514  -0.754  0.00  0.00    -0.276 OA
ATOM     15  N   UNL     1      -1.321  -0.982  -1.205  0.00  0.00    -0.284 N 
ATOM     16  H   UNL     1      -2.181  -0.672  -1.530  0.00  0.00    +0.155 HD
ENDBRANCH   5  15
ENDBRANCH   1  10
BRANCH   2  17
ATOM     17  C   UNL     1      -5.989  -2.353   0.040  0.00  0.00    +0.037 A 
ATOM     18  C   UNL     1      -6.056  -0.962   0.148  0.00  0.00    +0.015 A 
ATOM     19  C   UNL     1      -7.278  -0.342   0.284  0.00  0.00    +0.028 A 
ATOM     20  C   UNL     1      -8.444  -1.098   0.313  0.00  0.00    +0.067 A 
ATOM     21  C   UNL     1      -8.382  -2.484   0.207  0.00  0.00    +0.028 A 
ATOM     22  C   UNL     1      -7.163  -3.110   0.065  0.00  0.00    +0.015 A 
BRANCH  20  23
ATOM     23  N   UNL     1      -9.683  -0.466   0.451  0.00  0.00    -0.218 N 
ATOM     24  C   UNL     1     -10.848  -0.864  -0.123  0.00  0.00    +0.137 A 
ATOM     25  C   UNL     1     -11.827   0.042   0.274  0.00  0.00    +0.111 A 
ATOM     26  C   UNL     1     -11.197   0.995   1.108  0.00  0.00    +0.155 A 
ATOM     27  N   UNL     1      -9.936   0.683   1.209  0.00  0.00    -0.172 NA
BRANCH  24  28
ATOM     28  N   UNL     1     -11.026  -1.958  -0.946  0.00  0.00    -0.342 N 
ATOM     29  H   UNL     1     -10.273  -2.530  -1.163  0.00  0.00    +0.144 HD
ATOM     30  H   UNL     1     -11.905  -2.156  -1.306  0.00  0.00    +0.144 HD
ENDBRANCH  24  28
BRANCH  25  31
ATOM     31  C   UNL     1     -13.211   0.015  -0.093  0.00  0.00    +0.104 C 
ATOM     32  N   UNL     1     -14.309  -0.006  -0.385  0.00  0.00    -0.191 NA
ENDBRANCH  25  31
ENDBRANCH  20  23
ENDBRANCH   2  17
TORSDOF 6
