REMARK  Name = ZINC16418317
REMARK  7 active torsions:
REMARK  status: ('A' for Active; 'I' for Inactive)
REMARK    1  A    between atoms: C_1  and  C_2
REMARK    2  A    between atoms: C_15  and  C_17
REMARK    3  A    between atoms: C_17  and  N_52
REMARK    4  A    between atoms: C_18  and  C_19
REMARK    5  A    between atoms: C_18  and  N_52
REMARK    6  A    between atoms: C_24  and  C_25
REMARK    7  A    between atoms: C_24  and  N_52
REMARK                            x       y       z     vdW  Elec       q    Type
REMARK                         _______ _______ _______ _____ _____    ______ ____
ROOT
ATOM      1  C   UNL     1       2.695   0.754  -2.695  0.00  0.00    +0.029 C 
ATOM      2  C   UNL     1       2.394   0.781  -1.196  0.00  0.00    +0.087 C 
ATOM      3  C   UNL     1       3.586   1.380  -0.455  0.00  0.00    +0.118 C 
ATOM      4  C   UNL     1       3.179   1.775   0.940  0.00  0.00    +0.219 C 
ATOM      5  O   UNL     1       3.515   1.089   1.882  0.00  0.00    -0.275 OA
ATOM      6  N   UNL     1       2.443   2.889   1.148  0.00  0.00    -0.284 N 
ATOM      7  C   UNL     1       1.967   3.638   0.066  0.00  0.00    +0.055 A 
ATOM      8  C   UNL     1       2.112   5.015   0.037  0.00  0.00    +0.025 A 
ATOM      9  C   UNL     1       1.585   5.740  -1.015  0.00  0.00    +0.002 A 
ATOM     10  C   UNL     1       0.914   5.095  -2.039  0.00  0.00    +0.002 A 
ATOM     11  C   UNL     1       0.775   3.720  -2.023  0.00  0.00    +0.025 A 
ATOM     12  C   UNL     1       1.308   2.985  -0.976  0.00  0.00    +0.058 A 
ATOM     13  N   UNL     1       1.197   1.588  -0.954  0.00  0.00    -0.268 N 
ATOM     14  C   UNL     1       0.010   0.998  -0.709  0.00  0.00    +0.204 C 
ATOM     15  O   UNL     1      -0.074  -0.212  -0.692  0.00  0.00    -0.277 OA
ATOM     16  H   UNL     1       2.243   3.171   2.054  0.00  0.00    +0.155 HD
ENDROOT
BRANCH  14  17
ATOM     17  C   UNL     1      -1.214   1.841  -0.462  0.00  0.00    +0.020 C 
BRANCH  17  18
ATOM     18  N   UNL     1      -2.373   0.949  -0.251  0.00  0.00    +0.395 N 
ATOM     19  H   UNL     1      -2.423   0.277  -1.026  0.00  0.00    -0.080 HD
BRANCH  18  20
ATOM     20  C   UNL     1      -2.215   0.207   1.018  0.00  0.00    -0.002 C 
BRANCH  20  21
ATOM     21  C   UNL     1      -2.014   1.161   2.167  0.00  0.00    +0.089 A 
ATOM     22  C   UNL     1      -2.978   1.617   2.988  0.00  0.00    +0.042 A 
ATOM     23  C   UNL     1      -2.350   2.479   3.916  0.00  0.00    +0.041 A 
ATOM     24  C   UNL     1      -1.042   2.505   3.602  0.00  0.00    +0.195 A 
ATOM     25  O   UNL     1      -0.845   1.704   2.542  0.00  0.00    -0.470 OA
ENDBRANCH  20  21
ENDBRANCH  18  20
BRANCH  18  26
ATOM     26  C   UNL     1      -3.621   1.740  -0.220  0.00  0.00    -0.002 C 
BRANCH  26  27
ATOM     27  C   UNL     1      -4.793   0.803  -0.363  0.00  0.00    +0.089 A 
ATOM     28  C   UNL     1      -5.525   0.298   0.646  0.00  0.00    +0.042 A 
ATOM     29  C   UNL     1      -6.515  -0.525   0.062  0.00  0.00    +0.041 A 
ATOM     30  C   UNL     1      -6.324  -0.480  -1.269  0.00  0.00    +0.195 A 
ATOM     31  O   UNL     1      -5.279   0.325  -1.521  0.00  0.00    -0.470 OA
ENDBRANCH  26  27
ENDBRANCH  18  26
ENDBRANCH  17  18
ENDBRANCH  14  17
TORSDOF 6
