REMARK  Name = ZINC49133699
REMARK  7 active torsions:
REMARK  status: ('A' for Active; 'I' for Inactive)
REMARK    1  A    between atoms: C_1  and  C_2
REMARK    2  A    between atoms: C_2  and  C_3
REMARK    3  A    between atoms: C_2  and  C_4
REMARK    4  A    between atoms: C_16  and  C_18
REMARK    5  A    between atoms: C_18  and  C_19
REMARK    6  A    between atoms: C_18  and  C_20
REMARK    7  A    between atoms: C_18  and  C_21
REMARK                            x       y       z     vdW  Elec       q    Type
REMARK                         _______ _______ _______ _____ _____    ______ ____
ROOT
ATOM      1  C   UNL     1       0.752  -0.599  -1.190  0.00  0.00    +0.080 C 
ATOM      2  C   UNL     1       0.676  -2.140  -1.143  0.00  0.00    +0.024 C 
ATOM      3  C   UNL     1       2.087  -2.572  -1.622  0.00  0.00    +0.021 C 
ATOM      4  C   UNL     1       2.977  -1.462  -1.010  0.00  0.00    +0.110 C 
ATOM      5  N   UNL     1       2.173  -0.227  -1.124  0.00  0.00    -0.282 N 
ATOM      6  C   UNL     1       2.659   1.029  -1.162  0.00  0.00    +0.308 C 
ATOM      7  O   UNL     1       1.896   1.976  -1.167  0.00  0.00    -0.252 OA
ATOM      8  N   UNL     1       3.990   1.237  -1.194  0.00  0.00    -0.247 N 
ATOM      9  C   UNL     1       4.491   2.533  -1.232  0.00  0.00    +0.189 A 
ATOM     10  N   UNL     1       3.837   3.678  -1.238  0.00  0.00    -0.126 NA
ATOM     11  N   UNL     1       4.436   4.790  -1.275  0.00  0.00    -0.144 NA
ATOM     12  C   UNL     1       5.754   4.807  -1.309  0.00  0.00    +0.109 A 
ATOM     13  S   UNL     1       6.095   3.053  -1.277  0.00  0.00    -0.035 S 
ATOM     14  H   UNL     1       4.599   0.481  -1.190  0.00  0.00    +0.158 HD
ENDROOT
BRANCH  12  15
ATOM     15  C   UNL     1       6.704   5.976  -1.357  0.00  0.00    +0.013 C 
ATOM     16  C   UNL     1       6.498   6.851  -0.119  0.00  0.00    +0.018 C 
ATOM     17  C   UNL     1       8.145   5.461  -1.383  0.00  0.00    +0.018 C 
ATOM     18  C   UNL     1       6.434   6.801  -2.616  0.00  0.00    +0.018 C 
ENDBRANCH  12  15
BRANCH   1  20
ATOM     19  C   UNL     1      -1.462  -0.441  -0.044  0.00  0.00    +0.009 C 
ATOM     20  C   UNL     1       0.003  -0.004   0.004  0.00  0.00    +0.003 C 
ATOM     21  C   UNL     1       0.640  -0.500   1.304  0.00  0.00    +0.009 C 
ENDBRANCH   1  20
TORSDOF 2
