REMARK  Name = ZINC28444076
REMARK  4 active torsions:
REMARK  status: ('A' for Active; 'I' for Inactive)
REMARK    1  A    between atoms: C_1  and  C_2
REMARK    2  A    between atoms: C_2  and  C_22
REMARK    3  A    between atoms: N_16  and  C_17
REMARK    4  A    between atoms: C_17  and  C_18
REMARK                            x       y       z     vdW  Elec       q    Type
REMARK                         _______ _______ _______ _____ _____    ______ ____
ROOT
ATOM      1  C   UNL     1      -4.018   1.503   7.711  0.00  0.00    +0.041 C 
ATOM      2  C   UNL     1      -3.357   2.849   7.407  0.00  0.00    +0.068 C 
ATOM      3  C   UNL     1      -2.302   2.661   6.313  0.00  0.00    +0.071 C 
ATOM      4  C   UNL     1      -1.142   1.865   6.906  0.00  0.00    -0.019 A 
ATOM      5  C   UNL     1      -1.013   1.776   8.250  0.00  0.00    +0.021 A 
ATOM      6  S   UNL     1       0.431   0.785   8.507  0.00  0.00    -0.071 S 
ATOM      7  C   UNL     1       0.857   0.493   6.808  0.00  0.00    +0.114 A 
ATOM      8  C   UNL     1      -0.142   1.179   6.097  0.00  0.00    +0.056 A 
ATOM      9  C   UNL     1      -0.027   1.100   4.628  0.00  0.00    +0.169 A 
ATOM     10  N   UNL     1      -0.744   1.592   3.635  0.00  0.00    -0.193 NA
ATOM     11  C   UNL     1      -0.206   1.221   2.472  0.00  0.00    +0.236 A 
ATOM     12  N   UNL     1       0.860   0.483   2.700  0.00  0.00    -0.128 NA
ATOM     13  N   UNL     1       1.007   0.389   4.091  0.00  0.00    -0.200 N 
ATOM     14  C   UNL     1       1.912  -0.232   4.893  0.00  0.00    +0.226 A 
ATOM     15  N   UNL     1       1.827  -0.173   6.194  0.00  0.00    -0.228 NA
ATOM     16  N   UNL     1      -0.698   1.558   1.213  0.00  0.00    -0.309 N 
ATOM     17  C   UNL     1      -1.916   2.397   9.270  0.00  0.00    +0.203 C 
ATOM     18  O   UNL     1      -2.748   3.357   8.597  0.00  0.00    -0.368 OA
ATOM     19  C   UNL     1      -4.419   3.837   6.920  0.00  0.00    +0.041 C 
ATOM     20  H   UNL     1      -1.602   2.179   1.124  0.00  0.00    +0.149 HD
ENDROOT
BRANCH  16  21
ATOM     21  C   UNL     1      -0.013   1.086   0.008  0.00  0.00    +0.131 C 
BRANCH  21  22
ATOM     22  C   UNL     1      -0.742   1.585  -1.213  0.00  0.00    -0.016 C 
ATOM     23  C   UNL     1      -0.098   2.269  -2.126  0.00  0.00    +0.005 C 
ENDBRANCH  21  22
ENDBRANCH  16  21
TORSDOF 2
