REMARK  Name = ZINC36260152
REMARK  5 active torsions:
REMARK  status: ('A' for Active; 'I' for Inactive)
REMARK    1  A    between atoms: C_1  and  C_2
REMARK    2  A    between atoms: C_5  and  C_8
REMARK    3  A    between atoms: C_8  and  N_9
REMARK    4  A    between atoms: C_12  and  O_22
REMARK    5  A    between atoms: C_17  and  C_21
REMARK                            x       y       z     vdW  Elec       q    Type
REMARK                         _______ _______ _______ _____ _____    ______ ____
ROOT
ATOM      1  N   UNL     1       1.443  -4.743   0.089  0.00  0.00    -0.261 N 
ATOM      2  C   UNL     1       2.227  -4.923  -1.060  0.00  0.00    +0.082 A 
ATOM      3  C   UNL     1       1.842  -4.374  -2.272  0.00  0.00    +0.072 A 
ATOM      4  C   UNL     1       2.631  -4.565  -3.396  0.00  0.00    +0.119 A 
ATOM      5  C   UNL     1       3.802  -5.304  -3.307  0.00  0.00    +0.049 A 
ATOM      6  C   UNL     1       4.188  -5.853  -2.098  0.00  0.00    +0.051 A 
ATOM      7  C   UNL     1       3.405  -5.664  -0.972  0.00  0.00    +0.143 A 
ATOM      8  O   UNL     1       3.773  -6.195   0.225  0.00  0.00    -0.478 OA
ATOM      9  C   UNL     1       3.421  -5.451   1.394  0.00  0.00    +0.256 C 
ATOM     10  C   UNL     1       1.985  -5.002   1.299  0.00  0.00    +0.261 C 
ATOM     11  O   UNL     1       1.318  -4.878   2.304  0.00  0.00    -0.271 OA
ATOM     12  C   UNL     1       4.326  -4.222   1.507  0.00  0.00    +0.062 C 
ENDROOT
BRANCH   4  13
ATOM     13  O   UNL     1       2.257  -4.028  -4.588  0.00  0.00    -0.507 OA
ATOM     14  H   UNL     1       2.598  -3.136  -4.742  0.00  0.00    +0.292 HD
ENDBRANCH   4  13
BRANCH   1  15
ATOM     15  C   UNL     1       0.059  -4.275  -0.021  0.00  0.00    +0.149 C 
BRANCH  15  20
ATOM     16  C   UNL     1      -3.426  -8.778  -1.007  0.00  0.00    +0.044 C 
ATOM     17  C   UNL     1      -2.517  -7.604  -0.750  0.00  0.00    -0.050 A 
ATOM     18  C   UNL     1      -2.215  -7.235   0.547  0.00  0.00    +0.003 A 
ATOM     19  C   UNL     1      -1.381  -6.158   0.783  0.00  0.00    +0.005 A 
ATOM     20  C   UNL     1      -0.849  -5.450  -0.279  0.00  0.00    -0.030 A 
ATOM     21  C   UNL     1      -1.151  -5.819  -1.576  0.00  0.00    +0.005 A 
ATOM     22  C   UNL     1      -1.981  -6.899  -1.812  0.00  0.00    +0.003 A 
ENDBRANCH  15  20
ENDBRANCH   1  15
TORSDOF 3
