REMARK  Name = ZINC12589365
REMARK  7 active torsions:
REMARK  status: ('A' for Active; 'I' for Inactive)
REMARK    1  A    between atoms: C_1  and  C_2
REMARK    2  A    between atoms: C_3  and  C_13
REMARK    3  A    between atoms: N_6  and  C_7
REMARK    4  A    between atoms: C_13  and  C_15
REMARK    5  A    between atoms: C_13  and  N_49
REMARK    6  A    between atoms: C_16  and  C_17
REMARK    7  A    between atoms: C_16  and  N_49
REMARK                            x       y       z     vdW  Elec       q    Type
REMARK                         _______ _______ _______ _____ _____    ______ ____
ROOT
ATOM      1  N   UNL     1      -2.373   1.568   0.502  0.00  0.00    +0.387 N 
ATOM      2  H   UNL     1      -2.016   1.053   1.316  0.00  0.00    -0.085 HD
ATOM      3  H   UNL     1      -2.814   0.911  -0.152  0.00  0.00    -0.085 HD
ENDROOT
BRANCH   1   4
ATOM      4  C   UNL     1      -1.252   2.249  -0.173  0.00  0.00    -0.040 C 
ATOM      5  C   UNL     1      -1.602   2.471  -1.645  0.00  0.00    -0.009 C 
BRANCH   4   8
ATOM      6  C   UNL     1       1.708   3.251  -0.309  0.00  0.00    +0.066 C 
ATOM      7  C   UNL     1       1.261   1.822  -0.135  0.00  0.00    +0.043 A 
ATOM      8  C   UNL     1      -0.019   1.388  -0.074  0.00  0.00    -0.021 A 
ATOM      9  C   UNL     1       0.004  -0.001   0.092  0.00  0.00    +0.137 A 
ATOM     10  N   UNL     1       1.254  -0.388   0.129  0.00  0.00    -0.174 NA
ATOM     11  N   UNL     1       2.068   0.743  -0.013  0.00  0.00    -0.237 N 
BRANCH  11  12
ATOM     12  C   UNL     1       3.469   0.755  -0.025  0.00  0.00    +0.066 A 
ATOM     13  C   UNL     1       4.167  -0.223  -0.720  0.00  0.00    +0.028 A 
ATOM     14  C   UNL     1       5.548  -0.205  -0.734  0.00  0.00    +0.002 A 
ATOM     15  C   UNL     1       6.236   0.778  -0.047  0.00  0.00    +0.000 A 
ATOM     16  C   UNL     1       5.543   1.751   0.651  0.00  0.00    +0.002 A 
ATOM     17  C   UNL     1       4.162   1.742   0.664  0.00  0.00    +0.028 A 
ENDBRANCH  11  12
ENDBRANCH   4   8
ENDBRANCH   1   4
BRANCH   1  18
ATOM     18  C   UNL     1      -3.375   2.553   0.952  0.00  0.00    -0.027 C 
BRANCH  18  19
ATOM     19  C   UNL     1      -4.506   1.830   1.636  0.00  0.00    +0.008 A 
ATOM     20  C   UNL     1      -4.626   1.626   2.963  0.00  0.00    +0.021 A 
ATOM     21  C   UNL     1      -5.823   0.913   3.176  0.00  0.00    +0.020 A 
ATOM     22  C   UNL     1      -6.392   0.707   1.971  0.00  0.00    +0.093 A 
ATOM     23  N   UNL     1      -5.591   1.272   1.019  0.00  0.00    -0.307 N 
ATOM     24  C   UNL     1      -5.838   1.277  -0.357  0.00  0.00    +0.138 A 
ATOM     25  C   UNL     1      -6.983   0.665  -0.852  0.00  0.00    +0.048 A 
ATOM     26  C   UNL     1      -7.218   0.681  -2.216  0.00  0.00    +0.025 A 
ATOM     27  C   UNL     1      -6.290   1.302  -3.041  0.00  0.00    +0.059 A 
ATOM     28  C   UNL     1      -5.170   1.886  -2.480  0.00  0.00    +0.133 A 
ATOM     29  N   UNL     1      -4.976   1.859  -1.175  0.00  0.00    -0.236 NA
ATOM     30 CL   UNL     1      -6.534   1.345  -4.760  0.00  0.00    -0.082 Cl
ENDBRANCH  18  19
ENDBRANCH   1  18
TORSDOF 5
