REMARK  Name = ZINC62268839
REMARK  8 active torsions:
REMARK  status: ('A' for Active; 'I' for Inactive)
REMARK    1  A    between atoms: C_1  and  C_2
REMARK    2  A    between atoms: C_2  and  C_3
REMARK    3  A    between atoms: C_2  and  N_4
REMARK    4  A    between atoms: N_4  and  C_5
REMARK    5  A    between atoms: N_4  and  C_6
REMARK    6  A    between atoms: C_9  and  N_13
REMARK    7  A    between atoms: C_14  and  C_16
REMARK    8  A    between atoms: C_19  and  N_22
REMARK                            x       y       z     vdW  Elec       q    Type
REMARK                         _______ _______ _______ _____ _____    ______ ____
ROOT
ATOM      1  N   UNL     1      -2.963  -3.675  -4.326  0.00  0.00    -0.281 N 
ATOM      2  C   UNL     1      -3.850  -3.165  -5.204  0.00  0.00    +0.248 C 
ATOM      3  O   UNL     1      -4.175  -1.995  -5.129  0.00  0.00    -0.270 OA
ATOM      4  H   UNL     1      -2.646  -4.585  -4.431  0.00  0.00    +0.155 HD
ENDROOT
BRANCH   1   8
ATOM      5  C   UNL     1      -1.578  -1.337  -1.161  0.00  0.00    +0.065 A 
ATOM      6  C   UNL     1      -0.742  -2.276  -1.749  0.00  0.00    +0.028 A 
ATOM      7  C   UNL     1      -1.201  -3.050  -2.796  0.00  0.00    +0.025 A 
ATOM      8  C   UNL     1      -2.499  -2.889  -3.263  0.00  0.00    +0.037 A 
ATOM      9  C   UNL     1      -3.337  -1.950  -2.677  0.00  0.00    +0.063 A 
ATOM     10  C   UNL     1      -2.880  -1.179  -1.624  0.00  0.00    +0.146 A 
ATOM     11  F   UNL     1      -3.696  -0.269  -1.049  0.00  0.00    -0.203 F 
BRANCH   5  12
ATOM     12  N   UNL     1      -1.113  -0.552  -0.099  0.00  0.00    -0.328 N 
ATOM     13  C   UNL     1      -1.268  -1.020   1.281  0.00  0.00    +0.129 C 
BRANCH  12  15
ATOM     14  C   UNL     1      -1.263   1.854   0.315  0.00  0.00    +0.027 C 
ATOM     15  C   UNL     1      -0.470   0.737  -0.367  0.00  0.00    +0.067 C 
ATOM     16  C   UNL     1       0.958   0.719   0.180  0.00  0.00    +0.027 C 
ENDBRANCH  12  15
ENDBRANCH   5  12
ENDBRANCH   1   8
BRANCH   2  17
ATOM     17  C   UNL     1      -4.426  -4.026  -6.254  0.00  0.00    +0.037 A 
ATOM     18  C   UNL     1      -4.058  -5.372  -6.337  0.00  0.00    +0.015 A 
ATOM     19  C   UNL     1      -4.598  -6.172  -7.319  0.00  0.00    +0.026 A 
ATOM     20  C   UNL     1      -5.509  -5.642  -8.227  0.00  0.00    +0.056 A 
ATOM     21  C   UNL     1      -5.878  -4.303  -8.148  0.00  0.00    +0.026 A 
ATOM     22  C   UNL     1      -5.346  -3.499  -7.165  0.00  0.00    +0.015 A 
BRANCH  20  23
ATOM     23  N   UNL     1      -6.053  -6.456  -9.221  0.00  0.00    -0.188 N 
ATOM     24  C   UNL     1      -6.056  -6.037 -10.501  0.00  0.00    +0.237 C 
ATOM     25  O   UNL     1      -5.581  -4.957 -10.784  0.00  0.00    -0.274 OA
ATOM     26  C   UNL     1      -6.645  -6.904 -11.582  0.00  0.00    +0.107 C 
ATOM     27  C   UNL     1      -6.392  -8.376 -11.254  0.00  0.00    +0.106 C 
ATOM     28  C   UNL     1      -6.774  -8.647  -9.822  0.00  0.00    +0.230 C 
ATOM     29  O   UNL     1      -7.246  -9.721  -9.516  0.00  0.00    -0.274 OA
ATOM     30  N   UNL     1      -6.588  -7.704  -8.882  0.00  0.00    -0.227 N 
ATOM     31  H   UNL     1      -6.830  -7.890  -7.961  0.00  0.00    +0.173 HD
ENDBRANCH  20  23
ENDBRANCH   2  17
TORSDOF 5
