REMARK  Name = ZINC18038828
REMARK  6 active torsions:
REMARK  status: ('A' for Active; 'I' for Inactive)
REMARK    1  A    between atoms: C_1  and  C_2
REMARK    2  A    between atoms: C_5  and  C_8
REMARK    3  A    between atoms: N_13  and  C_14
REMARK    4  A    between atoms: C_14  and  C_15
REMARK    5  A    between atoms: N_17  and  N_18
REMARK    6  A    between atoms: C_24  and  C_27
REMARK                            x       y       z     vdW  Elec       q    Type
REMARK                         _______ _______ _______ _____ _____    ______ ____
ROOT
ATOM      1  C   UNL     1      -0.790   2.636  -0.328  0.00  0.00    +0.249 C 
ATOM      2  O   UNL     1      -1.694   1.884  -0.626  0.00  0.00    -0.272 OA
ATOM      3  N   UNL     1       0.487   2.209  -0.378  0.00  0.00    -0.222 N 
ATOM      4  H   UNL     1       1.210   2.812  -0.143  0.00  0.00    +0.174 HD
ENDROOT
BRANCH   3   5
ATOM      5  N   UNL     1       0.771   0.896  -0.774  0.00  0.00    -0.137 N 
ATOM      6  C   UNL     1       1.270   0.559  -1.981  0.00  0.00    +0.263 C 
ATOM      7  O   UNL     1       1.548   1.306  -2.895  0.00  0.00    -0.271 OA
ATOM      8  C   UNL     1       1.411  -0.946  -1.955  0.00  0.00    +0.114 C 
ATOM      9  C   UNL     1       2.871  -1.346  -2.135  0.00  0.00    +0.035 C 
ATOM     10  C   UNL     1       2.996  -2.870  -2.077  0.00  0.00    +0.006 C 
ATOM     11  C   UNL     1       2.139  -3.493  -3.182  0.00  0.00    -0.014 C 
ATOM     12  C   UNL     1       0.674  -3.103  -2.973  0.00  0.00    +0.006 C 
ATOM     13  C   UNL     1       0.540  -1.579  -3.034  0.00  0.00    +0.035 C 
ATOM     14  C   UNL     1       2.273  -5.017  -3.132  0.00  0.00    +0.007 C 
ATOM     15  N   UNL     1       0.933  -1.325  -0.619  0.00  0.00    -0.284 N 
ATOM     16  C   UNL     1       0.586  -0.181   0.000  0.00  0.00    +0.326 C 
ATOM     17  O   UNL     1       0.150  -0.131   1.133  0.00  0.00    -0.251 OA
ATOM     18  H   UNL     1       0.883  -2.222  -0.254  0.00  0.00    +0.151 HD
ENDBRANCH   3   5
BRANCH   1  19
ATOM     19  C   UNL     1      -1.096   4.049   0.099  0.00  0.00    +0.220 C 
BRANCH  19  25
ATOM     20  C   UNL     1      -3.283   4.149   1.215  0.00  0.00    +0.057 A 
ATOM     21  C   UNL     1      -4.617   4.353   1.168  0.00  0.00    +0.074 A 
ATOM     22  S   UNL     1      -4.867   4.727  -0.560  0.00  0.00    -0.070 S 
ATOM     23  C   UNL     1      -3.166   4.588  -1.089  0.00  0.00    +0.126 A 
ATOM     24  S   UNL     1      -2.498   4.805  -2.650  0.00  0.00    -0.025 S 
ATOM     25  N   UNL     1      -2.545   4.265   0.071  0.00  0.00    -0.320 N 
BRANCH  20  30
ATOM     26  C   UNL     1      -0.730   2.799   6.193  0.00  0.00    +0.044 C 
ATOM     27  C   UNL     1      -1.398   3.153   4.890  0.00  0.00    -0.050 A 
ATOM     28  C   UNL     1      -2.451   4.050   4.877  0.00  0.00    +0.004 A 
ATOM     29  C   UNL     1      -3.068   4.377   3.687  0.00  0.00    +0.010 A 
ATOM     30  C   UNL     1      -2.627   3.802   2.495  0.00  0.00    -0.001 A 
ATOM     31  C   UNL     1      -1.567   2.894   2.515  0.00  0.00    +0.010 A 
ATOM     32  C   UNL     1      -0.956   2.579   3.711  0.00  0.00    +0.004 A 
ENDBRANCH  20  30
ENDBRANCH  19  25
ENDBRANCH   1  19
TORSDOF 4
