REMARK  Name = ZINC63372984
REMARK  9 active torsions:
REMARK  status: ('A' for Active; 'I' for Inactive)
REMARK    1  A    between atoms: C_1  and  C_2
REMARK    2  A    between atoms: C_2  and  C_3
REMARK    3  A    between atoms: C_2  and  C_4
REMARK    4  A    between atoms: C_4  and  C_5
REMARK    5  A    between atoms: C_5  and  N_6
REMARK    6  A    between atoms: C_12  and  C_28
REMARK    7  A    between atoms: C_24  and  C_27
REMARK    8  A    between atoms: C_33  and  O_34
REMARK    9  A    between atoms: O_34  and  C_35
REMARK                            x       y       z     vdW  Elec       q    Type
REMARK                         _______ _______ _______ _____ _____    ______ ____
ROOT
ATOM      1  N   UNL     1       3.025  -1.209  -2.750  0.00  0.00    -0.291 N 
ATOM      2  C   UNL     1       3.728  -2.454  -3.108  0.00  0.00    +0.203 C 
ATOM      3  C   UNL     1       3.310  -2.862  -4.505  0.00  0.00    +0.234 C 
ATOM      4  O   UNL     1       3.057  -4.016  -4.781  0.00  0.00    -0.274 OA
ATOM      5  N   UNL     1       3.231  -1.862  -5.445  0.00  0.00    -0.283 N 
ATOM      6  C   UNL     1       2.631  -2.203  -6.723  0.00  0.00    +0.121 C 
ATOM      7  C   UNL     1       2.916  -1.176  -7.822  0.00  0.00    +0.068 C 
ATOM      8  C   UNL     1       2.808   0.178  -7.168  0.00  0.00    -0.027 C 
ATOM      9  C   UNL     1       2.028   1.225  -7.392  0.00  0.00    -0.000 A 
ATOM     10  C   UNL     1       1.050   1.516  -8.453  0.00  0.00    +0.010 A 
ATOM     11  C   UNL     1       0.397   2.704  -8.358  0.00  0.00    +0.001 A 
ATOM     12  C   UNL     1       0.616   3.622  -7.327  0.00  0.00    +0.002 A 
ATOM     13  C   UNL     1       1.505   3.443  -6.317  0.00  0.00    +0.026 A 
ATOM     14  C   UNL     1       2.260   2.236  -6.314  0.00  0.00    +0.043 A 
ATOM     15  N   UNL     1       3.188   1.826  -5.498  0.00  0.00    -0.375 N 
ATOM     16  C   UNL     1       3.700   0.549  -5.994  0.00  0.00    +0.139 C 
ATOM     17  C   UNL     1       3.694  -0.562  -4.993  0.00  0.00    +0.135 C 
ATOM     18  C   UNL     1       3.016  -0.218  -3.693  0.00  0.00    +0.242 C 
ATOM     19  O   UNL     1       2.502   0.862  -3.495  0.00  0.00    -0.273 OA
ATOM     20  C   UNL     1       5.161  -0.772  -4.611  0.00  0.00    +0.044 C 
ATOM     21  H   UNL     1       3.488   2.287  -4.699  0.00  0.00    +0.160 HD
ENDROOT
BRANCH   7  22
ATOM     22  C   UNL     1       4.304  -1.379  -8.373  0.00  0.00    +0.003 A 
ATOM     23  C   UNL     1       5.406  -1.153  -7.571  0.00  0.00    +0.008 A 
ATOM     24  C   UNL     1       6.680  -1.339  -8.076  0.00  0.00    +0.001 A 
ATOM     25  C   UNL     1       6.854  -1.751  -9.384  0.00  0.00    +0.004 A 
ATOM     26  C   UNL     1       5.756  -1.979 -10.190  0.00  0.00    +0.046 A 
ATOM     27  C   UNL     1       4.476  -1.798  -9.684  0.00  0.00    +0.124 A 
BRANCH  27  28
ATOM     28  O   UNL     1       3.394  -2.027 -10.473  0.00  0.00    -0.495 OA
ATOM     29  C   UNL     1       3.647  -2.456 -11.813  0.00  0.00    +0.277 C 
ENDBRANCH  27  28
ENDBRANCH   7  22
BRANCH   1  30
ATOM     30  C   UNL     1       2.364  -1.043  -1.453  0.00  0.00    +0.108 C 
BRANCH  30  31
ATOM     31  C   UNL     1       0.915  -1.522  -1.554  0.00  0.00    +0.022 C 
BRANCH  31  33
ATOM     32  C   UNL     1       0.136   0.140   0.142  0.00  0.00    +0.007 C 
ATOM     33  C   UNL     1       0.225  -1.349  -0.199  0.00  0.00    -0.016 C 
ATOM     34  C   UNL     1      -1.184  -1.942  -0.265  0.00  0.00    +0.007 C 
ENDBRANCH  31  33
ENDBRANCH  30  31
ENDBRANCH   1  30
TORSDOF 5
