REMARK  Name = ZINC23673876
REMARK  2 active torsions:
REMARK  status: ('A' for Active; 'I' for Inactive)
REMARK    1  A    between atoms: N_11  and  C_12
REMARK    2  A    between atoms: C_18  and  C_20
REMARK                            x       y       z     vdW  Elec       q    Type
REMARK                         _______ _______ _______ _____ _____    ______ ____
ROOT
ATOM      1  C   UNL     1      -3.830   1.851  -0.878  0.00  0.00    +0.095 C 
ATOM      2  C   UNL     1      -4.596   2.145   0.414  0.00  0.00    +0.044 C 
ATOM      3  C   UNL     1      -4.188   3.524   0.942  0.00  0.00    +0.110 C 
ATOM      4  N   UNL     1      -4.395   4.517  -0.121  0.00  0.00    -0.297 N 
ATOM      5  C   UNL     1      -3.777   4.286  -1.434  0.00  0.00    +0.110 C 
ATOM      6  C   UNL     1      -4.189   2.898  -1.935  0.00  0.00    +0.044 C 
ATOM      7  C   UNL     1      -5.137   5.619   0.104  0.00  0.00    +0.253 C 
ATOM      8  O   UNL     1      -5.223   6.480  -0.752  0.00  0.00    -0.270 OA
ENDROOT
BRANCH   1  19
ATOM      9  C   UNL     1      -2.104  -2.974  -2.114  0.00  0.00    +0.002 A 
ATOM     10  C   UNL     1      -1.349  -1.913  -1.643  0.00  0.00    +0.002 A 
ATOM     11  C   UNL     1      -1.950  -0.701  -1.365  0.00  0.00    +0.028 A 
ATOM     12  C   UNL     1      -3.314  -0.546  -1.557  0.00  0.00    +0.070 A 
ATOM     13  C   UNL     1      -4.075  -1.617  -2.031  0.00  0.00    +0.067 A 
ATOM     14  C   UNL     1      -3.463  -2.830  -2.308  0.00  0.00    +0.028 A 
ATOM     15  N   UNL     1      -5.391  -1.167  -2.121  0.00  0.00    -0.306 N 
ATOM     16  H   UNL     1      -6.181  -1.845  -2.475  0.00  0.00    +0.170 HD
ATOM     17  C   UNL     1      -5.428   0.117  -1.719  0.00  0.00    +0.328 A 
ATOM     18  O   UNL     1      -6.428   0.809  -1.676  0.00  0.00    -0.247 OA
ATOM     19  N   UNL     1      -4.192   0.519  -1.368  0.00  0.00    -0.289 N 
ENDBRANCH   1  19
BRANCH   7  20
ATOM     20  C   UNL     1      -5.843   5.781   1.381  0.00  0.00    +0.120 A 
ATOM     21  C   UNL     1      -7.176   6.206   1.404  0.00  0.00    +0.132 A 
ATOM     22  N   UNL     1      -7.780   6.336   2.574  0.00  0.00    -0.230 NA
ATOM     23  C   UNL     1      -7.152   6.085   3.704  0.00  0.00    +0.180 A 
ATOM     24  N   UNL     1      -5.853   5.672   3.781  0.00  0.00    -0.261 N 
ATOM     25  C   UNL     1      -5.183   5.516   2.599  0.00  0.00    +0.271 A 
ATOM     26  O   UNL     1      -4.020   5.149   2.599  0.00  0.00    -0.266 OA
ATOM     27  C   UNL     1      -5.345   5.452   5.040  0.00  0.00    +0.104 A 
ATOM     28  C   UNL     1      -6.120   5.646   6.107  0.00  0.00    +0.067 A 
ATOM     29  S   UNL     1      -7.653   6.165   5.358  0.00  0.00    -0.058 S 
ENDBRANCH   7  20
TORSDOF 2
