REMARK  Name = ZINC54064289
REMARK  4 active torsions:
REMARK  status: ('A' for Active; 'I' for Inactive)
REMARK    1  A    between atoms: C_1  and  C_2
REMARK    2  A    between atoms: N_11  and  C_12
REMARK    3  A    between atoms: C_12  and  C_14
REMARK    4  A    between atoms: C_12  and  C_15
REMARK                            x       y       z     vdW  Elec       q    Type
REMARK                         _______ _______ _______ _____ _____    ______ ____
ROOT
ATOM      1  C   UNL     1      -0.017   1.530   0.020  0.00  0.00    +0.009 C 
ATOM      2  C   UNL     1       0.005  -0.000   0.006  0.00  0.00    +0.003 C 
ATOM      3  C   UNL     1      -1.431  -0.531   0.013  0.00  0.00    +0.006 C 
ATOM      4  C   UNL     1      -1.411  -2.061  -0.033  0.00  0.00    +0.019 C 
ATOM      5  C   UNL     1      -0.691  -2.596   1.209  0.00  0.00    +0.109 C 
ATOM      6  N   UNL     1       0.639  -1.977   1.288  0.00  0.00    -0.285 N 
ATOM      7  C   UNL     1       0.741  -0.512   1.248  0.00  0.00    +0.112 C 
ATOM      8  C   UNL     1       1.746  -2.740   1.395  0.00  0.00    +0.303 C 
ATOM      9  O   UNL     1       2.845  -2.222   1.364  0.00  0.00    -0.253 OA
ATOM     10  N   UNL     1       1.633  -4.075   1.536  0.00  0.00    -0.293 N 
ATOM     11  H   UNL     1       0.760  -4.496   1.489  0.00  0.00    +0.151 HD
ENDROOT
BRANCH  10  12
ATOM     12  C   UNL     1       2.828  -4.891   1.762  0.00  0.00    +0.103 C 
ATOM     13  C   UNL     1       3.472  -5.236   0.417  0.00  0.00    +0.033 C 
BRANCH  12  14
ATOM     14  C   UNL     1       2.442  -6.162   2.474  0.00  0.00    -0.009 A 
ATOM     15  C   UNL     1       1.157  -6.659   2.354  0.00  0.00    +0.007 A 
ATOM     16  C   UNL     1       0.803  -7.824   3.007  0.00  0.00    +0.000 A 
ATOM     17  C   UNL     1       1.732  -8.494   3.780  0.00  0.00    +0.001 A 
ATOM     18  C   UNL     1       3.017  -7.999   3.901  0.00  0.00    +0.020 A 
ATOM     19  C   UNL     1       3.374  -6.835   3.243  0.00  0.00    +0.046 A 
ATOM     20 CL   UNL     1       4.989  -6.216   3.389  0.00  0.00    -0.083 Cl
ENDBRANCH  12  14
ENDBRANCH  10  12
TORSDOF 2
