REMARK  Name = ZINC06732534
REMARK  5 active torsions:
REMARK  status: ('A' for Active; 'I' for Inactive)
REMARK    1  A    between atoms: C_1  and  N_2
REMARK    2  A    between atoms: N_2  and  C_3
REMARK    3  A    between atoms: N_2  and  C_4
REMARK    4  A    between atoms: C_7  and  C_10
REMARK    5  A    between atoms: C_15  and  C_25
REMARK                            x       y       z     vdW  Elec       q    Type
REMARK                         _______ _______ _______ _____ _____    ______ ____
ROOT
ATOM      1  C   UNL     1      -2.777  -0.616  -3.207  0.00  0.00    +0.183 A 
ATOM      2  N   UNL     1      -2.539  -1.647  -2.379  0.00  0.00    -0.193 NA
ATOM      3  C   UNL     1      -2.427  -1.207  -1.157  0.00  0.00    +0.219 A 
ATOM      4  N   UNL     1      -2.588   0.140  -1.175  0.00  0.00    -0.220 N 
ATOM      5  N   UNL     1      -2.815   0.498  -2.503  0.00  0.00    -0.147 NA
ATOM      6  C   UNL     1      -2.518   0.972   0.020  0.00  0.00    +0.177 C 
ATOM      7  C   UNL     1      -2.585   0.106   1.259  0.00  0.00    +0.041 C 
ATOM      8  C   UNL     1      -2.416  -1.232   1.210  0.00  0.00    +0.020 C 
ATOM      9  N   UNL     1      -2.191  -1.891   0.025  0.00  0.00    -0.287 N 
ATOM     10  C   UNL     1      -2.464  -2.067   2.468  0.00  0.00    +0.052 C 
ATOM     11  C   UNL     1      -3.424  -1.427   3.473  0.00  0.00    +0.014 C 
ATOM     12  C   UNL     1      -2.935  -0.006   3.771  0.00  0.00    +0.080 C 
ATOM     13  C   UNL     1      -2.835   0.757   2.481  0.00  0.00    +0.163 C 
ATOM     14  O   UNL     1      -2.974   1.965   2.493  0.00  0.00    -0.292 OA
ATOM     15  H   UNL     1      -1.876  -2.809   0.016  0.00  0.00    +0.155 HD
ENDROOT
BRANCH   1  19
ATOM     16  C   UNL     1      -3.322  -0.899  -7.417  0.00  0.00    +0.029 A 
ATOM     17  C   UNL     1      -3.080  -2.046  -6.669  0.00  0.00    +0.024 A 
ATOM     18  C   UNL     1      -2.904  -1.957  -5.305  0.00  0.00    +0.013 A 
ATOM     19  C   UNL     1      -2.967  -0.715  -4.675  0.00  0.00    +0.021 A 
ATOM     20  C   UNL     1      -3.215   0.434  -5.426  0.00  0.00    +0.013 A 
ATOM     21  C   UNL     1      -3.385   0.340  -6.791  0.00  0.00    +0.024 A 
BRANCH  16  23
ATOM     22  C   UNL     1      -3.434  -2.298  -9.459  0.00  0.00    +0.129 C 
ATOM     23  N   UNL     1      -3.501  -0.993  -8.798  0.00  0.00    -0.336 N 
ATOM     24  C   UNL     1      -3.755   0.215  -9.587  0.00  0.00    +0.129 C 
ENDBRANCH  16  23
ENDBRANCH   1  19
BRANCH   6  25
ATOM     25  C   UNL     1      -1.223   1.742   0.017  0.00  0.00    -0.000 A 
ATOM     26  C   UNL     1      -1.231   3.129   0.030  0.00  0.00    +0.009 A 
ATOM     27  C   UNL     1      -0.015   3.796   0.022  0.00  0.00    +0.020 A 
ATOM     28  C   UNL     1       1.156   3.061   0.007  0.00  0.00    +0.111 A 
ATOM     29  N   UNL     1       1.125   1.743   0.001  0.00  0.00    -0.263 NA
ATOM     30  C   UNL     1      -0.013   1.076   0.008  0.00  0.00    +0.116 A 
ENDBRANCH   6  25
TORSDOF 3
