REMARK  Name = ZINC13941219
REMARK  5 active torsions:
REMARK  status: ('A' for Active; 'I' for Inactive)
REMARK    1  A    between atoms: C_1  and  C_2
REMARK    2  A    between atoms: C_5  and  N_9
REMARK    3  A    between atoms: C_6  and  C_8
REMARK    4  A    between atoms: C_10  and  C_12
REMARK    5  A    between atoms: C_15  and  N_18
REMARK                            x       y       z     vdW  Elec       q    Type
REMARK                         _______ _______ _______ _____ _____    ______ ____
ROOT
ATOM      1  C   UNL     1       4.550  -1.630  -0.315  0.00  0.00    +0.075 C 
ATOM      2  C   UNL     1       3.601  -1.323  -1.474  0.00  0.00    +0.014 C 
ATOM      3  C   UNL     1       2.348  -2.192  -1.351  0.00  0.00    +0.024 C 
ATOM      4  C   UNL     1       1.647  -1.892  -0.025  0.00  0.00    +0.084 C 
ATOM      5  C   UNL     1       2.596  -2.199   1.135  0.00  0.00    +0.024 C 
ATOM      6  C   UNL     1       3.849  -1.330   1.012  0.00  0.00    +0.014 C 
ENDROOT
BRANCH   4   7
ATOM      7  N   UNL     1       1.266  -0.478   0.017  0.00  0.00    -0.239 N 
ATOM      8  C   UNL     1      -0.004  -0.072   0.145  0.00  0.00    +0.226 C 
ATOM      9  O   UNL     1      -0.968  -0.801   0.240  0.00  0.00    -0.275 OA
ATOM     10  C   UNL     1      -0.043   1.440   0.152  0.00  0.00    +0.095 C 
ATOM     11  C   UNL     1      -0.863   1.928  -1.050  0.00  0.00    +0.027 C 
ATOM     12  C   UNL     1      -0.164   1.412  -2.303  0.00  0.00    -0.026 C 
ATOM     13  C   UNL     1       1.110   1.761  -2.427  0.00  0.00    -0.026 C 
ATOM     14  C   UNL     1       1.665   2.619  -1.296  0.00  0.00    +0.027 C 
ATOM     15  C   UNL     1       1.434   1.843   0.007  0.00  0.00    +0.095 C 
ATOM     16  C   UNL     1       2.159   0.516  -0.070  0.00  0.00    +0.226 C 
ATOM     17  O   UNL     1       3.357   0.376  -0.190  0.00  0.00    -0.275 OA
ATOM     18  C   UNL     1       0.764   3.882  -1.236  0.00  0.00    +0.001 C 
ATOM     19  C   UNL     1      -0.728   3.474  -1.091  0.00  0.00    +0.001 C 
ATOM     20  C   UNL     1      -0.005   4.119   0.093  0.00  0.00    +0.009 C 
ENDBRANCH   4   7
BRANCH   1  22
ATOM     21  N   UNL     1       6.767  -0.874   0.481  0.00  0.00    -0.285 N 
ATOM     22  C   UNL     1       5.785  -0.774  -0.436  0.00  0.00    +0.220 C 
ATOM     23  O   UNL     1       5.894   0.005  -1.359  0.00  0.00    -0.275 OA
ATOM     24  H   UNL     1       6.707  -1.538   1.186  0.00  0.00    +0.155 HD
BRANCH  21  29
ATOM     25  C   UNL     1      11.256   2.586   0.220  0.00  0.00    +0.044 C 
ATOM     26  C   UNL     1      10.063   1.667   0.289  0.00  0.00    -0.050 A 
ATOM     27  C   UNL     1       9.343   1.383  -0.857  0.00  0.00    +0.005 A 
ATOM     28  C   UNL     1       8.253   0.537  -0.797  0.00  0.00    +0.024 A 
ATOM     29  C   UNL     1       7.874  -0.021   0.417  0.00  0.00    +0.036 A 
ATOM     30  C   UNL     1       8.599   0.266   1.566  0.00  0.00    -0.029 A 
ATOM     31  C   UNL     1       9.691   1.109   1.499  0.00  0.00    +0.008 A 
ATOM     32  C   UNL     1       8.195  -0.341   2.884  0.00  0.00    +0.045 C 
ENDBRANCH  21  29
ENDBRANCH   1  22
TORSDOF 3
