REMARK  Name = ZINC43573967
REMARK  9 active torsions:
REMARK  status: ('A' for Active; 'I' for Inactive)
REMARK    1  A    between atoms: C_1  and  C_2
REMARK    2  A    between atoms: C_2  and  C_3
REMARK    3  A    between atoms: C_3  and  C_4
REMARK    4  A    between atoms: C_22  and  C_37
REMARK    5  A    between atoms: C_25  and  O_36
REMARK    6  A    between atoms: C_28  and  C_35
REMARK    7  A    between atoms: C_29  and  C_31
REMARK    8  A    between atoms: C_31  and  C_33
REMARK    9  A    between atoms: C_33  and  O_34
REMARK                            x       y       z     vdW  Elec       q    Type
REMARK                         _______ _______ _______ _____ _____    ______ ____
ROOT
ATOM      1  C   UNL     1       0.299  -2.020  -2.333  0.00  0.00    +0.252 C 
ATOM      2  O   UNL     1       0.828  -2.155  -0.983  0.00  0.00    -0.345 OA
ATOM      3  C   UNL     1       2.100  -2.702  -1.161  0.00  0.00    +0.161 C 
ATOM      4  C   UNL     1       2.822  -3.629  -0.211  0.00  0.00    +0.039 C 
ATOM      5  C   UNL     1       3.501  -4.659  -1.125  0.00  0.00    +0.004 C 
ATOM      6  C   UNL     1       5.002  -4.816  -0.998  0.00  0.00    -0.000 C 
ATOM      7  C   UNL     1       5.368  -5.184   0.442  0.00  0.00    +0.008 C 
ATOM      8  C   UNL     1       6.888  -5.326   0.568  0.00  0.00    +0.032 C 
ATOM      9  C   UNL     1       7.355  -6.336  -0.463  0.00  0.00    -0.056 C 
ATOM     10  C   UNL     1       8.117  -7.349  -0.073  0.00  0.00    +0.051 C 
ATOM     11  C   UNL     1       8.572  -8.359  -1.041  0.00  0.00    +0.179 C 
ATOM     12  O   UNL     1       9.301  -9.269  -0.694  0.00  0.00    -0.288 OA
ATOM     13  C   UNL     1       8.125  -8.243  -2.439  0.00  0.00    +0.047 C 
ATOM     14  C   UNL     1       7.370  -7.221  -2.808  0.00  0.00    -0.012 C 
ATOM     15  C   UNL     1       6.928  -6.135  -1.887  0.00  0.00    +0.013 C 
ATOM     16  C   UNL     1       5.409  -5.954  -1.953  0.00  0.00    +0.035 C 
ATOM     17  C   UNL     1       4.981  -5.666  -3.388  0.00  0.00    +0.120 C 
ATOM     18  C   UNL     1       3.481  -5.340  -3.490  0.00  0.00    +0.042 C 
ATOM     19  C   UNL     1       3.235  -4.149  -2.582  0.00  0.00    +0.012 C 
ATOM     20  C   UNL     1       1.838  -3.639  -2.415  0.00  0.00    +0.164 C 
ATOM     21  O   UNL     1       1.228  -2.676  -3.247  0.00  0.00    -0.334 OA
ATOM     22  C   UNL     1       4.200  -3.010  -2.920  0.00  0.00    +0.015 C 
ATOM     23  C   UNL     1       7.543  -4.823  -2.380  0.00  0.00    +0.020 C 
ENDROOT
BRANCH  20  24
ATOM     24  C   UNL     1       0.880  -4.750  -2.071  0.00  0.00    +0.193 C 
ATOM     25  O   UNL     1       0.815  -5.162  -0.938  0.00  0.00    -0.292 OA
BRANCH  24  26
ATOM     26  C   UNL     1       0.004  -5.348  -3.142  0.00  0.00    +0.233 C 
BRANCH  26  27
ATOM     27  O   UNL     1      -0.909  -6.273  -2.548  0.00  0.00    -0.387 OA
ATOM     28  H   UNL     1      -1.506  -6.697  -3.180  0.00  0.00    +0.210 HD
ENDBRANCH  26  27
ENDBRANCH  24  26
ENDBRANCH  20  24
BRANCH  17  29
ATOM     29  O   UNL     1       5.261  -6.812  -4.195  0.00  0.00    -0.391 OA
ATOM     30  H   UNL     1       5.016  -6.708  -5.125  0.00  0.00    +0.210 HD
ENDBRANCH  17  29
BRANCH   1  31
ATOM     31  C   UNL     1       0.176  -0.538  -2.695  0.00  0.00    +0.061 C 
BRANCH  31  33
ATOM     32  C   UNL     1      -1.012   1.597  -2.175  0.00  0.00    +0.004 C 
ATOM     33  C   UNL     1      -0.890   0.116  -1.813  0.00  0.00    +0.002 C 
ENDBRANCH  31  33
ENDBRANCH   1  31
TORSDOF 6
