REMARK  Name = ZINC39711089
REMARK  9 active torsions:
REMARK  status: ('A' for Active; 'I' for Inactive)
REMARK    1  A    between atoms: C_1  and  C_2
REMARK    2  A    between atoms: C_5  and  C_35
REMARK    3  A    between atoms: C_10  and  C_14
REMARK    4  A    between atoms: C_14  and  C_16
REMARK    5  A    between atoms: C_14  and  N_25
REMARK    6  A    between atoms: N_20  and  C_21
REMARK    7  A    between atoms: C_21  and  C_22
REMARK    8  A    between atoms: C_22  and  O_23
REMARK    9  A    between atoms: O_23  and  C_24
REMARK                            x       y       z     vdW  Elec       q    Type
REMARK                         _______ _______ _______ _____ _____    ______ ____
ROOT
ATOM      1  C   UNL     1      -1.204  -0.616   4.537  0.00  0.00    +0.142 C 
ENDROOT
BRANCH   1  11
ATOM      2  C   UNL     1       1.303   1.584   0.631  0.00  0.00    +0.044 C 
ATOM      3  C   UNL     1       1.577   0.110   0.777  0.00  0.00    -0.042 A 
ATOM      4  C   UNL     1       2.159  -0.589  -0.232  0.00  0.00    +0.004 A 
ATOM      5  C   UNL     1       2.420  -1.954  -0.114  0.00  0.00    +0.005 A 
ATOM      6  C   UNL     1       2.113  -2.666   1.002  0.00  0.00    -0.029 A 
ATOM      7  C   UNL     1       1.508  -2.037   2.106  0.00  0.00    +0.043 A 
ATOM      8  N   UNL     1       1.212  -2.745   3.196  0.00  0.00    -0.284 N 
ATOM      9  C   UNL     1       0.643  -2.217   4.267  0.00  0.00    +0.226 C 
ATOM     10  O   UNL     1       0.397  -2.914   5.233  0.00  0.00    -0.275 OA
ATOM     11  C   UNL     1       0.300  -0.745   4.286  0.00  0.00    +0.123 C 
ATOM     12  C   UNL     1       0.634   0.065   3.048  0.00  0.00    -0.002 C 
ATOM     13  C   UNL     1       1.226  -0.594   2.011  0.00  0.00    -0.004 A 
ATOM     14  C   UNL     1       2.424  -4.139   1.059  0.00  0.00    +0.045 C 
ATOM     15  H   UNL     1       1.423  -3.691   3.204  0.00  0.00    +0.155 HD
ENDBRANCH   1  11
BRANCH   1  16
ATOM     16  N   UNL     1      -1.539  -1.233   5.828  0.00  0.00    -0.287 NA
ATOM     17  C   UNL     1      -2.989  -1.183   6.075  0.00  0.00    +0.090 C 
ATOM     18  C   UNL     1      -3.319  -2.142   7.220  0.00  0.00    +0.051 C 
ATOM     19  C   UNL     1      -2.406  -1.878   8.391  0.00  0.00    -0.042 A 
ATOM     20  C   UNL     1      -2.764  -2.378   9.634  0.00  0.00    +0.004 A 
ATOM     21  C   UNL     1      -1.955  -2.162  10.731  0.00  0.00    +0.000 A 
ATOM     22  C   UNL     1      -0.782  -1.444  10.590  0.00  0.00    +0.000 A 
ATOM     23  C   UNL     1      -0.426  -0.945   9.354  0.00  0.00    +0.005 A 
ATOM     24  C   UNL     1      -1.239  -1.159   8.250  0.00  0.00    -0.030 A 
ATOM     25  C   UNL     1      -0.814  -0.584   6.924  0.00  0.00    +0.120 C 
ENDBRANCH   1  16
BRANCH   1  26
ATOM     26  C   UNL     1      -1.586   0.841   4.563  0.00  0.00    +0.170 A 
ATOM     27  N   UNL     1      -1.191   1.739   5.433  0.00  0.00    -0.112 NA
ATOM     28  N   UNL     1      -1.733   2.864   5.117  0.00  0.00    -0.023 NA
ATOM     29  N   UNL     1      -2.464   2.708   4.069  0.00  0.00    -0.044 NA
ATOM     30  N   UNL     1      -2.395   1.476   3.694  0.00  0.00    -0.225 N 
BRANCH  30  31
ATOM     31  C   UNL     1      -3.074   0.878   2.542  0.00  0.00    +0.175 C 
BRANCH  31  32
ATOM     32  C   UNL     1      -4.447   0.357   2.971  0.00  0.00    +0.183 C 
BRANCH  32  33
ATOM     33  O   UNL     1      -5.108  -0.226   1.847  0.00  0.00    -0.381 OA
ATOM     34  C   UNL     1      -6.406  -0.746   2.142  0.00  0.00    +0.194 C 
ENDBRANCH  32  33
ENDBRANCH  31  32
ENDBRANCH  30  31
ENDBRANCH   1  26
TORSDOF 6
