REMARK  Name = ZINC08691515
REMARK  4 active torsions:
REMARK  status: ('A' for Active; 'I' for Inactive)
REMARK    1  A    between atoms: C_4  and  C_7
REMARK    2  A    between atoms: C_7  and  C_9
REMARK    3  A    between atoms: N_11  and  C_28
REMARK    4  A    between atoms: N_18  and  C_21
REMARK                            x       y       z     vdW  Elec       q    Type
REMARK                         _______ _______ _______ _____ _____    ______ ____
ROOT
ATOM      1  C   UNL     1       3.723  -2.099   0.061  0.00  0.00    +0.121 C 
ATOM      2  N   UNL     1       2.686  -2.878   0.073  0.00  0.00    -0.179 NA
ATOM      3  N   UNL     1       2.916  -4.130   0.169  0.00  0.00    -0.211 N 
ATOM      4  C   UNL     1       4.363  -4.388   0.241  0.00  0.00    +0.202 C 
ATOM      5  C   UNL     1       4.967  -2.958   0.164  0.00  0.00    +0.161 C 
ATOM      6  C   UNL     1       5.693  -2.955  -1.162  0.00  0.00    +0.238 C 
ATOM      7  O   UNL     1       6.309  -2.017  -1.621  0.00  0.00    -0.274 OA
ATOM      8  N   UNL     1       5.548  -4.147  -1.751  0.00  0.00    -0.207 N 
ATOM      9  C   UNL     1       4.824  -5.046  -1.040  0.00  0.00    +0.250 C 
ATOM     10  O   UNL     1       4.573  -6.184  -1.373  0.00  0.00    -0.273 OA
ENDROOT
BRANCH   8  11
ATOM     11  C   UNL     1       6.113  -4.450  -2.999  0.00  0.00    +0.062 A 
ATOM     12  C   UNL     1       7.387  -4.997  -3.072  0.00  0.00    +0.025 A 
ATOM     13  C   UNL     1       7.940  -5.294  -4.302  0.00  0.00    +0.002 A 
ATOM     14  C   UNL     1       7.227  -5.048  -5.461  0.00  0.00    +0.002 A 
ATOM     15  C   UNL     1       5.958  -4.504  -5.393  0.00  0.00    +0.022 A 
ATOM     16  C   UNL     1       5.396  -4.210  -4.164  0.00  0.00    +0.063 A 
ATOM     17 CL   UNL     1       3.799  -3.534  -4.078  0.00  0.00    -0.082 Cl
ENDBRANCH   8  11
BRANCH   3  18
ATOM     18  C   UNL     1       1.931  -5.118   0.200  0.00  0.00    +0.052 A 
ATOM     19  C   UNL     1       2.290  -6.456   0.312  0.00  0.00    +0.025 A 
ATOM     20  C   UNL     1       1.312  -7.431   0.343  0.00  0.00    +0.002 A 
ATOM     21  C   UNL     1      -0.022  -7.077   0.262  0.00  0.00    +0.000 A 
ATOM     22  C   UNL     1      -0.383  -5.746   0.151  0.00  0.00    +0.002 A 
ATOM     23  C   UNL     1       0.589  -4.766   0.125  0.00  0.00    +0.025 A 
ENDBRANCH   3  18
BRANCH   1  24
ATOM     24  C   UNL     1       3.696  -0.685  -0.038  0.00  0.00    +0.209 C 
ATOM     25  O   UNL     1       4.737  -0.063  -0.154  0.00  0.00    -0.285 OA
BRANCH  24  29
ATOM     26  C   UNL     1      -0.013   1.383   0.066  0.00  0.00    +0.000 A 
ATOM     27  C   UNL     1       1.155   2.078  -0.193  0.00  0.00    +0.001 A 
ATOM     28  C   UNL     1       2.363   1.412  -0.229  0.00  0.00    +0.012 A 
ATOM     29  C   UNL     1       2.405   0.035  -0.001  0.00  0.00    +0.024 A 
ATOM     30  C   UNL     1       1.222  -0.659   0.261  0.00  0.00    +0.012 A 
ATOM     31  C   UNL     1       0.021   0.019   0.292  0.00  0.00    +0.001 A 
ENDBRANCH  24  29
ENDBRANCH   1  24
TORSDOF 4
