REMARK  Name = ZINC56892756
REMARK  8 active torsions:
REMARK  status: ('A' for Active; 'I' for Inactive)
REMARK    1  A    between atoms: C_1  and  C_2
REMARK    2  A    between atoms: N_6  and  C_7
REMARK    3  A    between atoms: C_7  and  C_8
REMARK    4  A    between atoms: C_8  and  C_9
REMARK    5  A    between atoms: C_9  and  N_10
REMARK    6  A    between atoms: C_19  and  C_21
REMARK    7  A    between atoms: C_21  and  C_22
REMARK    8  A    between atoms: C_22  and  C_23
REMARK                            x       y       z     vdW  Elec       q    Type
REMARK                         _______ _______ _______ _____ _____    ______ ____
ROOT
ATOM      1  N   UNL     1      -2.773   0.614   4.851  0.00  0.00    -0.299 N 
ATOM      2  C   UNL     1      -3.013   1.028   6.111  0.00  0.00    +0.302 C 
ATOM      3  O   UNL     1      -2.098   1.112   6.908  0.00  0.00    -0.253 OA
ATOM      4  N   UNL     1      -4.267   1.349   6.488  0.00  0.00    -0.283 N 
ATOM      5  C   UNL     1      -5.399   1.139   5.575  0.00  0.00    +0.128 C 
ATOM      6  C   UNL     1      -6.444   0.268   6.283  0.00  0.00    +0.127 C 
ATOM      7  N   UNL     1      -6.703   0.834   7.614  0.00  0.00    -0.298 N 
ATOM      8  C   UNL     1      -5.571   1.045   8.527  0.00  0.00    +0.127 C 
ATOM      9  C   UNL     1      -4.527   1.911   7.821  0.00  0.00    +0.128 C 
ATOM     10  C   UNL     1      -7.957   1.155   7.990  0.00  0.00    +0.216 C 
ATOM     11  O   UNL     1      -8.883   0.977   7.228  0.00  0.00    -0.276 OA
ATOM     12  H   UNL     1      -3.511   0.477   4.237  0.00  0.00    +0.150 HD
ENDROOT
BRANCH   1  13
ATOM     13  C   UNL     1      -1.398   0.370   4.410  0.00  0.00    +0.107 C 
BRANCH  13  14
ATOM     14  C   UNL     1      -1.404  -0.089   2.950  0.00  0.00    +0.040 C 
BRANCH  14  15
ATOM     15  C   UNL     1       0.032  -0.344   2.489  0.00  0.00    +0.124 C 
BRANCH  15  21
ATOM     16  C   UNL     1      -0.012   1.521   0.015  0.00  0.00    +0.084 C 
ATOM     17  C   UNL     1       0.007   0.015   0.001  0.00  0.00    +0.084 A 
ATOM     18  N   UNL     1       0.013  -0.736  -1.066  0.00  0.00    -0.350 N 
ATOM     19  C   UNL     1       0.030  -2.026  -0.699  0.00  0.00    +0.101 A 
ATOM     20  C   UNL     1       0.035  -2.077   0.646  0.00  0.00    +0.104 A 
ATOM     21  N   UNL     1       0.026  -0.782   1.091  0.00  0.00    -0.336 N 
ATOM     22  H   UNL     1       0.006  -0.412  -1.980  0.00  0.00    +0.166 HD
ENDBRANCH  15  21
ENDBRANCH  14  15
ENDBRANCH  13  14
ENDBRANCH   1  13
BRANCH  10  23
ATOM     23  C   UNL     1      -8.207   1.735   9.359  0.00  0.00    +0.096 C 
BRANCH  23  24
ATOM     24  C   UNL     1      -9.703   2.008   9.531  0.00  0.00    +0.013 C 
BRANCH  24  25
ATOM     25  C   UNL     1      -9.957   2.597  10.920  0.00  0.00    -0.011 C 
ATOM     26  C   UNL     1      -9.610   1.556  11.987  0.00  0.00    +0.003 C 
ATOM     27  C   UNL     1      -9.864   2.145  13.376  0.00  0.00    +0.000 C 
ATOM     28  C   UNL     1     -11.339   2.533  13.503  0.00  0.00    +0.000 C 
ATOM     29  C   UNL     1     -11.686   3.574  12.436  0.00  0.00    +0.000 C 
ATOM     30  C   UNL     1     -11.432   2.985  11.047  0.00  0.00    +0.003 C 
ENDBRANCH  24  25
ENDBRANCH  23  24
ENDBRANCH  10  23
TORSDOF 7
