REMARK  Name = ZINC09419715
REMARK  5 active torsions:
REMARK  status: ('A' for Active; 'I' for Inactive)
REMARK    1  A    between atoms: C_3  and  C_6
REMARK    2  A    between atoms: C_9  and  C_12
REMARK    3  A    between atoms: C_15  and  O_18
REMARK    4  A    between atoms: C_19  and  C_21
REMARK    5  A    between atoms: C_21  and  N_47
REMARK                            x       y       z     vdW  Elec       q    Type
REMARK                         _______ _______ _______ _____ _____    ______ ____
ROOT
ATOM      1  C   UNL     1       1.145   0.295   3.966  0.00  0.00    +0.075 C 
ATOM      2  N   UNL     1       0.885   0.465   2.712  0.00  0.00    -0.180 NA
ATOM      3  N   UNL     1      -0.242   1.246   2.466  0.00  0.00    -0.187 N 
ATOM      4  C   UNL     1      -0.830   1.652   3.752  0.00  0.00    +0.137 C 
ATOM      5  C   UNL     1       0.104   1.011   4.797  0.00  0.00    +0.087 C 
ATOM      6  C   UNL     1      -0.718   1.572   1.248  0.00  0.00    +0.219 C 
ATOM      7  O   UNL     1      -1.715   2.256   1.150  0.00  0.00    -0.276 OA
ENDROOT
BRANCH   4   8
ATOM      8  C   UNL     1      -0.826   3.153   3.886  0.00  0.00    -0.024 A 
ATOM      9  C   UNL     1       0.254   3.884   3.428  0.00  0.00    +0.009 A 
ATOM     10  C   UNL     1       0.258   5.261   3.545  0.00  0.00    +0.046 A 
ATOM     11  C   UNL     1      -0.819   5.908   4.133  0.00  0.00    +0.117 A 
ATOM     12  C   UNL     1      -1.899   5.172   4.597  0.00  0.00    +0.046 A 
ATOM     13  C   UNL     1      -1.901   3.796   4.473  0.00  0.00    +0.009 A 
BRANCH  11  14
ATOM     14  O   UNL     1      -0.816   7.262   4.254  0.00  0.00    -0.507 OA
ATOM     15  H   UNL     1      -0.426   7.582   5.079  0.00  0.00    +0.292 HD
ENDBRANCH  11  14
ENDBRANCH   4   8
BRANCH   1  18
ATOM     16  C   UNL     1       4.224  -1.819   4.550  0.00  0.00    +0.008 A 
ATOM     17  C   UNL     1       3.263  -1.160   3.819  0.00  0.00    +0.017 A 
ATOM     18  C   UNL     1       2.270  -0.477   4.501  0.00  0.00    +0.035 A 
ATOM     19  S   UNL     1       2.723  -0.776   6.202  0.00  0.00    -0.095 S 
ATOM     20  C   UNL     1       4.170  -1.780   5.907  0.00  0.00    +0.046 A 
ENDBRANCH   1  18
BRANCH   6  21
ATOM     21  C   UNL     1      -0.013   1.086   0.008  0.00  0.00    +0.021 C 
BRANCH  21  27
ATOM     22  C   UNL     1      -2.057   0.963  -1.285  0.00  0.00    -0.050 C 
ATOM     23  C   UNL     1      -2.784   1.541  -2.502  0.00  0.00    +0.141 C 
ATOM     24  O   UNL     1      -1.994   1.317  -3.674  0.00  0.00    -0.383 OA
ATOM     25  C   UNL     1      -0.689   1.897  -3.608  0.00  0.00    +0.141 C 
ATOM     26  C   UNL     1       0.059   1.323  -2.401  0.00  0.00    -0.050 C 
ATOM     27  N   UNL     1      -0.727   1.599  -1.181  0.00  0.00    +0.388 N 
ATOM     28  H   UNL     1      -0.849   2.614  -1.084  0.00  0.00    -0.081 HD
ENDBRANCH  21  27
ENDBRANCH   6  21
TORSDOF 5
