REMARK  Name = ZINC14187208
REMARK  10 active torsions:
REMARK  status: ('A' for Active; 'I' for Inactive)
REMARK    1  A    between atoms: C_1  and  N_2
REMARK    2  A    between atoms: C_3  and  C_24
REMARK    3  A    between atoms: N_5  and  C_8
REMARK    4  A    between atoms: C_8  and  N_55
REMARK    5  A    between atoms: C_12  and  C_14
REMARK    6  A    between atoms: C_17  and  O_22
REMARK    7  A    between atoms: C_19  and  O_20
REMARK    8  A    between atoms: O_20  and  C_21
REMARK    9  A    between atoms: O_22  and  C_23
REMARK   10  A    between atoms: C_24  and  C_25
REMARK                            x       y       z     vdW  Elec       q    Type
REMARK                         _______ _______ _______ _____ _____    ______ ____
ROOT
ATOM      1  C   UNL     1      -1.967  -5.168   3.261  0.00  0.00    -0.075 C 
ATOM      2  C   UNL     1      -3.296  -5.728   2.719  0.00  0.00    -0.020 C 
ATOM      3  C   UNL     1      -4.391  -5.108   3.615  0.00  0.00    -0.012 C 
ATOM      4  C   UNL     1      -3.695  -3.850   4.194  0.00  0.00    -0.032 C 
ATOM      5  N   UNL     1      -2.321  -4.321   4.405  0.00  0.00    +0.397 N 
ATOM      6  H   UNL     1      -2.272  -4.869   5.272  0.00  0.00    -0.078 HD
ENDROOT
BRANCH   4   7
ATOM      7  C   UNL     1      -4.334  -3.439   5.495  0.00  0.00    -0.019 A 
ATOM      8  C   UNL     1      -3.811  -3.888   6.693  0.00  0.00    +0.009 A 
ATOM      9  C   UNL     1      -4.394  -3.512   7.888  0.00  0.00    +0.046 A 
ATOM     10  C   UNL     1      -5.507  -2.683   7.888  0.00  0.00    +0.124 A 
ATOM     11  C   UNL     1      -6.034  -2.232   6.687  0.00  0.00    +0.091 A 
ATOM     12  C   UNL     1      -5.443  -2.606   5.490  0.00  0.00    +0.125 A 
BRANCH  12  13
ATOM     13  O   UNL     1      -5.953  -2.161   4.312  0.00  0.00    -0.495 OA
ATOM     14  C   UNL     1      -7.097  -1.306   4.381  0.00  0.00    +0.277 C 
ENDBRANCH  12  13
BRANCH  10  15
ATOM     15  O   UNL     1      -6.081  -2.315   9.063  0.00  0.00    -0.495 OA
ATOM     16  C   UNL     1      -5.486  -2.817  10.261  0.00  0.00    +0.277 C 
ENDBRANCH  10  15
ENDBRANCH   4   7
BRANCH   5  17
ATOM     17  C   UNL     1      -1.379  -3.165   4.503  0.00  0.00    +0.072 C 
BRANCH  17  22
ATOM     18  C   UNL     1      -3.214   0.553   1.770  0.00  0.00    +0.152 C 
ATOM     19  N   UNL     1      -2.440  -0.616   2.196  0.00  0.00    -0.310 N 
ATOM     20  C   UNL     1      -1.528  -1.299   1.430  0.00  0.00    +0.137 A 
ATOM     21  N   UNL     1      -1.044  -2.275   2.128  0.00  0.00    -0.157 NA
ATOM     22  N   UNL     1      -1.640  -2.242   3.396  0.00  0.00    -0.257 N 
ATOM     23  C   UNL     1      -2.503  -1.205   3.407  0.00  0.00    +0.176 A 
ATOM     24  S   UNL     1      -3.495  -0.725   4.717  0.00  0.00    -0.011 S 
BRANCH  20  25
ATOM     25  C   UNL     1      -1.155  -0.969   0.007  0.00  0.00    +0.118 C 
BRANCH  25  26
ATOM     26  C   UNL     1       0.002  -0.004   0.002  0.00  0.00    -0.003 A 
ATOM     27  C   UNL     1       1.332  -0.266  -0.012  0.00  0.00    +0.011 A 
ATOM     28  C   UNL     1       2.223   0.790  -0.015  0.00  0.00    +0.008 A 
ATOM     29  C   UNL     1       1.742   2.057  -0.004  0.00  0.00    +0.045 A 
ATOM     30  S   UNL     1      -0.022   1.781   0.012  0.00  0.00    -0.101 S 
ENDBRANCH  25  26
ENDBRANCH  20  25
ENDBRANCH  17  22
ENDBRANCH   5  17
TORSDOF 7
