REMARK  Name = ZINC39425274
REMARK  4 active torsions:
REMARK  status: ('A' for Active; 'I' for Inactive)
REMARK    1  A    between atoms: C_6  and  N_7
REMARK    2  A    between atoms: N_10  and  C_13
REMARK    3  A    between atoms: N_16  and  C_19
REMARK    4  A    between atoms: N_24  and  C_27
REMARK                            x       y       z     vdW  Elec       q    Type
REMARK                         _______ _______ _______ _____ _____    ______ ____
ROOT
ATOM      1  C   UNL     1      -4.254  -2.790   1.970  0.00  0.00    -0.066 C 
ATOM      2  C   UNL     1      -5.645  -2.153   1.908  0.00  0.00    +0.000 C 
ATOM      3  C   UNL     1      -6.561  -2.841   2.922  0.00  0.00    +0.083 C 
ATOM      4  N   UNL     1      -6.646  -4.274   2.614  0.00  0.00    -0.291 NA
ATOM      5  C   UNL     1      -5.330  -4.917   2.713  0.00  0.00    +0.083 C 
ATOM      6  C   UNL     1      -4.376  -4.291   1.693  0.00  0.00    +0.000 C 
ENDROOT
BRANCH   1  10
ATOM      7  N   UNL     1      -1.172  -0.771  -0.014  0.00  0.00    -0.333 N 
ATOM      8  C   UNL     1      -2.460  -0.071   0.108  0.00  0.00    +0.086 C 
ATOM      9  C   UNL     1      -3.270  -0.735   1.226  0.00  0.00    -0.059 C 
ATOM     10  N   UNL     1      -3.386  -2.174   0.958  0.00  0.00    +0.384 N 
ATOM     11  C   UNL     1      -2.058  -2.800   1.007  0.00  0.00    -0.059 C 
ATOM     12  C   UNL     1      -1.188  -2.238  -0.128  0.00  0.00    +0.086 C 
ATOM     13  H   UNL     1      -3.788  -2.313   0.043  0.00  0.00    -0.081 HD
BRANCH   7  19
ATOM     14  C   UNL     1       1.242  -0.747  -0.026  0.00  0.00    +0.026 A 
ATOM     15  C   UNL     1       2.432  -0.045  -0.038  0.00  0.00    +0.040 A 
ATOM     16  C   UNL     1       2.420   1.340  -0.050  0.00  0.00    +0.124 A 
ATOM     17  C   UNL     1       1.216   2.024  -0.050  0.00  0.00    +0.040 A 
ATOM     18  C   UNL     1       0.024   1.326  -0.037  0.00  0.00    +0.026 A 
ATOM     19  C   UNL     1       0.033  -0.063  -0.026  0.00  0.00    +0.030 A 
ATOM     20  F   UNL     1       3.584   2.024  -0.062  0.00  0.00    -0.205 F 
ENDBRANCH   7  19
ENDBRANCH   1  10
BRANCH   4  21
ATOM     21  C   UNL     1      -7.625  -4.942   3.482  0.00  0.00    +0.153 C 
ATOM     22  C   UNL     1      -7.759  -6.431   3.103  0.00  0.00    +0.125 C 
ATOM     23  C   UNL     1      -7.325  -7.156   4.358  0.00  0.00    +0.228 C 
ATOM     24  O   UNL     1      -7.280  -8.360   4.494  0.00  0.00    -0.275 OA
ATOM     25  N   UNL     1      -6.999  -6.258   5.296  0.00  0.00    -0.209 N 
ATOM     26  C   UNL     1      -7.132  -4.979   4.912  0.00  0.00    +0.244 C 
ATOM     27  O   UNL     1      -6.894  -4.008   5.598  0.00  0.00    -0.273 OA
BRANCH  25  28
ATOM     28  C   UNL     1      -6.556  -6.623   6.576  0.00  0.00    +0.044 A 
ATOM     29  C   UNL     1      -7.329  -6.325   7.690  0.00  0.00    +0.027 A 
ATOM     30  C   UNL     1      -6.891  -6.685   8.949  0.00  0.00    +0.040 A 
ATOM     31  C   UNL     1      -5.682  -7.344   9.101  0.00  0.00    +0.124 A 
ATOM     32  C   UNL     1      -4.910  -7.642   7.991  0.00  0.00    +0.040 A 
ATOM     33  C   UNL     1      -5.348  -7.289   6.729  0.00  0.00    +0.027 A 
ATOM     34  F   UNL     1      -5.255  -7.695  10.334  0.00  0.00    -0.205 F 
ENDBRANCH  25  28
ENDBRANCH   4  21
TORSDOF 4
