REMARK  Name = ZINC17245008
REMARK  4 active torsions:
REMARK  status: ('A' for Active; 'I' for Inactive)
REMARK    1  A    between atoms: C_1  and  C_2
REMARK    2  A    between atoms: C_5  and  C_26
REMARK    3  A    between atoms: N_8  and  C_10
REMARK    4  A    between atoms: N_14  and  C_19
REMARK                            x       y       z     vdW  Elec       q    Type
REMARK                         _______ _______ _______ _____ _____    ______ ____
ROOT
ATOM      1  C   UNL     1      -4.780  -0.355   0.051  0.00  0.00    +0.108 A 
ATOM      2  C   UNL     1      -4.647   0.732  -0.767  0.00  0.00    +0.112 A 
ATOM      3  C   UNL     1      -3.431   1.432  -0.778  0.00  0.00    +0.263 A 
ATOM      4  O   UNL     1      -3.291   2.407  -1.496  0.00  0.00    -0.267 OA
ATOM      5  N   UNL     1      -2.417   1.017   0.007  0.00  0.00    -0.228 N 
ATOM      6  C   UNL     1      -2.565  -0.055   0.806  0.00  0.00    +0.335 A 
ATOM      7  O   UNL     1      -1.638  -0.410   1.509  0.00  0.00    -0.246 OA
ATOM      8  N   UNL     1      -3.722  -0.740   0.839  0.00  0.00    -0.295 N 
ATOM      9  H   UNL     1      -3.819  -1.613   1.501  0.00  0.00    +0.172 HD
ENDROOT
BRANCH   1  15
ATOM     10  C   UNL     1      -7.363  -3.669   2.451  0.00  0.00    +0.009 C 
ATOM     11  C   UNL     1      -7.353  -2.663   1.299  0.00  0.00    +0.004 C 
ATOM     12  C   UNL     1      -7.660  -3.387  -0.015  0.00  0.00    +0.009 C 
ATOM     13  C   UNL     1      -7.590  -2.384  -1.169  0.00  0.00    +0.004 C 
ATOM     14  C   UNL     1      -6.204  -1.736  -1.193  0.00  0.00    +0.109 C 
ATOM     15  N   UNL     1      -5.959  -1.056   0.086  0.00  0.00    -0.316 N 
ATOM     16  C   UNL     1      -5.974  -2.006   1.204  0.00  0.00    +0.109 C 
ATOM     17  C   UNL     1      -7.837  -3.111  -2.493  0.00  0.00    +0.009 C 
ENDBRANCH   1  15
BRANCH   5  18
ATOM     18  C   UNL     1      -1.199   1.712  -0.006  0.00  0.00    +0.073 A 
ATOM     19  C   UNL     1      -0.198   1.344  -0.894  0.00  0.00    +0.028 A 
ATOM     20  C   UNL     1       0.999   2.033  -0.908  0.00  0.00    +0.002 A 
ATOM     21  C   UNL     1       1.202   3.087  -0.035  0.00  0.00    +0.002 A 
ATOM     22  C   UNL     1       0.210   3.452   0.855  0.00  0.00    +0.022 A 
ATOM     23  C   UNL     1      -0.990   2.765   0.875  0.00  0.00    +0.065 A 
ATOM     24 CL   UNL     1      -2.236   3.225   1.993  0.00  0.00    -0.081 Cl
ENDBRANCH   5  18
TORSDOF 2
