REMARK  Name = ZINC33127667
REMARK  8 active torsions:
REMARK  status: ('A' for Active; 'I' for Inactive)
REMARK    1  A    between atoms: C_1  and  C_2
REMARK    2  A    between atoms: C_2  and  C_4
REMARK    3  A    between atoms: C_2  and  N_15
REMARK    4  A    between atoms: N_18  and  C_19
REMARK    5  A    between atoms: C_22  and  O_27
REMARK    6  A    between atoms: C_24  and  O_25
REMARK    7  A    between atoms: O_25  and  C_26
REMARK    8  A    between atoms: O_27  and  C_28
REMARK                            x       y       z     vdW  Elec       q    Type
REMARK                         _______ _______ _______ _____ _____    ______ ____
ROOT
ATOM      1  N   UNL     1      -7.891   0.169   3.144  0.00  0.00    -0.288 N 
ATOM      2  C   UNL     1      -6.671   0.726   3.014  0.00  0.00    +0.305 C 
ATOM      3  O   UNL     1      -6.139   1.256   3.971  0.00  0.00    -0.252 OA
ATOM      4  N   UNL     1      -6.040   0.697   1.823  0.00  0.00    -0.266 N 
ATOM      5  H   UNL     1      -8.372  -0.310   2.278  0.00  0.00    +0.151 HD
ATOM      6  H   UNL     1      -6.556   0.300   0.937  0.00  0.00    +0.156 HD
ENDROOT
BRANCH   4   7
ATOM      7  C   UNL     1      -4.724   1.174   1.714  0.00  0.00    +0.078 A 
ATOM      8  C   UNL     1      -4.290   2.207   2.532  0.00  0.00    +0.050 A 
ATOM      9  C   UNL     1      -2.992   2.672   2.429  0.00  0.00    +0.084 A 
ATOM     10  C   UNL     1      -2.125   2.114   1.499  0.00  0.00    +0.142 A 
ATOM     11  C   UNL     1      -2.555   1.081   0.680  0.00  0.00    +0.094 A 
ATOM     12  C   UNL     1      -3.853   0.609   0.786  0.00  0.00    +0.145 A 
ATOM     13 CL   UNL     1      -2.448   3.959   3.458  0.00  0.00    -0.080 Cl
BRANCH  12  14
ATOM     14  O   UNL     1      -4.277  -0.403  -0.017  0.00  0.00    -0.493 OA
ATOM     15  C   UNL     1      -3.330  -0.934  -0.947  0.00  0.00    +0.277 C 
ENDBRANCH  12  14
BRANCH  10  16
ATOM     16  O   UNL     1      -0.850   2.577   1.396  0.00  0.00    -0.494 OA
ATOM     17  C   UNL     1      -0.010   1.953   0.423  0.00  0.00    +0.277 C 
ENDBRANCH  10  16
ENDBRANCH   4   7
BRANCH   1  19
ATOM     18  C   UNL     1      -8.108  -0.979   5.292  0.00  0.00    +0.038 C 
ATOM     19  C   UNL     1      -8.576   0.201   4.438  0.00  0.00    +0.158 C 
BRANCH  19  20
ATOM     20  C   UNL     1     -10.065   0.104   4.221  0.00  0.00    +0.240 C 
ATOM     21  O   UNL     1     -10.501  -0.148   3.118  0.00  0.00    -0.273 OA
ATOM     22  N   UNL     1     -10.910   0.297   5.252  0.00  0.00    -0.269 N 
ATOM     23  C   UNL     1     -10.509   0.692   6.605  0.00  0.00    +0.118 C 
ATOM     24  C   UNL     1     -11.819   0.782   7.404  0.00  0.00    +0.056 C 
ATOM     25  C   UNL     1     -12.898   0.417   6.410  0.00  0.00    -0.024 A 
ATOM     26  C   UNL     1     -12.300   0.155   5.187  0.00  0.00    +0.040 A 
ATOM     27  C   UNL     1     -13.102  -0.211   4.105  0.00  0.00    +0.024 A 
ATOM     28  C   UNL     1     -14.470  -0.298   4.252  0.00  0.00    +0.002 A 
ATOM     29  C   UNL     1     -15.057  -0.030   5.474  0.00  0.00    +0.000 A 
ATOM     30  C   UNL     1     -14.269   0.328   6.552  0.00  0.00    +0.005 A 
ENDBRANCH  19  20
ENDBRANCH   1  19
TORSDOF 5
