REMARK  Name = ZINC08681868
REMARK  9 active torsions:
REMARK  status: ('A' for Active; 'I' for Inactive)
REMARK    1  A    between atoms: C_1  and  C_2
REMARK    2  A    between atoms: C_7  and  C_38
REMARK    3  A    between atoms: C_20  and  C_22
REMARK    4  A    between atoms: C_22  and  N_70
REMARK    5  A    between atoms: C_27  and  O_36
REMARK    6  A    between atoms: C_28  and  O_34
REMARK    7  A    between atoms: C_31  and  C_33
REMARK    8  A    between atoms: O_34  and  C_35
REMARK    9  A    between atoms: O_36  and  C_37
REMARK                            x       y       z     vdW  Elec       q    Type
REMARK                         _______ _______ _______ _____ _____    ______ ____
ROOT
ATOM      1  C   UNL     1       1.975   2.694  -2.172  0.00  0.00    +0.010 C 
ATOM      2  C   UNL     1       2.338   1.891  -0.921  0.00  0.00    +0.021 C 
ATOM      3  C   UNL     1       1.130   1.832   0.021  0.00  0.00    +0.006 C 
ATOM      4  C   UNL     1      -0.016   1.081  -0.657  0.00  0.00    +0.001 C 
ATOM      5  C   UNL     1       0.400  -0.363  -0.947  0.00  0.00    +0.010 C 
ATOM      6  C   UNL     1       1.576  -0.362  -1.925  0.00  0.00    +0.003 C 
ATOM      7  C   UNL     1       2.716   0.464  -1.318  0.00  0.00    +0.104 C 
ATOM      8  C   UNL     1       4.132   0.153  -1.759  0.00  0.00    +0.159 C 
ATOM      9  O   UNL     1       3.640  -0.227  -0.472  0.00  0.00    -0.363 OA
ATOM     10  C   UNL     1       4.425  -0.945  -2.765  0.00  0.00    +0.073 C 
ATOM     11  C   UNL     1       3.219  -1.800  -3.135  0.00  0.00    +0.183 C 
ATOM     12  C   UNL     1       2.100  -1.785  -2.125  0.00  0.00    +0.054 C 
ATOM     13  O   UNL     1       2.747  -1.359  -4.432  0.00  0.00    -0.461 OA
ATOM     14  C   UNL     1       3.464  -0.313  -4.874  0.00  0.00    +0.309 C 
ATOM     15  O   UNL     1       3.118   0.470  -5.726  0.00  0.00    -0.251 OA
ATOM     16  C   UNL     1       4.801  -0.279  -4.116  0.00  0.00    +0.090 C 
ATOM     17  C   UNL     1       1.144   0.244  -3.262  0.00  0.00    +0.014 C 
ENDROOT
BRANCH  16  18
ATOM     18  C   UNL     1       5.867  -1.099  -4.846  0.00  0.00    -0.063 C 
BRANCH  18  29
ATOM     19  C   UNL     1       6.439   0.982  -5.947  0.00  0.00    -0.073 C 
ATOM     20  C   UNL     1       6.401   1.657  -7.319  0.00  0.00    +0.017 C 
ATOM     21  C   UNL     1       7.290   0.913  -8.283  0.00  0.00    -0.044 A 
ATOM     22  C   UNL     1       7.668   1.549  -9.456  0.00  0.00    +0.053 A 
ATOM     23  C   UNL     1       8.475   0.902 -10.374  0.00  0.00    +0.162 A 
ATOM     24  C   UNL     1       8.910  -0.395 -10.116  0.00  0.00    +0.162 A 
ATOM     25  C   UNL     1       8.532  -1.024  -8.944  0.00  0.00    +0.051 A 
ATOM     26  C   UNL     1       7.723  -0.370  -8.025  0.00  0.00    -0.054 A 
ATOM     27  C   UNL     1       7.343  -1.099  -6.762  0.00  0.00    -0.040 C 
ATOM     28  C   UNL     1       6.991  -2.549  -7.102  0.00  0.00    -0.008 C 
ATOM     29  N   UNL     1       6.170  -0.458  -6.144  0.00  0.00    +0.385 N 
ATOM     30  H   UNL     1       5.361  -0.566  -6.767  0.00  0.00    -0.081 HD
BRANCH  24  31
ATOM     31  O   UNL     1       9.703  -1.040 -11.013  0.00  0.00    -0.491 OA
ATOM     32  C   UNL     1      10.110  -2.369 -10.680  0.00  0.00    +0.277 C 
ENDBRANCH  24  31
BRANCH  23  33
ATOM     33  O   UNL     1       8.843   1.530 -11.523  0.00  0.00    -0.491 OA
ATOM     34  C   UNL     1       8.359   2.860 -11.719  0.00  0.00    +0.277 C 
ENDBRANCH  23  33
ENDBRANCH  18  29
ENDBRANCH  16  18
TORSDOF 4
