REMARK  Name = ZINC13655184
REMARK  9 active torsions:
REMARK  status: ('A' for Active; 'I' for Inactive)
REMARK    1  A    between atoms: C_1  and  C_2
REMARK    2  A    between atoms: N_11  and  C_12
REMARK    3  A    between atoms: C_12  and  C_13
REMARK    4  A    between atoms: C_13  and  C_14
REMARK    5  A    between atoms: C_14  and  N_48
REMARK    6  A    between atoms: C_15  and  N_48
REMARK    7  A    between atoms: C_16  and  N_48
REMARK    8  A    between atoms: C_17  and  C_19
REMARK    9  A    between atoms: N_23  and  C_24
REMARK                            x       y       z     vdW  Elec       q    Type
REMARK                         _______ _______ _______ _____ _____    ______ ____
ROOT
ATOM      1  C   UNL     1      -4.737   2.054   4.646  0.00  0.00    +0.047 C 
ATOM      2  C   UNL     1      -4.681   0.703   3.981  0.00  0.00    -0.006 A 
ATOM      3  C   UNL     1      -5.617  -0.248   4.298  0.00  0.00    +0.046 A 
ATOM      4  C   UNL     1      -5.601  -1.505   3.709  0.00  0.00    +0.021 A 
ATOM      5  C   UNL     1      -4.621  -1.806   2.781  0.00  0.00    +0.019 A 
ATOM      6  C   UNL     1      -3.680  -0.860   2.459  0.00  0.00    +0.041 A 
ATOM      7  C   UNL     1      -3.664   0.429   3.038  0.00  0.00    +0.085 A 
ATOM      8  N   UNL     1      -2.672   1.245   2.622  0.00  0.00    -0.224 NA
ATOM      9  C   UNL     1      -1.782   0.876   1.730  0.00  0.00    +0.168 A 
ATOM     10  S   UNL     1      -2.283  -0.800   1.363  0.00  0.00    -0.052 S 
ATOM     11  N   UNL     1      -0.723   1.599   1.210  0.00  0.00    -0.245 N 
ATOM     12  C   UNL     1      -0.506   2.865   1.617  0.00  0.00    +0.270 C 
ATOM     13  O   UNL     1      -1.252   3.378   2.429  0.00  0.00    -0.268 OA
ATOM     14 CL   UNL     1      -6.849   0.128   5.462  0.00  0.00    -0.083 Cl
ENDROOT
BRANCH  12  15
ATOM     15  C   UNL     1       0.632   3.626   1.080  0.00  0.00    +0.124 A 
ATOM     16  C   UNL     1       1.457   3.258   0.030  0.00  0.00    +0.054 A 
ATOM     17  C   UNL     1       2.376   4.302  -0.101  0.00  0.00    +0.135 A 
ATOM     18  N   UNL     1       2.101   5.196   0.814  0.00  0.00    -0.179 NA
ATOM     19  N   UNL     1       1.091   4.836   1.520  0.00  0.00    -0.262 N 
ATOM     20  C   UNL     1       0.518   5.604   2.628  0.00  0.00    +0.173 C 
ENDBRANCH  12  15
BRANCH  11  21
ATOM     21  C   UNL     1       0.164   0.988   0.216  0.00  0.00    +0.114 C 
BRANCH  21  22
ATOM     22  C   UNL     1      -0.278   1.407  -1.188  0.00  0.00    +0.001 C 
BRANCH  22  23
ATOM     23  C   UNL     1       0.715   0.865  -2.218  0.00  0.00    -0.078 C 
BRANCH  23  26
ATOM     24  C   UNL     1       0.530   2.821  -3.633  0.00  0.00    -0.097 C 
ATOM     25  C   UNL     1       1.137   0.684  -4.595  0.00  0.00    -0.097 C 
ATOM     26  N   UNL     1       0.330   1.359  -3.557  0.00  0.00    +0.376 N 
ATOM     27  H   UNL     1      -0.662   1.149  -3.717  0.00  0.00    -0.083 HD
ENDBRANCH  23  26
ENDBRANCH  22  23
ENDBRANCH  21  22
ENDBRANCH  11  21
TORSDOF 5
