REMARK  Name = ZINC00315155
REMARK  4 active torsions:
REMARK  status: ('A' for Active; 'I' for Inactive)
REMARK    1  A    between atoms: C_1  and  C_2
REMARK    2  A    between atoms: C_5  and  C_8
REMARK    3  A    between atoms: N_19  and  C_20
REMARK    4  A    between atoms: C_23  and  C_26
REMARK                            x       y       z     vdW  Elec       q    Type
REMARK                         _______ _______ _______ _____ _____    ______ ____
ROOT
ATOM      1  C   UNL     1       2.599   0.937  -0.030  0.00  0.00    +0.198 C 
ATOM      2  N   UNL     1       2.468  -0.319   0.718  0.00  0.00    -0.321 N 
ATOM      3  C   UNL     1       2.311  -0.262   2.099  0.00  0.00    +0.041 A 
ATOM      4  C   UNL     1       1.633  -1.247   2.797  0.00  0.00    +0.024 A 
ATOM      5  C   UNL     1       1.527  -1.161   4.172  0.00  0.00    +0.002 A 
ATOM      6  C   UNL     1       2.096  -0.099   4.857  0.00  0.00    +0.001 A 
ATOM      7  C   UNL     1       2.771   0.893   4.176  0.00  0.00    +0.015 A 
ATOM      8  C   UNL     1       2.875   0.826   2.789  0.00  0.00    +0.058 A 
ATOM      9  C   UNL     1       3.581   1.861   2.015  0.00  0.00    +0.254 C 
ATOM     10  O   UNL     1       4.228   2.719   2.585  0.00  0.00    -0.270 OA
ATOM     11  N   UNL     1       3.503   1.851   0.669  0.00  0.00    -0.244 N 
ATOM     12  H   UNL     1       2.490  -1.173   0.258  0.00  0.00    +0.148 HD
ENDROOT
BRANCH   1  17
ATOM     13  C   UNL     1      -2.598   3.408  -0.548  0.00  0.00    +0.044 C 
ATOM     14  C   UNL     1      -1.243   2.763  -0.413  0.00  0.00    -0.050 A 
ATOM     15  C   UNL     1      -1.137   1.388  -0.324  0.00  0.00    +0.004 A 
ATOM     16  C   UNL     1       0.106   0.797  -0.195  0.00  0.00    +0.007 A 
ATOM     17  C   UNL     1       1.244   1.581  -0.165  0.00  0.00    -0.009 A 
ATOM     18  C   UNL     1       1.139   2.956  -0.259  0.00  0.00    +0.007 A 
ATOM     19  C   UNL     1      -0.105   3.547  -0.383  0.00  0.00    +0.004 A 
ENDBRANCH   1  17
BRANCH  11  20
ATOM     20  C   UNL     1       4.301   2.729  -0.072  0.00  0.00    +0.039 A 
ATOM     21  C   UNL     1       5.192   2.232  -1.014  0.00  0.00    +0.024 A 
ATOM     22  C   UNL     1       5.975   3.102  -1.748  0.00  0.00    +0.005 A 
ATOM     23  C   UNL     1       5.878   4.466  -1.538  0.00  0.00    -0.050 A 
ATOM     24  C   UNL     1       4.995   4.963  -0.597  0.00  0.00    +0.005 A 
ATOM     25  C   UNL     1       4.206   4.099   0.136  0.00  0.00    +0.024 A 
ATOM     26  C   UNL     1       6.738   5.412  -2.337  0.00  0.00    +0.044 C 
ENDBRANCH  11  20
TORSDOF 2
