REMARK  Name = ZINC21672157
REMARK  10 active torsions:
REMARK  status: ('A' for Active; 'I' for Inactive)
REMARK    1  A    between atoms: C_1  and  C_2
REMARK    2  A    between atoms: C_3  and  C_28
REMARK    3  A    between atoms: N_4  and  C_21
REMARK    4  A    between atoms: C_5  and  N_9
REMARK    5  A    between atoms: C_6  and  C_7
REMARK    6  A    between atoms: C_10  and  C_12
REMARK    7  A    between atoms: C_12  and  N_13
REMARK    8  A    between atoms: N_13  and  C_14
REMARK    9  A    between atoms: N_13  and  C_15
REMARK   10  A    between atoms: C_15  and  C_16
REMARK                            x       y       z     vdW  Elec       q    Type
REMARK                         _______ _______ _______ _____ _____    ______ ____
ROOT
ATOM      1  C   UNL     1      -2.978   0.598  -9.363  0.00  0.00    +0.047 C 
ATOM      2  C   UNL     1      -2.678   0.920  -7.922  0.00  0.00    -0.010 A 
ATOM      3  C   UNL     1      -3.418   1.682  -7.100  0.00  0.00    +0.027 A 
ATOM      4  N   UNL     1      -2.815   1.738  -5.869  0.00  0.00    -0.300 N 
ATOM      5  C   UNL     1      -1.668   1.007  -5.877  0.00  0.00    +0.128 A 
ATOM      6  C   UNL     1      -1.516   0.466  -7.146  0.00  0.00    +0.095 A 
ATOM      7  C   UNL     1      -4.707   2.368  -7.472  0.00  0.00    +0.064 C 
ENDROOT
BRANCH   4   8
ATOM      8  C   UNL     1      -3.310   2.445  -4.765  0.00  0.00    +0.051 A 
ATOM      9  C   UNL     1      -2.633   3.563  -4.295  0.00  0.00    +0.026 A 
ATOM     10  C   UNL     1      -3.121   4.259  -3.206  0.00  0.00    +0.005 A 
ATOM     11  C   UNL     1      -4.283   3.843  -2.583  0.00  0.00    +0.038 A 
ATOM     12  C   UNL     1      -4.961   2.729  -3.048  0.00  0.00    +0.125 A 
ATOM     13  C   UNL     1      -4.479   2.032  -4.142  0.00  0.00    +0.064 A 
ATOM     14  F   UNL     1      -6.097   2.325  -2.437  0.00  0.00    -0.205 F 
ENDBRANCH   4   8
BRANCH   5  15
ATOM     15  N   UNL     1      -0.800   0.838  -4.809  0.00  0.00    -0.272 N 
ATOM     16  C   UNL     1      -1.239   0.274  -3.667  0.00  0.00    +0.202 C 
ATOM     17  O   UNL     1      -2.414   0.004  -3.537  0.00  0.00    -0.278 OA
ATOM     18  H   UNL     1       0.247   1.165  -4.894  0.00  0.00    +0.156 HD
BRANCH  16  19
ATOM     19  C   UNL     1      -0.270  -0.021  -2.551  0.00  0.00    +0.019 C 
BRANCH  19  20
ATOM     20  N   UNL     1      -0.991  -0.631  -1.425  0.00  0.00    +0.386 N 
ATOM     21  C   UNL     1      -1.934   0.323  -0.826  0.00  0.00    -0.095 C 
ATOM     22  H   UNL     1      -1.571  -1.480  -1.815  0.00  0.00    -0.081 HD
BRANCH  20  23
ATOM     23  C   UNL     1      -0.054  -1.148  -0.418  0.00  0.00    -0.042 C 
BRANCH  23  24
ATOM     24  C   UNL     1      -0.808  -1.975   0.591  0.00  0.00    -0.057 A 
ATOM     25  C   UNL     1      -1.332  -1.389   1.728  0.00  0.00    +0.009 A 
ATOM     26  C   UNL     1      -2.009  -2.160   2.613  0.00  0.00    +0.045 A 
ATOM     27  S   UNL     1      -1.909  -3.771   1.851  0.00  0.00    -0.105 S 
ATOM     28  C   UNL     1      -0.978  -3.306   0.400  0.00  0.00    +0.047 A 
ENDBRANCH  23  24
ENDBRANCH  20  23
ENDBRANCH  19  20
ENDBRANCH  16  19
ENDBRANCH   5  15
BRANCH   6  29
ATOM     29  C   UNL     1      -0.447  -0.368  -7.605  0.00  0.00    +0.103 C 
ATOM     30  N   UNL     1       0.402  -1.030  -7.969  0.00  0.00    -0.191 NA
ENDBRANCH   6  29
TORSDOF 7
