REMARK  Name = ZINC08755512
REMARK  6 active torsions:
REMARK  status: ('A' for Active; 'I' for Inactive)
REMARK    1  A    between atoms: C_1  and  C_2
REMARK    2  A    between atoms: C_2  and  N_3
REMARK    3  A    between atoms: N_3  and  C_4
REMARK    4  A    between atoms: N_12  and  C_13
REMARK    5  A    between atoms: N_18  and  S_19
REMARK    6  A    between atoms: S_19  and  C_22
REMARK                            x       y       z     vdW  Elec       q    Type
REMARK                         _______ _______ _______ _____ _____    ______ ____
ROOT
ATOM      1  C   UNL     1      -4.031   3.325  -2.342  0.00  0.00    +0.166 C 
ATOM      2  C   UNL     1      -4.163   3.956  -3.744  0.00  0.00    +0.041 C 
ATOM      3  C   UNL     1      -2.947   4.917  -3.809  0.00  0.00    +0.020 C 
ATOM      4  C   UNL     1      -2.869   5.417  -2.342  0.00  0.00    +0.112 C 
ATOM      5  N   UNL     1      -3.219   4.240  -1.526  0.00  0.00    -0.156 NA
ENDROOT
BRANCH   1   9
ATOM      6  N   UNL     1      -6.881   1.875  -0.527  0.00  0.00    -0.283 N 
ATOM      7  C   UNL     1      -5.662   2.025  -1.082  0.00  0.00    +0.304 C 
ATOM      8  O   UNL     1      -4.839   1.135  -0.992  0.00  0.00    -0.253 OA
ATOM      9  N   UNL     1      -5.356   3.162  -1.738  0.00  0.00    -0.282 N 
ATOM     10  H   UNL     1      -6.012   3.873  -1.810  0.00  0.00    +0.152 HD
BRANCH   6  11
ATOM     11  C   UNL     1      -7.214   0.639   0.186  0.00  0.00    +0.078 C 
ATOM     12  C   UNL     1      -6.248   0.450   1.357  0.00  0.00    +0.022 C 
ATOM     13  C   UNL     1      -6.596  -0.841   2.101  0.00  0.00    +0.002 C 
ATOM     14  C   UNL     1      -6.478  -2.029   1.145  0.00  0.00    +0.000 C 
ATOM     15  C   UNL     1      -7.444  -1.839  -0.026  0.00  0.00    +0.002 C 
ATOM     16  C   UNL     1      -7.096  -0.549  -0.771  0.00  0.00    +0.022 C 
ENDBRANCH   6  11
BRANCH   6  18
ATOM     17  C   UNL     1      -8.707   2.745  -1.902  0.00  0.00    +0.024 C 
ATOM     18  C   UNL     1      -7.872   2.948  -0.636  0.00  0.00    +0.106 C 
ENDBRANCH   6  18
ENDBRANCH   1   9
BRANCH   5  19
ATOM     19  S   UNL     1      -2.776   3.993   0.050  0.00  0.00    +0.062 S 
ATOM     20  O   UNL     1      -3.732   3.101   0.606  0.00  0.00    -0.153 OA
ATOM     21  O   UNL     1      -2.517   5.275   0.605  0.00  0.00    -0.153 OA
BRANCH  19  22
ATOM     22  C   UNL     1      -1.238   3.133   0.030  0.00  0.00    +0.106 A 
ATOM     23  C   UNL     1      -1.219   1.751   0.017  0.00  0.00    +0.030 A 
ATOM     24  C   UNL     1      -0.013   1.076   0.008  0.00  0.00    +0.022 A 
ATOM     25  C   UNL     1       1.176   1.784   0.000  0.00  0.00    +0.041 A 
ATOM     26  C   UNL     1       1.156   3.167   0.007  0.00  0.00    +0.022 A 
ATOM     27  C   UNL     1      -0.050   3.841   0.022  0.00  0.00    +0.030 A 
ATOM     28 CL   UNL     1       2.691   0.937  -0.019  0.00  0.00    -0.084 Cl
ENDBRANCH  19  22
ENDBRANCH   5  19
TORSDOF 5
