REMARK  Name = ZINC54995474
REMARK  9 active torsions:
REMARK  status: ('A' for Active; 'I' for Inactive)
REMARK    1  A    between atoms: C_1  and  C_2
REMARK    2  A    between atoms: C_7  and  C_10
REMARK    3  A    between atoms: C_13  and  C_19
REMARK    4  A    between atoms: C_14  and  C_16
REMARK    5  A    between atoms: C_16  and  N_17
REMARK    6  A    between atoms: N_17  and  C_18
REMARK    7  A    between atoms: C_19  and  C_20
REMARK    8  A    between atoms: C_19  and  C_21
REMARK    9  A    between atoms: C_19  and  C_22
REMARK                            x       y       z     vdW  Elec       q    Type
REMARK                         _______ _______ _______ _____ _____    ______ ____
ROOT
ATOM      1  C   UNL     1       0.229   1.019   0.363  0.00  0.00    +0.039 C 
ATOM      2  C   UNL     1       0.627  -0.417   0.708  0.00  0.00    +0.133 C 
ATOM      3  C   UNL     1       1.446  -1.012  -0.444  0.00  0.00    +0.138 C 
ATOM      4  N   UNL     1       2.733  -0.302  -0.513  0.00  0.00    -0.305 N 
ATOM      5  C   UNL     1       3.516  -0.167   0.725  0.00  0.00    +0.138 C 
ATOM      6  C   UNL     1       2.597   0.386   1.820  0.00  0.00    +0.133 C 
ATOM      7  O   UNL     1       1.418  -0.420   1.899  0.00  0.00    -0.371 OA
ATOM      8  C   UNL     1       3.327   0.357   3.164  0.00  0.00    +0.039 C 
ATOM      9  C   UNL     1       3.195   0.223  -1.710  0.00  0.00    +0.161 A 
ATOM     10  N   UNL     1       4.316   0.873  -1.940  0.00  0.00    -0.229 NA
ATOM     11  C   UNL     1       4.614   1.313  -3.150  0.00  0.00    +0.057 A 
ATOM     12  C   UNL     1       3.716   1.064  -4.133  0.00  0.00    -0.002 A 
ATOM     13  S   UNL     1       2.462   0.177  -3.225  0.00  0.00    -0.059 S 
ENDROOT
BRANCH  11  14
ATOM     14  C   UNL     1       5.894   2.060  -3.422  0.00  0.00    +0.005 C 
ATOM     15  C   UNL     1       6.765   2.055  -2.165  0.00  0.00    +0.017 C 
ATOM     16  C   UNL     1       6.647   1.379  -4.567  0.00  0.00    +0.017 C 
ATOM     17  C   UNL     1       5.570   3.503  -3.813  0.00  0.00    +0.017 C 
ENDBRANCH  11  14
BRANCH  12  18
ATOM     18  C   UNL     1       3.766   1.431  -5.594  0.00  0.00    -0.038 C 
BRANCH  18  19
ATOM     19  N   UNL     1       4.258   0.285  -6.371  0.00  0.00    +0.380 N 
ATOM     20  C   UNL     1       4.443   0.686  -7.772  0.00  0.00    -0.100 C 
ATOM     21  H   UNL     1       5.140  -0.025  -5.990  0.00  0.00    -0.086 HD
ATOM     22  H   UNL     1       3.587  -0.467  -6.321  0.00  0.00    -0.086 HD
ENDBRANCH  18  19
ENDBRANCH  12  18
TORSDOF 3
