REMARK  Name = ZINC09816571
REMARK  7 active torsions:
REMARK  status: ('A' for Active; 'I' for Inactive)
REMARK    1  A    between atoms: C_1  and  C_2
REMARK    2  A    between atoms: C_2  and  N_3
REMARK    3  A    between atoms: N_3  and  C_4
REMARK    4  A    between atoms: C_12  and  C_14
REMARK    5  A    between atoms: C_14  and  O_15
REMARK    6  A    between atoms: O_15  and  C_16
REMARK    7  A    between atoms: C_16  and  C_18
REMARK                            x       y       z     vdW  Elec       q    Type
REMARK                         _______ _______ _______ _____ _____    ______ ____
ROOT
ATOM      1  C   UNL     1       3.619   1.599  -0.024  0.00  0.00    +0.346 C 
ATOM      2  O   UNL     1       3.762   2.807  -0.019  0.00  0.00    -0.244 OA
ENDROOT
BRANCH   1   3
ATOM      3  C   UNL     1       4.790   0.724  -0.040  0.00  0.00    +0.097 A 
ATOM      4  C   UNL     1       6.136   1.068  -0.057  0.00  0.00    +0.030 A 
ATOM      5  C   UNL     1       7.086   0.082  -0.066  0.00  0.00    +0.005 A 
ATOM      6  C   UNL     1       6.609  -1.238  -0.068  0.00  0.00    +0.030 A 
ATOM      7  S   UNL     1       4.857  -1.064  -0.051  0.00  0.00    -0.081 S 
ATOM      8  C   UNL     1       7.502  -2.390  -0.077  0.00  0.00    +0.031 A 
ATOM      9  C   UNL     1       7.095  -3.687  -0.345  0.00  0.00    +0.012 A 
ATOM     10  C   UNL     1       8.026  -4.709  -0.346  0.00  0.00    +0.001 A 
ATOM     11  C   UNL     1       9.357  -4.437  -0.082  0.00  0.00    +0.004 A 
ATOM     12  C   UNL     1       9.773  -3.147   0.194  0.00  0.00    +0.046 A 
ATOM     13  C   UNL     1       8.858  -2.111   0.208  0.00  0.00    +0.129 A 
ATOM     14  O   UNL     1       9.229  -0.847   0.517  0.00  0.00    -0.487 OA
ATOM     15  C   UNL     1       8.598   0.282  -0.085  0.00  0.00    +0.265 C 
ENDBRANCH   1   3
BRANCH   1  16
ATOM     16  O   UNL     1       2.379   1.066  -0.015  0.00  0.00    -0.451 OA
BRANCH  16  17
ATOM     17  C   UNL     1       1.280   1.980   0.001  0.00  0.00    +0.328 C 
BRANCH  17  19
ATOM     18  N   UNL     1      -1.191   1.867   0.018  0.00  0.00    -0.294 N 
ATOM     19  C   UNL     1      -0.014   1.209   0.009  0.00  0.00    +0.254 C 
ATOM     20  O   UNL     1       0.002  -0.004   0.002  0.00  0.00    -0.272 OA
BRANCH  18  21
ATOM     21  C   UNL     1      -2.449   1.117   0.020  0.00  0.00    +0.099 C 
ATOM     22  C   UNL     1      -2.505   0.198   1.252  0.00  0.00    +0.046 C 
ATOM     23  C   UNL     1      -3.661  -0.819   1.100  0.00  0.00    +0.168 C 
ATOM     24  S   UNL     1      -3.805  -0.998  -0.725  0.00  0.00    -0.029 S 
ATOM     25  O   UNL     1      -5.085  -0.538  -1.135  0.00  0.00    -0.174 OA
ATOM     26  O   UNL     1      -3.376  -2.300  -1.098  0.00  0.00    -0.174 OA
ATOM     27  C   UNL     1      -2.532   0.226  -1.253  0.00  0.00    +0.188 C 
ENDBRANCH  18  21
BRANCH  18  29
ATOM     28  C   UNL     1      -1.224   3.849  -1.414  0.00  0.00    +0.024 C 
ATOM     29  C   UNL     1      -1.210   3.331   0.026  0.00  0.00    +0.105 C 
ENDBRANCH  18  29
ENDBRANCH  17  19
ENDBRANCH  16  17
ENDBRANCH   1  16
TORSDOF 6
