REMARK  Name = ZINC05374513
REMARK  4 active torsions:
REMARK  status: ('A' for Active; 'I' for Inactive)
REMARK    1  A    between atoms: C_1  and  N_2
REMARK    2  A    between atoms: N_2  and  C_3
REMARK    3  A    between atoms: C_8  and  C_9
REMARK    4  A    between atoms: C_16  and  C_17
REMARK                            x       y       z     vdW  Elec       q    Type
REMARK                         _______ _______ _______ _____ _____    ______ ____
ROOT
ATOM      1  C   UNL     1       4.721   0.613  -0.040  0.00  0.00    +0.137 C 
ATOM      2  N   UNL     1       3.604  -0.336  -0.034  0.00  0.00    -0.284 N 
ATOM      3  C   UNL     1       2.311   0.126  -0.019  0.00  0.00    +0.158 C 
ATOM      4  N   UNL     1       1.188  -0.574  -0.012  0.00  0.00    -0.154 NA
ATOM      5  C   UNL     1       0.002  -0.004   0.002  0.00  0.00    +0.276 C 
ATOM      6  O   UNL     1      -1.028  -0.662   0.008  0.00  0.00    -0.267 OA
ATOM      7  C   UNL     1      -0.018   1.473   0.010  0.00  0.00    +0.079 C 
ATOM      8  C   UNL     1      -1.076   2.331   0.020  0.00  0.00    +0.030 C 
ATOM      9  S   UNL     1       1.737   1.818  -0.005  0.00  0.00    -0.051 S 
ENDROOT
BRANCH   8  10
ATOM     10  C   UNL     1      -0.846   3.774   0.027  0.00  0.00    +0.001 A 
ATOM     11  C   UNL     1       0.365   4.411   0.030  0.00  0.00    +0.091 A 
ATOM     12  N   UNL     1       0.175   5.754   0.032  0.00  0.00    -0.360 N 
ATOM     13  H   UNL     1       0.886   6.414   0.033  0.00  0.00    +0.165 HD
ATOM     14  C   UNL     1      -1.173   6.050   0.041  0.00  0.00    +0.047 A 
ATOM     15  C   UNL     1      -1.873   4.833   0.038  0.00  0.00    +0.007 A 
ATOM     16  C   UNL     1      -3.265   4.828   0.045  0.00  0.00    +0.010 A 
ATOM     17  C   UNL     1      -3.952   6.023   0.055  0.00  0.00    +0.001 A 
ATOM     18  C   UNL     1      -3.262   7.226   0.058  0.00  0.00    +0.002 A 
ATOM     19  C   UNL     1      -1.884   7.245   0.051  0.00  0.00    +0.026 A 
ENDBRANCH   8  10
BRANCH   2  20
ATOM     20  C   UNL     1       3.853  -1.704  -0.043  0.00  0.00    +0.049 A 
ATOM     21  C   UNL     1       3.962  -2.386  -1.248  0.00  0.00    +0.024 A 
ATOM     22  C   UNL     1       4.214  -3.743  -1.254  0.00  0.00    +0.002 A 
ATOM     23  C   UNL     1       4.351  -4.437  -0.062  0.00  0.00    +0.001 A 
ATOM     24  C   UNL     1       4.242  -3.779   1.143  0.00  0.00    +0.017 A 
ATOM     25  C   UNL     1       3.991  -2.404   1.167  0.00  0.00    +0.084 A 
BRANCH  25  26
ATOM     26  C   UNL     1       3.873  -1.693   2.452  0.00  0.00    +0.388 C 
ATOM     27  O   UNL     1       3.655  -0.498   2.468  0.00  0.00    -0.241 OA
ATOM     28  O   UNL     1       4.006  -2.369   3.610  0.00  0.00    -0.241 OA
ENDBRANCH  25  26
ENDBRANCH   2  20
TORSDOF 3
