REMARK  Name = ZINC08771595
REMARK  3 active torsions:
REMARK  status: ('A' for Active; 'I' for Inactive)
REMARK    1  A    between atoms: C_10  and  N_12
REMARK    2  A    between atoms: C_13  and  C_15
REMARK    3  A    between atoms: C_15  and  N_16
REMARK                            x       y       z     vdW  Elec       q    Type
REMARK                         _______ _______ _______ _____ _____    ______ ____
ROOT
ATOM      1  N   UNL     1       6.877   2.953  -0.778  0.00  0.00    -0.290 N 
ATOM      2  C   UNL     1       7.737   3.754  -1.438  0.00  0.00    +0.307 C 
ATOM      3  O   UNL     1       8.061   3.489  -2.579  0.00  0.00    -0.252 OA
ATOM      4  N   UNL     1       8.237   4.849  -0.832  0.00  0.00    -0.245 N 
ATOM      5  C   UNL     1       7.944   5.136   0.580  0.00  0.00    +0.211 C 
ATOM      6  C   UNL     1       7.662   6.609   0.733  0.00  0.00    +0.235 C 
ATOM      7  O   UNL     1       6.918   6.988   1.613  0.00  0.00    -0.274 OA
ATOM      8  N   UNL     1       8.226   7.509  -0.094  0.00  0.00    -0.283 N 
ATOM      9  C   UNL     1       9.047   7.096  -1.149  0.00  0.00    +0.055 A 
ATOM     10  C   UNL     1       9.060   5.749  -1.528  0.00  0.00    +0.059 A 
ATOM     11  C   UNL     1       9.865   5.324  -2.568  0.00  0.00    +0.025 A 
ATOM     12  C   UNL     1      10.668   6.234  -3.232  0.00  0.00    +0.002 A 
ATOM     13  C   UNL     1      10.667   7.565  -2.857  0.00  0.00    +0.002 A 
ATOM     14  C   UNL     1       9.851   8.003  -1.819  0.00  0.00    +0.025 A 
ATOM     15  H   UNL     1       6.675   3.122   0.156  0.00  0.00    +0.151 HD
ATOM     16  H   UNL     1       8.060   8.455   0.042  0.00  0.00    +0.155 HD
ENDROOT
BRANCH   1  17
ATOM     17  C   UNL     1       6.246   1.826  -1.471  0.00  0.00    +0.201 C 
BRANCH  17  19
ATOM     18  N   UNL     1       4.646   0.017  -0.938  0.00  0.00    -0.307 N 
ATOM     19  C   UNL     1       5.336   1.096  -0.517  0.00  0.00    +0.231 C 
ATOM     20  O   UNL     1       5.225   1.478   0.628  0.00  0.00    -0.274 OA
ATOM     21  H   UNL     1       4.735  -0.289  -1.854  0.00  0.00    +0.149 HD
BRANCH  18  31
ATOM     22  C   UNL     1       0.002   1.346   0.061  0.00  0.00    +0.000 A 
ATOM     23  C   UNL     1       1.191   2.052   0.047  0.00  0.00    +0.000 A 
ATOM     24  C   UNL     1       2.391   1.373   0.023  0.00  0.00    +0.006 A 
ATOM     25  C   UNL     1       2.416  -0.016   0.009  0.00  0.00    -0.024 A 
ATOM     26  C   UNL     1       1.233  -0.719   0.018  0.00  0.00    -0.042 A 
ATOM     27  C   UNL     1       0.025  -0.034   0.048  0.00  0.00    +0.004 A 
ATOM     28  C   UNL     1       1.184  -2.225  -0.011  0.00  0.00    +0.035 C 
ATOM     29  C   UNL     1       2.535  -2.814   0.389  0.00  0.00    +0.007 C 
ATOM     30  C   UNL     1       3.624  -2.147  -0.459  0.00  0.00    +0.027 C 
ATOM     31  C   UNL     1       3.761  -0.693  -0.011  0.00  0.00    +0.103 C 
ENDBRANCH  18  31
ENDBRANCH  17  19
ENDBRANCH   1  17
TORSDOF 3
