REMARK  Name = ZINC15959174
REMARK  8 active torsions:
REMARK  status: ('A' for Active; 'I' for Inactive)
REMARK    1  A    between atoms: C_1  and  C_2
REMARK    2  A    between atoms: C_2  and  C_3
REMARK    3  A    between atoms: C_14  and  C_17
REMARK    4  A    between atoms: C_17  and  C_19
REMARK    5  A    between atoms: C_17  and  O_20
REMARK    6  A    between atoms: N_23  and  C_26
REMARK    7  A    between atoms: C_26  and  C_27
REMARK    8  A    between atoms: C_27  and  C_28
REMARK                            x       y       z     vdW  Elec       q    Type
REMARK                         _______ _______ _______ _____ _____    ______ ____
ROOT
ATOM      1  C   UNL     1      -1.412  -0.526   0.013  0.00  0.00    -0.047 A 
ATOM      2  C   UNL     1      -2.053  -0.767   1.214  0.00  0.00    +0.005 A 
ATOM      3  C   UNL     1      -3.346  -1.244   1.230  0.00  0.00    +0.024 A 
ATOM      4  C   UNL     1      -4.018  -1.488   0.034  0.00  0.00    +0.039 A 
ATOM      5  C   UNL     1      -3.363  -1.242  -1.169  0.00  0.00    +0.004 A 
ATOM      6  C   UNL     1      -2.074  -0.759  -1.180  0.00  0.00    +0.011 A 
ATOM      7  C   UNL     1      -4.343  -1.601  -2.250  0.00  0.00    +0.136 C 
ATOM      8  C   UNL     1      -4.640  -0.405  -3.163  0.00  0.00    +0.122 C 
ATOM      9  C   UNL     1      -4.826  -1.028  -4.574  0.00  0.00    +0.109 C 
ATOM     10  C   UNL     1      -4.649  -2.547  -4.364  0.00  0.00    +0.096 C 
ATOM     11  N   UNL     1      -3.815  -2.660  -3.130  0.00  0.00    -0.293 NA
ATOM     12  C   UNL     1      -3.655  -0.477  -5.356  0.00  0.00    +0.227 C 
ATOM     13  O   UNL     1      -3.412  -0.723  -6.518  0.00  0.00    -0.275 OA
ATOM     14  N   UNL     1      -2.931   0.323  -4.566  0.00  0.00    -0.241 N 
ATOM     15  C   UNL     1      -3.399   0.448  -3.303  0.00  0.00    +0.228 C 
ATOM     16  O   UNL     1      -2.912   1.125  -2.424  0.00  0.00    -0.275 OA
ATOM     17  C   UNL     1      -5.578  -2.057  -1.523  0.00  0.00    +0.243 C 
ATOM     18  O   UNL     1      -6.616  -2.436  -2.025  0.00  0.00    -0.273 OA
ATOM     19  N   UNL     1      -5.309  -1.964  -0.206  0.00  0.00    -0.283 N 
ATOM     20  H   UNL     1      -2.837  -2.511  -3.328  0.00  0.00    +0.124 HD
ATOM     21  H   UNL     1      -5.938  -2.199   0.493  0.00  0.00    +0.155 HD
ENDROOT
BRANCH   1  23
ATOM     22  C   UNL     1      -0.019   1.526   0.010  0.00  0.00    +0.009 C 
ATOM     23  C   UNL     1       0.002  -0.004   0.002  0.00  0.00    +0.032 C 
ENDBRANCH   1  23
BRANCH  10  24
ATOM     24  C   UNL     1      -3.906  -3.165  -5.550  0.00  0.00    +0.129 C 
ATOM     25  C   UNL     1      -3.742  -4.669  -5.321  0.00  0.00    +0.039 C 
BRANCH  24  26
ATOM     26  O   UNL     1      -4.655  -2.945  -6.748  0.00  0.00    -0.390 OA
ATOM     27  H   UNL     1      -4.243  -3.312  -7.542  0.00  0.00    +0.210 HD
ENDBRANCH  24  26
ENDBRANCH  10  24
BRANCH  14  28
ATOM     28  C   UNL     1      -1.728   1.017  -5.032  0.00  0.00    +0.121 C 
BRANCH  28  29
ATOM     29  C   UNL     1      -2.114   2.386  -5.596  0.00  0.00    +0.054 C 
BRANCH  29  30
ATOM     30  C   UNL     1      -0.876   3.100  -6.075  0.00  0.00    -0.046 A 
ATOM     31  C   UNL     1      -0.167   3.909  -5.209  0.00  0.00    +0.004 A 
ATOM     32  C   UNL     1       0.969   4.564  -5.648  0.00  0.00    +0.000 A 
ATOM     33  C   UNL     1       1.395   4.409  -6.954  0.00  0.00    +0.000 A 
ATOM     34  C   UNL     1       0.685   3.599  -7.821  0.00  0.00    +0.000 A 
ATOM     35  C   UNL     1      -0.448   2.940  -7.380  0.00  0.00    +0.004 A 
ENDBRANCH  29  30
ENDBRANCH  28  29
ENDBRANCH  14  28
TORSDOF 6
