REMARK  Name = ZINC63133412
REMARK  7 active torsions:
REMARK  status: ('A' for Active; 'I' for Inactive)
REMARK    1  A    between atoms: C_1  and  O_2
REMARK    2  A    between atoms: O_2  and  C_3
REMARK    3  A    between atoms: C_6  and  C_10
REMARK    4  A    between atoms: C_10  and  C_11
REMARK    5  A    between atoms: C_11  and  C_12
REMARK    6  A    between atoms: N_14  and  N_15
REMARK    7  A    between atoms: C_16  and  C_18
REMARK                            x       y       z     vdW  Elec       q    Type
REMARK                         _______ _______ _______ _____ _____    ______ ____
ROOT
ATOM      1  C   UNL     1       4.654  -3.390  -5.242  0.00  0.00    +0.229 C 
ATOM      2  O   UNL     1       4.010  -3.664  -6.232  0.00  0.00    -0.274 OA
ATOM      3  N   UNL     1       5.969  -3.683  -5.191  0.00  0.00    -0.234 N 
ATOM      4  H   UNL     1       6.484  -3.464  -4.399  0.00  0.00    +0.173 HD
ENDROOT
BRANCH   3   5
ATOM      5  N   UNL     1       6.591  -4.304  -6.282  0.00  0.00    -0.231 N 
ATOM      6  C   UNL     1       7.906  -4.598  -6.231  0.00  0.00    +0.258 C 
ATOM      7  O   UNL     1       8.552  -4.323  -5.237  0.00  0.00    -0.269 OA
ATOM      8  H   UNL     1       6.076  -4.523  -7.074  0.00  0.00    +0.173 HD
BRANCH   6   9
ATOM      9  C   UNL     1       8.557  -5.248  -7.373  0.00  0.00    +0.044 C 
ATOM     10  C   UNL     1       9.880  -5.616  -7.477  0.00  0.00    +0.008 A 
ATOM     11  C   UNL     1      10.983  -5.506  -6.594  0.00  0.00    +0.010 A 
ATOM     12  C   UNL     1      12.199  -5.963  -6.964  0.00  0.00    +0.001 A 
ATOM     13  C   UNL     1      12.433  -6.557  -8.214  0.00  0.00    +0.002 A 
ATOM     14  C   UNL     1      11.450  -6.709  -9.129  0.00  0.00    +0.026 A 
ATOM     15  C   UNL     1      10.094  -6.240  -8.806  0.00  0.00    +0.043 A 
ATOM     16  N   UNL     1       8.982  -6.260  -9.485  0.00  0.00    -0.380 N 
ATOM     17  C   UNL     1       7.914  -5.659  -8.679  0.00  0.00    +0.154 C 
ATOM     18  H   UNL     1       8.876  -6.618 -10.380  0.00  0.00    +0.160 HD
ENDBRANCH   6   9
ENDBRANCH   3   5
BRANCH   1  19
ATOM     19  C   UNL     1       3.985  -2.722  -4.069  0.00  0.00    +0.102 C 
BRANCH  19  20
ATOM     20  C   UNL     1       2.504  -2.503  -4.383  0.00  0.00    +0.044 C 
BRANCH  20  24
ATOM     21  C   UNL     1       0.606  -0.607  -1.056  0.00  0.00    +0.134 A 
ATOM     22  C   UNL     1       1.173   0.160  -2.062  0.00  0.00    +0.047 A 
ATOM     23  C   UNL     1       1.786  -0.455  -3.137  0.00  0.00    +0.007 A 
ATOM     24  C   UNL     1       1.835  -1.835  -3.209  0.00  0.00    -0.046 A 
ATOM     25  C   UNL     1       1.271  -2.603  -2.208  0.00  0.00    +0.022 A 
ATOM     26  C   UNL     1       0.661  -1.992  -1.128  0.00  0.00    +0.060 A 
ATOM     27 BR   UNL     1      -0.103  -3.043   0.246  0.00  0.00    -0.047 Br
BRANCH  21  29
ATOM     28  C   UNL     1      -0.017   1.425   0.010  0.00  0.00    +0.277 C 
ATOM     29  O   UNL     1       0.002  -0.004   0.002  0.00  0.00    -0.494 OA
ENDBRANCH  21  29
ENDBRANCH  20  24
ENDBRANCH  19  20
ENDBRANCH   1  19
TORSDOF 6
