REMARK  Name = ZINC59982350
REMARK  11 active torsions:
REMARK  status: ('A' for Active; 'I' for Inactive)
REMARK    1  A    between atoms: C_1  and  C_2
REMARK    2  A    between atoms: C_3  and  C_9
REMARK    3  A    between atoms: N_5  and  C_7
REMARK    4  A    between atoms: C_10  and  C_11
REMARK    5  A    between atoms: N_13  and  C_14
REMARK    6  A    between atoms: C_14  and  C_15
REMARK    7  A    between atoms: C_15  and  C_16
REMARK    8  A    between atoms: C_15  and  C_17
REMARK    9  A    between atoms: C_15  and  N_18
REMARK   10  A    between atoms: C_20  and  C_27
REMARK   11  A    between atoms: C_23  and  C_26
REMARK                            x       y       z     vdW  Elec       q    Type
REMARK                         _______ _______ _______ _____ _____    ______ ____
ROOT
ATOM      1  C   UNL     1      -0.694  -0.307  -7.357  0.00  0.00    +0.237 C 
ATOM      2  O   UNL     1      -0.705   0.441  -6.396  0.00  0.00    -0.271 OA
ATOM      3  N   UNL     1       0.472  -0.820  -7.798  0.00  0.00    -0.313 N 
ATOM      4  H   UNL     1       0.481  -1.416  -8.563  0.00  0.00    +0.149 HD
ENDROOT
BRANCH   1   6
ATOM      5  C   UNL     1      -3.075  -0.124  -7.569  0.00  0.00    +0.018 C 
ATOM      6  C   UNL     1      -1.907  -0.638  -8.011  0.00  0.00    +0.068 C 
BRANCH   5   9
ATOM      7  C   UNL     1      -5.723  -1.154  -6.157  0.00  0.00    +0.068 C 
ATOM      8  C   UNL     1      -5.520  -0.927  -7.633  0.00  0.00    +0.069 A 
ATOM      9  C   UNL     1      -4.332  -0.467  -8.247  0.00  0.00    +0.034 A 
ATOM     10  C   UNL     1      -4.577  -0.401  -9.609  0.00  0.00    +0.134 A 
ATOM     11  N   UNL     1      -5.846  -0.800  -9.807  0.00  0.00    -0.255 N 
ATOM     12  N   UNL     1      -6.408  -1.126  -8.568  0.00  0.00    -0.175 NA
ATOM     13  C   UNL     1      -6.524  -0.885 -11.102  0.00  0.00    +0.174 C 
ATOM     14 CL   UNL     1      -3.455   0.104 -10.833  0.00  0.00    -0.062 Cl
ENDBRANCH   5   9
ENDBRANCH   1   6
BRANCH   3  15
ATOM     15  C   UNL     1       1.725  -0.477  -7.121  0.00  0.00    +0.092 C 
BRANCH  15  16
ATOM     16  C   UNL     1       2.872  -1.286  -7.732  0.00  0.00    -0.055 C 
ATOM     17  C   UNL     1       3.078  -0.861  -9.187  0.00  0.00    -0.008 C 
ATOM     18  C   UNL     1       4.155  -1.030  -6.939  0.00  0.00    -0.008 C 
BRANCH  16  19
ATOM     19  N   UNL     1       2.542  -2.717  -7.681  0.00  0.00    +0.384 N 
ATOM     20  C   UNL     1       2.303  -3.113  -6.288  0.00  0.00    -0.075 C 
ATOM     21  C   UNL     1       1.880  -4.583  -6.238  0.00  0.00    -0.031 C 
ATOM     22  C   UNL     1       2.995  -5.449  -6.833  0.00  0.00    +0.003 C 
ATOM     23  C   UNL     1       3.288  -4.978  -8.260  0.00  0.00    -0.031 C 
ATOM     24  C   UNL     1       3.658  -3.494  -8.235  0.00  0.00    -0.075 C 
ATOM     25  C   UNL     1       4.452  -5.787  -8.836  0.00  0.00    +0.005 C 
ATOM     26  C   UNL     1       1.632  -4.994  -4.786  0.00  0.00    +0.005 C 
ATOM     27  H   UNL     1       1.711  -2.889  -8.226  0.00  0.00    -0.081 HD
ENDBRANCH  16  19
ENDBRANCH  15  16
ENDBRANCH   3  15
TORSDOF 5
