REMARK  Name = ZINC38696780
REMARK  4 active torsions:
REMARK  status: ('A' for Active; 'I' for Inactive)
REMARK    1  A    between atoms: C_2  and  N_9
REMARK    2  A    between atoms: C_10  and  C_17
REMARK    3  A    between atoms: C_14  and  S_16
REMARK    4  A    between atoms: C_20  and  C_23
REMARK                            x       y       z     vdW  Elec       q    Type
REMARK                         _______ _______ _______ _____ _____    ______ ____
ROOT
ATOM      1  N   UNL     1       1.096   3.623  -0.184  0.00  0.00    -0.286 N 
ATOM      2  C   UNL     1       2.331   4.381   0.100  0.00  0.00    +0.188 C 
ATOM      3  N   UNL     1       2.019   5.767  -0.339  0.00  0.00    -0.232 NA
ATOM      4  N   UNL     1       0.610   5.928   0.053  0.00  0.00    -0.226 NA
ATOM      5  C   UNL     1       0.001   4.607  -0.221  0.00  0.00    +0.214 C 
ATOM      6  H   UNL     1       2.130   5.863  -1.338  0.00  0.00    +0.143 HD
ATOM      7  H   UNL     1       0.164   6.650  -0.492  0.00  0.00    +0.143 HD
ENDROOT
BRANCH   1   9
ATOM      8  C   UNL     1       0.620   1.749  -1.629  0.00  0.00    +0.043 A 
ATOM      9  C   UNL     1       0.989   2.244  -0.385  0.00  0.00    +0.036 A 
ATOM     10  C   UNL     1       1.252   1.367   0.660  0.00  0.00    +0.043 A 
ATOM     11  C   UNL     1       1.145   0.004   0.458  0.00  0.00    +0.044 A 
ATOM     12  C   UNL     1       0.778  -0.487  -0.782  0.00  0.00    +0.040 A 
ATOM     13  C   UNL     1       0.515   0.385  -1.824  0.00  0.00    +0.044 A 
ATOM     14 CL   UNL     1       0.054  -0.235  -3.379  0.00  0.00    -0.083 Cl
ATOM     15 CL   UNL     1       1.473  -1.094   1.763  0.00  0.00    -0.083 Cl
ENDBRANCH   1   9
BRANCH   2  16
ATOM     16  C   UNL     1       3.504   3.814  -0.702  0.00  0.00    +0.189 C 
ATOM     17  C   UNL     1       4.762   4.630  -0.464  0.00  0.00    +0.030 C 
ATOM     18  C   UNL     1       5.068   5.109  -1.671  0.00  0.00    +0.065 C 
ATOM     19  N   UNL     1       4.171   4.695  -2.593  0.00  0.00    -0.158 NA
ATOM     20  N   UNL     1       3.272   3.972  -2.148  0.00  0.00    -0.177 NA
BRANCH  18  21
ATOM     21  C   UNL     1       6.252   5.993  -1.967  0.00  0.00    +0.039 C 
ATOM     22  C   UNL     1       6.340   6.615  -3.362  0.00  0.00    +0.010 C 
ATOM     23  C   UNL     1       7.286   5.478  -2.970  0.00  0.00    +0.010 C 
ENDBRANCH  18  21
ENDBRANCH   2  16
BRANCH   5  24
ATOM     24  S   UNL     1      -1.228   4.217   1.056  0.00  0.00    -0.139 S 
ATOM     25  H   UNL     1      -2.159   5.178   0.915  0.00  0.00    +0.105 HD
ENDBRANCH   5  24
TORSDOF 4
