REMARK  Name = ZINC08684285
REMARK  5 active torsions:
REMARK  status: ('A' for Active; 'I' for Inactive)
REMARK    1  A    between atoms: C_5  and  C_7
REMARK    2  A    between atoms: N_9  and  C_10
REMARK    3  A    between atoms: C_10  and  C_21
REMARK    4  A    between atoms: C_11  and  C_12
REMARK    5  A    between atoms: C_15  and  N_18
REMARK                            x       y       z     vdW  Elec       q    Type
REMARK                         _______ _______ _______ _____ _____    ______ ____
ROOT
ATOM      1  C   UNL     1       0.324  -4.178  -0.117  0.00  0.00    +0.097 C 
ATOM      2  C   UNL     1      -0.799  -4.920   0.013  0.00  0.00    +0.036 C 
ENDROOT
BRANCH   1   3
ATOM      3  C   UNL     1       1.641  -4.833  -0.122  0.00  0.00    +0.261 C 
ATOM      4  O   UNL     1       2.156  -5.157  -1.175  0.00  0.00    -0.269 OA
ATOM      5  N   UNL     1       2.278  -5.073   1.041  0.00  0.00    -0.296 N 
ATOM      6  C   UNL     1       1.622  -4.795   2.326  0.00  0.00    +0.108 C 
ATOM      7  C   UNL     1       1.668  -6.061   3.188  0.00  0.00    +0.019 C 
ATOM      8  C   UNL     1       3.118  -6.535   3.312  0.00  0.00    +0.003 C 
ATOM      9  C   UNL     1       3.666  -6.876   1.925  0.00  0.00    +0.019 C 
ATOM     10  C   UNL     1       3.640  -5.625   1.049  0.00  0.00    +0.108 C 
ENDBRANCH   1   3
BRANCH   2  11
ATOM     11  C   UNL     1      -2.115  -4.263   0.048  0.00  0.00    -0.023 A 
ATOM     12  C   UNL     1      -2.295  -3.018  -0.564  0.00  0.00    +0.010 A 
ATOM     13  C   UNL     1      -3.532  -2.409  -0.528  0.00  0.00    +0.033 A 
ATOM     14  C   UNL     1      -4.593  -3.026   0.112  0.00  0.00    +0.126 A 
ATOM     15  C   UNL     1      -4.422  -4.257   0.721  0.00  0.00    +0.033 A 
ATOM     16  C   UNL     1      -3.193  -4.882   0.688  0.00  0.00    +0.010 A 
BRANCH  14  17
ATOM     17  N   UNL     1      -5.917  -2.365   0.146  0.00  0.00    +0.056 N 
ATOM     18  O   UNL     1      -6.069  -1.289  -0.384  0.00  0.00    -0.126 OA
ATOM     19  O   UNL     1      -6.846  -2.900   0.705  0.00  0.00    -0.126 OA
ENDBRANCH  14  17
ENDBRANCH   2  11
BRANCH   1  22
ATOM     20  C   UNL     1       0.808  -2.172  -1.299  0.00  0.00    +0.249 C 
ATOM     21  O   UNL     1       1.339  -2.829  -2.174  0.00  0.00    -0.270 OA
ATOM     22  N   UNL     1       0.234  -2.790  -0.248  0.00  0.00    -0.277 N 
ATOM     23  H   UNL     1      -0.243  -2.270   0.418  0.00  0.00    +0.155 HD
BRANCH  20  28
ATOM     24  C   UNL     1       0.068   1.431  -0.545  0.00  0.00    +0.001 A 
ATOM     25  C   UNL     1       0.767   2.067  -1.556  0.00  0.00    +0.001 A 
ATOM     26  C   UNL     1       1.479   1.329  -2.484  0.00  0.00    +0.016 A 
ATOM     27  C   UNL     1       1.497  -0.050  -2.407  0.00  0.00    +0.030 A 
ATOM     28  C   UNL     1       0.794  -0.698  -1.388  0.00  0.00    +0.051 A 
ATOM     29  C   UNL     1       0.077   0.054  -0.455  0.00  0.00    +0.014 A 
ATOM     30 BR   UNL     1       2.470  -1.057  -3.677  0.00  0.00    -0.050 Br
ENDBRANCH  20  28
ENDBRANCH   1  22
TORSDOF 5
