REMARK  Name = ZINC39732132
REMARK  5 active torsions:
REMARK  status: ('A' for Active; 'I' for Inactive)
REMARK    1  A    between atoms: C_1  and  N_2
REMARK    2  A    between atoms: N_8  and  O_9
REMARK    3  A    between atoms: O_9  and  C_10
REMARK    4  A    between atoms: C_10  and  C_11
REMARK    5  A    between atoms: N_23  and  C_26
REMARK                            x       y       z     vdW  Elec       q    Type
REMARK                         _______ _______ _______ _____ _____    ______ ____
ROOT
ATOM      1  C   UNL     1       0.101   1.310  -0.551  0.00  0.00    +0.141 C 
ATOM      2  N   UNL     1       0.021  -0.153  -0.567  0.00  0.00    -0.245 N 
ATOM      3  C   UNL     1      -1.159  -0.802  -0.275  0.00  0.00    +0.123 C 
ATOM      4  N   UNL     1      -2.299  -0.280  -0.597  0.00  0.00    -0.243 NA
ATOM      5  C   UNL     1      -3.469  -0.919  -0.464  0.00  0.00    +0.114 C 
ATOM      6  C   UNL     1      -3.536  -2.194  -0.026  0.00  0.00    +0.047 C 
ATOM      7  C   UNL     1      -2.356  -2.870   0.371  0.00  0.00    +0.101 C 
ATOM      8  N   UNL     1      -2.407  -4.127   0.699  0.00  0.00    -0.088 NA
ATOM      9  C   UNL     1      -1.051  -2.139   0.414  0.00  0.00    +0.191 C 
ATOM     10  C   UNL     1       0.048  -2.920  -0.260  0.00  0.00    +0.239 C 
ATOM     11  O   UNL     1       0.009  -4.131  -0.301  0.00  0.00    -0.274 OA
ATOM     12  N   UNL     1       1.075  -2.245  -0.816  0.00  0.00    -0.228 N 
ATOM     13  C   UNL     1       1.100  -0.904  -0.872  0.00  0.00    +0.316 C 
ATOM     14  O   UNL     1       2.128  -0.347  -1.203  0.00  0.00    -0.252 OA
ATOM     15  C   UNL     1       2.197  -2.998  -1.382  0.00  0.00    +0.143 C 
ENDROOT
BRANCH   8  16
ATOM     16  O   UNL     1      -1.283  -4.750   1.293  0.00  0.00    -0.389 OA
BRANCH  16  17
ATOM     17  C   UNL     1      -1.478  -6.131   1.601  0.00  0.00    +0.299 C 
BRANCH  17  18
ATOM     18  C   UNL     1      -0.226  -6.689   2.225  0.00  0.00    +0.011 A 
ATOM     19  C   UNL     1       0.873  -5.873   2.418  0.00  0.00    +0.010 A 
ATOM     20  C   UNL     1       2.023  -6.384   2.990  0.00  0.00    +0.020 A 
ATOM     21  C   UNL     1       2.074  -7.713   3.371  0.00  0.00    +0.042 A 
ATOM     22  C   UNL     1       0.975  -8.531   3.179  0.00  0.00    +0.040 A 
ATOM     23  C   UNL     1      -0.177  -8.017   2.610  0.00  0.00    +0.049 A 
ATOM     24 CL   UNL     1      -1.559  -9.041   2.374  0.00  0.00    -0.083 Cl
ATOM     25 CL   UNL     1       3.518  -8.355   4.089  0.00  0.00    -0.083 Cl
ENDBRANCH  17  18
ENDBRANCH  16  17
ENDBRANCH   8  16
TORSDOF 3
