REMARK  Name = ZINC09387554
REMARK  12 active torsions:
REMARK  status: ('A' for Active; 'I' for Inactive)
REMARK    1  A    between atoms: C_1  and  C_2
REMARK    2  A    between atoms: C_2  and  N_60
REMARK    3  A    between atoms: C_3  and  C_4
REMARK    4  A    between atoms: C_3  and  N_60
REMARK    5  A    between atoms: C_5  and  C_6
REMARK    6  A    between atoms: C_5  and  N_60
REMARK    7  A    between atoms: C_6  and  N_7
REMARK    8  A    between atoms: C_11  and  C_18
REMARK    9  A    between atoms: C_12  and  C_17
REMARK   10  A    between atoms: C_19  and  C_21
REMARK   11  A    between atoms: C_24  and  S_27
REMARK   12  A    between atoms: S_27  and  C_30
REMARK                            x       y       z     vdW  Elec       q    Type
REMARK                         _______ _______ _______ _____ _____    ______ ____
ROOT
ATOM      1  N   UNL     1       2.635  -3.167   0.070  0.00  0.00    -0.248 N 
ATOM      2  C   UNL     1       3.069  -4.421   0.465  0.00  0.00    +0.168 A 
ATOM      3  N   UNL     1       2.403  -5.552   0.491  0.00  0.00    -0.224 NA
ATOM      4  C   UNL     1       2.960  -6.712   0.901  0.00  0.00    +0.083 A 
ATOM      5  C   UNL     1       2.360  -7.991   0.972  0.00  0.00    -0.021 A 
ATOM      6  C   UNL     1       3.071  -9.073   1.420  0.00  0.00    -0.045 A 
ATOM      7  C   UNL     1       4.395  -8.957   1.817  0.00  0.00    +0.005 A 
ATOM      8  C   UNL     1       5.014  -7.722   1.760  0.00  0.00    +0.017 A 
ATOM      9  C   UNL     1       4.310  -6.632   1.313  0.00  0.00    +0.041 A 
ATOM     10  S   UNL     1       4.676  -4.910   1.075  0.00  0.00    -0.052 S 
ATOM     11  C   UNL     1       2.399 -10.421   1.483  0.00  0.00    +0.044 C 
ATOM     12  C   UNL     1       0.923  -8.165   0.552  0.00  0.00    +0.046 C 
ATOM     13  C   UNL     1       1.371  -2.998  -0.366  0.00  0.00    +0.252 C 
ATOM     14  O   UNL     1       0.590  -3.929  -0.343  0.00  0.00    -0.270 OA
ENDROOT
BRANCH  13  15
ATOM     15  C   UNL     1       0.933  -1.680  -0.872  0.00  0.00    +0.037 A 
ATOM     16  C   UNL     1       0.095  -1.599  -1.985  0.00  0.00    +0.015 A 
ATOM     17  C   UNL     1      -0.309  -0.365  -2.452  0.00  0.00    +0.027 A 
ATOM     18  C   UNL     1       0.115   0.790  -1.820  0.00  0.00    +0.088 A 
ATOM     19  C   UNL     1       0.947   0.717  -0.717  0.00  0.00    +0.027 A 
ATOM     20  C   UNL     1       1.358  -0.510  -0.239  0.00  0.00    +0.015 A 
BRANCH  18  21
ATOM     21  S   UNL     1      -0.405   2.362  -2.424  0.00  0.00    -0.006 S 
ATOM     22  O   UNL     1       0.615   3.263  -2.017  0.00  0.00    -0.170 OA
ATOM     23  O   UNL     1      -0.676   2.149  -3.803  0.00  0.00    -0.170 OA
ATOM     24  C   UNL     1      -1.944   2.717  -1.532  0.00  0.00    +0.200 C 
ENDBRANCH  18  21
ENDBRANCH  13  15
BRANCH   1  25
ATOM     25  C   UNL     1       3.549  -2.024   0.126  0.00  0.00    +0.097 C 
BRANCH  25  26
ATOM     26  C   UNL     1       4.095  -1.876   1.547  0.00  0.00    -0.059 C 
BRANCH  26  27
ATOM     27  N   UNL     1       5.119  -0.811   1.556  0.00  0.00    +0.380 N 
ATOM     28  H   UNL     1       5.781  -0.978   0.788  0.00  0.00    -0.082 HD
BRANCH  27  30
ATOM     29  C   UNL     1       3.523   0.816   2.513  0.00  0.00    -0.017 C 
ATOM     30  C   UNL     1       4.479   0.507   1.360  0.00  0.00    -0.082 C 
ENDBRANCH  27  30
BRANCH  27  31
ATOM     31  C   UNL     1       5.856  -0.829   2.837  0.00  0.00    -0.082 C 
ATOM     32  C   UNL     1       7.011   0.172   2.757  0.00  0.00    -0.017 C 
ENDBRANCH  27  31
ENDBRANCH  26  27
ENDBRANCH  25  26
ENDBRANCH   1  25
TORSDOF 7
