REMARK  Name = ZINC41595929
REMARK  1 active torsions:
REMARK  status: ('A' for Active; 'I' for Inactive)
REMARK    1  A    between atoms: C_2  and  N_9
REMARK                            x       y       z     vdW  Elec       q    Type
REMARK                         _______ _______ _______ _____ _____    ______ ____
ROOT
ATOM      1  N   UNL     1       1.161   3.486   0.009  0.00  0.00    -0.285 N 
ATOM      2  C   UNL     1       2.337   4.184   0.105  0.00  0.00    +0.200 A 
ATOM      3  N   UNL     1       2.307   5.540   0.220  0.00  0.00    -0.295 N 
ATOM      4  H   UNL     1       1.460   6.013   0.234  0.00  0.00    +0.172 HD
ATOM      5  C   UNL     1       3.465   6.216   0.314  0.00  0.00    +0.257 A 
ATOM      6  O   UNL     1       3.456   7.431   0.418  0.00  0.00    -0.267 OA
ATOM      7  C   UNL     1       4.699   5.513   0.292  0.00  0.00    +0.049 A 
ATOM      8  C   UNL     1       4.669   4.163   0.176  0.00  0.00    +0.064 A 
ATOM      9  N   UNL     1       3.477   3.539   0.091  0.00  0.00    -0.219 NA
ATOM     10  C   UNL     1       6.016   3.437   0.156  0.00  0.00    +0.125 C 
ATOM     11  S   UNL     1       7.183   4.820  -0.173  0.00  0.00    -0.150 S 
ATOM     12  C   UNL     1       6.073   6.175   0.391  0.00  0.00    +0.111 C 
ATOM     13  H   UNL     1       0.319   3.962  -0.063  0.00  0.00    +0.155 HD
ENDROOT
BRANCH   1  15
ATOM     14  C   UNL     1       0.241   1.379  -0.728  0.00  0.00    +0.043 A 
ATOM     15  C   UNL     1       1.176   2.087   0.015  0.00  0.00    +0.036 A 
ATOM     16  C   UNL     1       2.126   1.405   0.763  0.00  0.00    +0.043 A 
ATOM     17  C   UNL     1       2.139   0.023   0.767  0.00  0.00    +0.044 A 
ATOM     18  C   UNL     1       1.206  -0.681   0.026  0.00  0.00    +0.040 A 
ATOM     19  C   UNL     1       0.259  -0.004  -0.721  0.00  0.00    +0.044 A 
ATOM     20 CL   UNL     1      -0.910  -0.890  -1.649  0.00  0.00    -0.083 Cl
ATOM     21 CL   UNL     1       3.327  -0.831   1.702  0.00  0.00    -0.083 Cl
ENDBRANCH   1  15
TORSDOF 1
