REMARK  Name = ZINC58519862
REMARK  4 active torsions:
REMARK  status: ('A' for Active; 'I' for Inactive)
REMARK    1  A    between atoms: N_11  and  C_12
REMARK    2  A    between atoms: C_18  and  C_20
REMARK    3  A    between atoms: C_21  and  C_22
REMARK    4  A    between atoms: C_25  and  N_28
REMARK                            x       y       z     vdW  Elec       q    Type
REMARK                         _______ _______ _______ _____ _____    ______ ____
ROOT
ATOM      1  C   UNL     1       4.893  -0.546  -0.053  0.00  0.00    +0.095 C 
ATOM      2  C   UNL     1       5.529  -1.141  -1.312  0.00  0.00    +0.044 C 
ATOM      3  C   UNL     1       7.022  -0.802  -1.334  0.00  0.00    +0.110 C 
ATOM      4  N   UNL     1       7.630  -1.260  -0.077  0.00  0.00    -0.298 N 
ATOM      5  C   UNL     1       7.040  -0.820   1.194  0.00  0.00    +0.110 C 
ATOM      6  C   UNL     1       5.546  -1.159   1.188  0.00  0.00    +0.044 C 
ATOM      7  C   UNL     1       8.708  -2.069  -0.091  0.00  0.00    +0.239 C 
ATOM      8  O   UNL     1       9.128  -2.506  -1.147  0.00  0.00    -0.271 OA
ENDROOT
BRANCH   1  19
ATOM      9  C   UNL     1       0.017   1.455  -0.004  0.00  0.00    +0.002 A 
ATOM     10  C   UNL     1       1.208   2.160  -0.007  0.00  0.00    +0.002 A 
ATOM     11  C   UNL     1       2.415   1.488  -0.021  0.00  0.00    +0.028 A 
ATOM     12  C   UNL     1       2.433   0.102  -0.031  0.00  0.00    +0.070 A 
ATOM     13  C   UNL     1       1.231  -0.609  -0.027  0.00  0.00    +0.067 A 
ATOM     14  C   UNL     1       0.025   0.074  -0.013  0.00  0.00    +0.028 A 
ATOM     15  N   UNL     1       1.564  -1.962  -0.038  0.00  0.00    -0.306 N 
ATOM     16  H   UNL     1       0.935  -2.701  -0.039  0.00  0.00    +0.170 HD
ATOM     17  C   UNL     1       2.906  -2.069  -0.049  0.00  0.00    +0.328 A 
ATOM     18  O   UNL     1       3.525  -3.116  -0.060  0.00  0.00    -0.247 OA
ATOM     19  N   UNL     1       3.458  -0.841  -0.044  0.00  0.00    -0.289 N 
ENDBRANCH   1  19
BRANCH   7  20
ATOM     20  C   UNL     1       9.374  -2.421   1.163  0.00  0.00    +0.068 C 
ATOM     21  C   UNL     1      10.511  -3.148   1.142  0.00  0.00    +0.013 C 
BRANCH  21  22
ATOM     22  C   UNL     1      11.180  -3.502   2.402  0.00  0.00    -0.025 A 
ATOM     23  C   UNL     1      10.637  -3.091   3.625  0.00  0.00    +0.010 A 
ATOM     24  C   UNL     1      11.267  -3.424   4.802  0.00  0.00    +0.024 A 
ATOM     25  C   UNL     1      12.442  -4.169   4.778  0.00  0.00    +0.036 A 
ATOM     26  C   UNL     1      12.986  -4.579   3.565  0.00  0.00    +0.024 A 
ATOM     27  C   UNL     1      12.360  -4.256   2.383  0.00  0.00    +0.010 A 
BRANCH  25  28
ATOM     28  N   UNL     1      13.077  -4.505   5.974  0.00  0.00    -0.271 N 
ATOM     29  C   UNL     1      14.379  -5.177   6.060  0.00  0.00    +0.114 C 
ATOM     30  C   UNL     1      14.867  -4.948   7.508  0.00  0.00    +0.029 C 
ATOM     31  C   UNL     1      13.532  -4.743   8.261  0.00  0.00    +0.098 C 
ATOM     32  C   UNL     1      12.578  -4.249   7.195  0.00  0.00    +0.220 C 
ATOM     33  O   UNL     1      11.517  -3.704   7.412  0.00  0.00    -0.275 OA
ENDBRANCH  25  28
ENDBRANCH  21  22
ENDBRANCH   7  20
TORSDOF 4
