REMARK  Name = ZINC33086920
REMARK  7 active torsions:
REMARK  status: ('A' for Active; 'I' for Inactive)
REMARK    1  A    between atoms: C_1  and  C_2
REMARK    2  A    between atoms: C_4  and  C_7
REMARK    3  A    between atoms: N_12  and  S_13
REMARK    4  A    between atoms: S_13  and  C_16
REMARK    5  A    between atoms: C_19  and  C_22
REMARK    6  A    between atoms: C_22  and  C_23
REMARK    7  A    between atoms: C_22  and  C_24
REMARK                            x       y       z     vdW  Elec       q    Type
REMARK                         _______ _______ _______ _____ _____    ______ ____
ROOT
ATOM      1  S   UNL     1      -0.017   1.417   0.010  0.00  0.00    +0.061 S 
ATOM      2  O   UNL     1       0.002  -0.004   0.002  0.00  0.00    -0.153 OA
ATOM      3  O   UNL     1       1.172   2.195   0.003  0.00  0.00    -0.153 OA
ENDROOT
BRANCH   1   4
ATOM      4  C   UNL     1      -0.927   1.900   1.439  0.00  0.00    +0.106 A 
ATOM      5  C   UNL     1      -0.717   3.145   2.004  0.00  0.00    +0.029 A 
ATOM      6  C   UNL     1      -1.434   3.526   3.123  0.00  0.00    +0.006 A 
ATOM      7  C   UNL     1      -2.354   2.659   3.683  0.00  0.00    -0.045 A 
ATOM      8  C   UNL     1      -2.559   1.412   3.121  0.00  0.00    +0.006 A 
ATOM      9  C   UNL     1      -1.846   1.033   2.000  0.00  0.00    +0.029 A 
BRANCH   7  10
ATOM     10  C   UNL     1      -3.132   3.072   4.905  0.00  0.00    +0.013 C 
ATOM     11  C   UNL     1      -2.163   3.372   6.050  0.00  0.00    +0.012 C 
ATOM     12  C   UNL     1      -3.950   4.326   4.588  0.00  0.00    +0.012 C 
ENDBRANCH   7  10
ENDBRANCH   1   4
BRANCH   1  17
ATOM     13  C   UNL     1      -1.910   1.071  -2.000  0.00  0.00    +0.132 C 
ATOM     14  C   UNL     1      -2.444   1.906  -3.183  0.00  0.00    +0.028 C 
ATOM     15  C   UNL     1      -1.295   2.917  -3.438  0.00  0.00    +0.019 C 
ATOM     16  C   UNL     1      -0.791   3.186  -1.998  0.00  0.00    +0.110 C 
ATOM     17  N   UNL     1      -0.897   1.885  -1.312  0.00  0.00    -0.168 NA
BRANCH  13  21
ATOM     18  C   UNL     1      -5.875  -1.096   0.343  0.00  0.00    +0.089 C 
ATOM     19  C   UNL     1      -4.737  -0.196  -0.064  0.00  0.00    +0.135 A 
ATOM     20  C   UNL     1      -3.920  -0.353  -1.133  0.00  0.00    +0.072 A 
ATOM     21  C   UNL     1      -3.037   0.748  -1.054  0.00  0.00    +0.103 A 
ATOM     22  N   UNL     1      -3.395   1.431  -0.005  0.00  0.00    -0.081 NA
ATOM     23  O   UNL     1      -4.337   0.922   0.558  0.00  0.00    -0.360 OA
ENDBRANCH  13  21
ENDBRANCH   1  17
TORSDOF 4
