REMARK  Name = ZINC16692678
REMARK  5 active torsions:
REMARK  status: ('A' for Active; 'I' for Inactive)
REMARK    1  A    between atoms: C_1  and  O_2
REMARK    2  A    between atoms: O_2  and  C_3
REMARK    3  A    between atoms: C_5  and  C_10
REMARK    4  A    between atoms: C_8  and  O_9
REMARK    5  A    between atoms: N_16  and  C_17
REMARK                            x       y       z     vdW  Elec       q    Type
REMARK                         _______ _______ _______ _____ _____    ______ ____
ROOT
ATOM      1  C   UNL     1      -4.852   0.220   0.038  0.00  0.00    +0.028 C 
ATOM      2  C   UNL     1      -6.048  -0.415  -0.056  0.00  0.00    +0.078 C 
ATOM      3  C   UNL     1      -7.404   0.156  -0.171  0.00  0.00    +0.256 C 
ATOM      4  O   UNL     1      -7.588   1.359  -0.194  0.00  0.00    -0.269 OA
ATOM      5  N   UNL     1      -8.410  -0.699  -0.249  0.00  0.00    -0.260 N 
ATOM      6  C   UNL     1      -8.181  -2.057  -0.221  0.00  0.00    +0.166 C 
ATOM      7  N   UNL     1      -9.057  -3.035  -0.286  0.00  0.00    -0.226 NA
ATOM      8  S   UNL     1      -6.404  -2.166  -0.082  0.00  0.00    -0.049 S 
ATOM      9  H   UNL     1      -9.318  -0.366  -0.325  0.00  0.00    +0.157 HD
ENDROOT
BRANCH   7  10
ATOM     10  C   UNL     1      -8.634  -4.336  -0.243  0.00  0.00    +0.067 A 
ATOM     11  C   UNL     1      -7.535  -4.742  -1.002  0.00  0.00    +0.029 A 
ATOM     12  C   UNL     1      -7.114  -6.055  -0.954  0.00  0.00    +0.022 A 
ATOM     13  C   UNL     1      -7.779  -6.969  -0.154  0.00  0.00    +0.041 A 
ATOM     14  C   UNL     1      -8.870  -6.573   0.601  0.00  0.00    +0.022 A 
ATOM     15  C   UNL     1      -9.297  -5.262   0.566  0.00  0.00    +0.029 A 
ATOM     16 CL   UNL     1      -7.242  -8.619  -0.099  0.00  0.00    -0.084 Cl
ENDBRANCH   7  10
BRANCH   1  19
ATOM     17  C   UNL     1      -1.230  -0.718   0.300  0.00  0.00    +0.162 A 
ATOM     18  C   UNL     1      -2.375   0.013   0.049  0.00  0.00    +0.057 A 
ATOM     19  C   UNL     1      -3.631  -0.552   0.303  0.00  0.00    -0.020 A 
ATOM     20  C   UNL     1      -3.719  -1.854   0.810  0.00  0.00    +0.012 A 
ATOM     21  C   UNL     1      -2.571  -2.575   1.057  0.00  0.00    +0.050 A 
ATOM     22  C   UNL     1      -1.326  -2.016   0.799  0.00  0.00    +0.158 A 
BRANCH  17  24
ATOM     23  C   UNL     1       0.016   1.161  -0.457  0.00  0.00    +0.277 C 
ATOM     24  O   UNL     1      -0.009  -0.173   0.054  0.00  0.00    -0.491 OA
ENDBRANCH  17  24
BRANCH  22  25
ATOM     25  O   UNL     1      -0.199  -2.734   1.040  0.00  0.00    -0.503 OA
ATOM     26  H   UNL     1       0.153  -2.627   1.934  0.00  0.00    +0.292 HD
ENDBRANCH  22  25
ENDBRANCH   1  19
TORSDOF 4
