REMARK  Name = ZINC06276497
REMARK  5 active torsions:
REMARK  status: ('A' for Active; 'I' for Inactive)
REMARK    1  A    between atoms: C_3  and  C_8
REMARK    2  A    between atoms: N_10  and  C_11
REMARK    3  A    between atoms: C_11  and  N_13
REMARK    4  A    between atoms: N_16  and  C_19
REMARK    5  A    between atoms: C_22  and  N_25
REMARK                            x       y       z     vdW  Elec       q    Type
REMARK                         _______ _______ _______ _____ _____    ______ ____
ROOT
ATOM      1  N   UNL     1       7.169   1.546   0.043  0.00  0.00    -0.309 N 
ATOM      2  C   UNL     1       7.207   0.077   0.041  0.00  0.00    +0.125 C 
ATOM      3  C   UNL     1       8.136  -0.388  -1.087  0.00  0.00    +0.124 C 
ATOM      4  N   UNL     1       9.401   0.353  -0.989  0.00  0.00    -0.327 N 
ATOM      5  C   UNL     1       9.363   1.823  -0.987  0.00  0.00    +0.124 C 
ATOM      6  C   UNL     1       8.435   2.287   0.136  0.00  0.00    +0.125 C 
ENDROOT
BRANCH   4   7
ATOM      7  C   UNL     1      10.618  -0.326  -0.899  0.00  0.00    +0.030 A 
ATOM      8  C   UNL     1      10.654  -1.709  -1.022  0.00  0.00    +0.025 A 
ATOM      9  C   UNL     1      11.859  -2.378  -0.932  0.00  0.00    +0.034 A 
ATOM     10  C   UNL     1      13.029  -1.672  -0.722  0.00  0.00    +0.126 A 
ATOM     11  C   UNL     1      12.997  -0.295  -0.600  0.00  0.00    +0.034 A 
ATOM     12  C   UNL     1      11.796   0.380  -0.693  0.00  0.00    +0.025 A 
BRANCH  10  13
ATOM     13  N   UNL     1      14.319  -2.393  -0.626  0.00  0.00    +0.056 N 
ATOM     14  O   UNL     1      14.348  -3.597  -0.733  0.00  0.00    -0.126 OA
ATOM     15  O   UNL     1      15.343  -1.777  -0.442  0.00  0.00    -0.126 OA
ENDBRANCH  10  13
ENDBRANCH   4   7
BRANCH   1  16
ATOM     16  C   UNL     1       5.995   2.202  -0.044  0.00  0.00    +0.139 C 
ATOM     17  S   UNL     1       5.976   3.908  -0.184  0.00  0.00    -0.018 S 
BRANCH  16  20
ATOM     18  C   UNL     1       3.661   2.175   0.002  0.00  0.00    +0.250 C 
ATOM     19  O   UNL     1       3.647   3.390   0.001  0.00  0.00    -0.270 OA
ATOM     20  N   UNL     1       4.836   1.514  -0.020  0.00  0.00    -0.264 N 
ATOM     21  H   UNL     1       4.847   0.544  -0.019  0.00  0.00    +0.157 HD
BRANCH  18  24
ATOM     22  C   UNL     1      -0.012   1.394   0.075  0.00  0.00    +0.004 A 
ATOM     23  C   UNL     1       1.172   2.102   0.051  0.00  0.00    +0.013 A 
ATOM     24  C   UNL     1       2.390   1.421   0.028  0.00  0.00    +0.040 A 
ATOM     25  C   UNL     1       2.403   0.025   0.029  0.00  0.00    +0.051 A 
ATOM     26  C   UNL     1       1.211  -0.673   0.053  0.00  0.00    +0.124 A 
ATOM     27  C   UNL     1       0.006   0.011   0.076  0.00  0.00    +0.038 A 
ATOM     28  F   UNL     1       1.220  -2.024   0.054  0.00  0.00    -0.205 F 
ENDBRANCH  18  24
ENDBRANCH  16  20
ENDBRANCH   1  16
TORSDOF 5
