REMARK  Name = ZINC03258119
REMARK  5 active torsions:
REMARK  status: ('A' for Active; 'I' for Inactive)
REMARK    1  A    between atoms: C_1  and  C_2
REMARK    2  A    between atoms: C_5  and  C_8
REMARK    3  A    between atoms: C_8  and  C_10
REMARK    4  A    between atoms: C_12  and  C_22
REMARK    5  A    between atoms: C_16  and  C_21
REMARK                            x       y       z     vdW  Elec       q    Type
REMARK                         _______ _______ _______ _____ _____    ______ ____
ROOT
ATOM      1  C   UNL     1       0.325  -0.625  -0.812  0.00  0.00    +0.151 C 
ATOM      2  C   UNL     1      -0.634  -0.677   0.384  0.00  0.00    +0.139 C 
ATOM      3  N   UNL     1      -1.027   0.675   0.785  0.00  0.00    -0.272 N 
ATOM      4  N   UNL     1       0.019   1.464   1.144  0.00  0.00    -0.225 N 
ATOM      5  C   UNL     1      -0.012   2.584   1.924  0.00  0.00    +0.148 A 
ATOM      6  N   UNL     1       1.209   3.038   2.002  0.00  0.00    -0.132 NA
ATOM      7  N   UNL     1       2.006   2.281   1.331  0.00  0.00    -0.121 NA
ATOM      8  C   UNL     1       1.329   1.304   0.793  0.00  0.00    +0.209 A 
ATOM      9  S   UNL     1       1.930  -0.016  -0.212  0.00  0.00    -0.071 S 
ATOM     10  C   UNL     1      -1.231   3.186   2.575  0.00  0.00    +0.090 C 
ATOM     11  H   UNL     1      -1.583   1.117   0.068  0.00  0.00    +0.167 HD
ENDROOT
BRANCH   2  12
ATOM     12  C   UNL     1      -1.864  -1.460   0.003  0.00  0.00    -0.024 A 
ATOM     13  C   UNL     1      -2.878  -0.850  -0.711  0.00  0.00    +0.007 A 
ATOM     14  C   UNL     1      -4.004  -1.569  -1.066  0.00  0.00    +0.020 A 
ATOM     15  C   UNL     1      -4.120  -2.897  -0.697  0.00  0.00    +0.041 A 
ATOM     16  C   UNL     1      -3.107  -3.506   0.022  0.00  0.00    +0.020 A 
ATOM     17  C   UNL     1      -1.980  -2.787   0.372  0.00  0.00    +0.007 A 
ATOM     18 CL   UNL     1      -5.536  -3.800  -1.137  0.00  0.00    -0.084 Cl
ENDBRANCH   2  12
BRANCH   1  19
ATOM     19  C   UNL     1       0.488  -2.004  -1.396  0.00  0.00    +0.179 C 
ATOM     20  O   UNL     1      -0.139  -2.323  -2.383  0.00  0.00    -0.291 OA
BRANCH  19  25
ATOM     21  C   UNL     1       4.086  -5.757   1.058  0.00  0.00    +0.044 C 
ATOM     22  C   UNL     1       3.143  -4.773   0.415  0.00  0.00    -0.050 A 
ATOM     23  C   UNL     1       2.562  -5.073  -0.804  0.00  0.00    +0.004 A 
ATOM     24  C   UNL     1       1.698  -4.179  -1.399  0.00  0.00    +0.011 A 
ATOM     25  C   UNL     1       1.409  -2.965  -0.767  0.00  0.00    +0.019 A 
ATOM     26  C   UNL     1       2.005  -2.667   0.463  0.00  0.00    +0.011 A 
ATOM     27  C   UNL     1       2.862  -3.574   1.047  0.00  0.00    +0.004 A 
ENDBRANCH  19  25
ENDBRANCH   1  19
TORSDOF 3
