REMARK  Name = ZINC10034469
REMARK  8 active torsions:
REMARK  status: ('A' for Active; 'I' for Inactive)
REMARK    1  A    between atoms: C_1  and  C_2
REMARK    2  A    between atoms: C_5  and  N_9
REMARK    3  A    between atoms: C_7  and  C_8
REMARK    4  A    between atoms: C_19  and  S_20
REMARK    5  A    between atoms: S_20  and  C_21
REMARK    6  A    between atoms: C_21  and  C_23
REMARK    7  A    between atoms: C_21  and  C_24
REMARK    8  A    between atoms: C_29  and  C_32
REMARK                            x       y       z     vdW  Elec       q    Type
REMARK                         _______ _______ _______ _____ _____    ______ ____
ROOT
ATOM      1  N   UNL     1       0.810   9.220   1.263  0.00  0.00    -0.255 N 
ATOM      2  C   UNL     1       1.724  10.016   1.866  0.00  0.00    +0.267 A 
ATOM      3  O   UNL     1       1.426  10.707   2.822  0.00  0.00    -0.267 OA
ATOM      4  C   UNL     1       3.087  10.020   1.319  0.00  0.00    +0.065 A 
ATOM      5  C   UNL     1       4.098  10.809   1.866  0.00  0.00    +0.015 A 
ATOM      6  C   UNL     1       5.350  10.775   1.317  0.00  0.00    +0.001 A 
ATOM      7  C   UNL     1       5.625   9.964   0.224  0.00  0.00    +0.002 A 
ATOM      8  C   UNL     1       4.653   9.180  -0.332  0.00  0.00    +0.028 A 
ATOM      9  C   UNL     1       3.363   9.193   0.206  0.00  0.00    +0.079 A 
ATOM     10  N   UNL     1       2.371   8.433  -0.313  0.00  0.00    -0.223 NA
ATOM     11  C   UNL     1       1.162   8.446   0.192  0.00  0.00    +0.177 A 
ENDROOT
BRANCH   1  16
ATOM     12  C   UNL     1      -4.519   9.079   3.208  0.00  0.00    +0.044 C 
ATOM     13  C   UNL     1      -3.104   9.117   2.691  0.00  0.00    -0.047 A 
ATOM     14  C   UNL     1      -2.161   8.241   3.198  0.00  0.00    +0.005 A 
ATOM     15  C   UNL     1      -0.865   8.270   2.723  0.00  0.00    +0.026 A 
ATOM     16  C   UNL     1      -0.506   9.186   1.743  0.00  0.00    +0.052 A 
ATOM     17  C   UNL     1      -1.455  10.063   1.236  0.00  0.00    +0.030 A 
ATOM     18  C   UNL     1      -2.751  10.027   1.712  0.00  0.00    -0.046 A 
ATOM     19  C   UNL     1      -3.782  10.979   1.163  0.00  0.00    +0.044 C 
ENDBRANCH   1  16
BRANCH  11  20
ATOM     20  S   UNL     1      -0.069   7.425  -0.547  0.00  0.00    -0.075 S 
BRANCH  20  21
ATOM     21  C   UNL     1       0.907   6.661  -1.866  0.00  0.00    +0.137 C 
ATOM     22  C   UNL     1       1.346   7.736  -2.863  0.00  0.00    +0.029 C 
BRANCH  21  23
ATOM     23  C   UNL     1       0.070   5.629  -2.577  0.00  0.00    +0.231 C 
ATOM     24  O   UNL     1      -1.140   5.719  -2.570  0.00  0.00    -0.274 OA
ATOM     25  N   UNL     1       0.665   4.605  -3.221  0.00  0.00    -0.267 N 
ATOM     26  C   UNL     1      -0.110   3.650  -3.879  0.00  0.00    +0.168 A 
ATOM     27  C   UNL     1      -1.527   3.613  -3.964  0.00  0.00    +0.091 A 
ATOM     28  C   UNL     1      -1.780   2.506  -4.699  0.00  0.00    +0.136 A 
ATOM     29  O   UNL     1      -0.591   1.966  -5.001  0.00  0.00    -0.358 OA
ATOM     30  N   UNL     1       0.323   2.609  -4.541  0.00  0.00    -0.063 NA
ATOM     31  C   UNL     1      -3.135   1.983  -5.100  0.00  0.00    +0.089 C 
ATOM     32  H   UNL     1       1.633   4.533  -3.226  0.00  0.00    +0.156 HD
ENDBRANCH  21  23
ENDBRANCH  20  21
ENDBRANCH  11  20
TORSDOF 4
