REMARK  Name = ZINC04320905
REMARK  4 active torsions:
REMARK  status: ('A' for Active; 'I' for Inactive)
REMARK    1  A    between atoms: C_1  and  O_2
REMARK    2  A    between atoms: O_2  and  C_3
REMARK    3  A    between atoms: C_6  and  C_12
REMARK    4  A    between atoms: C_8  and  N_9
REMARK                            x       y       z     vdW  Elec       q    Type
REMARK                         _______ _______ _______ _____ _____    ______ ____
ROOT
ATOM      1  C   UNL     1      -1.059   3.046   1.158  0.00  0.00    +0.105 C 
ATOM      2  C   UNL     1      -0.518   1.829   1.912  0.00  0.00    +0.029 C 
ATOM      3  C   UNL     1       0.497   2.338   2.974  0.00  0.00    +0.033 C 
ATOM      4  C   UNL     1       1.779   2.517   2.184  0.00  0.00    -0.030 C 
ATOM      5  C   UNL     1       1.747   1.801   1.088  0.00  0.00    -0.023 C 
ATOM      6  C   UNL     1       0.440   1.050   0.984  0.00  0.00    +0.049 C 
ATOM      7  C   UNL     1      -0.045   1.027  -0.436  0.00  0.00    -0.018 A 
ATOM      8  C   UNL     1       0.637   0.227  -1.344  0.00  0.00    +0.006 A 
ATOM      9  C   UNL     1       0.241   0.166  -2.664  0.00  0.00    +0.002 A 
ATOM     10  C   UNL     1      -0.845   0.906  -3.096  0.00  0.00    +0.022 A 
ATOM     11  C   UNL     1      -1.548   1.734  -2.184  0.00  0.00    +0.062 A 
ATOM     12  C   UNL     1      -1.143   1.784  -0.850  0.00  0.00    +0.050 A 
ATOM     13  N   UNL     1      -1.867   2.595   0.024  0.00  0.00    -0.335 N 
ATOM     14 CL   UNL     1      -2.915   2.667  -2.707  0.00  0.00    -0.082 Cl
ATOM     15  H   UNL     1      -2.705   2.130   0.340  0.00  0.00    +0.147 HD
ENDROOT
BRANCH   1  19
ATOM     16  C   UNL     1       2.206   5.406  -0.268  0.00  0.00    +0.150 A 
ATOM     17  C   UNL     1       1.551   4.535  -1.127  0.00  0.00    +0.048 A 
ATOM     18  C   UNL     1       0.496   3.773  -0.664  0.00  0.00    +0.009 A 
ATOM     19  C   UNL     1       0.093   3.878   0.655  0.00  0.00    -0.025 A 
ATOM     20  C   UNL     1       0.740   4.749   1.511  0.00  0.00    +0.042 A 
ATOM     21  C   UNL     1       1.800   5.509   1.054  0.00  0.00    +0.168 A 
BRANCH  21  22
ATOM     22  N   UNL     1       2.497   6.437   1.973  0.00  0.00    +0.060 N 
ATOM     23  O   UNL     1       2.139   6.527   3.134  0.00  0.00    -0.126 OA
ATOM     24  O   UNL     1       3.427   7.110   1.568  0.00  0.00    -0.126 OA
ENDBRANCH  21  22
BRANCH  16  26
ATOM     25  C   UNL     1       3.607   5.999  -2.095  0.00  0.00    +0.277 C 
ATOM     26  O   UNL     1       3.244   6.157  -0.722  0.00  0.00    -0.493 OA
ENDBRANCH  16  26
ENDBRANCH   1  19
TORSDOF 3
