REMARK  Name = ZINC35676039
REMARK  3 active torsions:
REMARK  status: ('A' for Active; 'I' for Inactive)
REMARK    1  A    between atoms: C_5  and  S_7
REMARK    2  A    between atoms: S_7  and  C_8
REMARK    3  A    between atoms: C_11  and  N_17
REMARK                            x       y       z     vdW  Elec       q    Type
REMARK                         _______ _______ _______ _____ _____    ______ ____
ROOT
ATOM      1  C   UNL     1      -0.415  -3.034  -0.050  0.00  0.00    +0.044 A 
ATOM      2  C   UNL     1      -1.453  -2.158  -0.135  0.00  0.00    +0.019 A 
ATOM      3  C   UNL     1      -2.784  -2.576  -0.159  0.00  0.00    +0.026 A 
ATOM      4  C   UNL     1      -3.139  -3.888  -0.100  0.00  0.00    +0.056 A 
ATOM      5  C   UNL     1      -2.097  -4.915  -0.007  0.00  0.00    +0.156 A 
ATOM      6  C   UNL     1      -0.688  -4.473   0.014  0.00  0.00    +0.150 A 
ATOM      7  N   UNL     1       0.072  -5.538   0.094  0.00  0.00    -0.048 NA
ATOM      8  O   UNL     1      -0.773  -6.676   0.122  0.00  0.00    -0.241 OA
ATOM      9  N   UNL     1      -2.115  -6.223   0.064  0.00  0.00    -0.047 NA
ENDROOT
BRANCH   4  10
ATOM     10  N   UNL     1      -4.487  -4.254  -0.128  0.00  0.00    -0.356 N 
ATOM     11  H   UNL     1      -5.173  -3.572  -0.189  0.00  0.00    +0.142 HD
ATOM     12  H   UNL     1      -4.736  -5.191  -0.086  0.00  0.00    +0.142 HD
ENDBRANCH   4  10
BRANCH   1  13
ATOM     13  S   UNL     1       1.244  -2.443  -0.023  0.00  0.00    -0.086 S 
BRANCH  13  18
ATOM     14  C   UNL     1       1.178  -3.116   3.942  0.00  0.00    +0.001 A 
ATOM     15  C   UNL     1       2.482  -2.846   4.316  0.00  0.00    +0.001 A 
ATOM     16  C   UNL     1       3.409  -2.453   3.369  0.00  0.00    +0.016 A 
ATOM     17  C   UNL     1       3.036  -2.329   2.044  0.00  0.00    +0.032 A 
ATOM     18  C   UNL     1       1.726  -2.600   1.665  0.00  0.00    +0.027 A 
ATOM     19  C   UNL     1       0.797  -2.994   2.620  0.00  0.00    +0.016 A 
ATOM     20 BR   UNL     1       4.305  -1.791   0.749  0.00  0.00    -0.049 Br
ENDBRANCH  13  18
ENDBRANCH   1  13
TORSDOF 3
