REMARK  Name = ZINC14106543
REMARK  5 active torsions:
REMARK  status: ('A' for Active; 'I' for Inactive)
REMARK    1  A    between atoms: C_1  and  N_2
REMARK    2  A    between atoms: N_9  and  C_12
REMARK    3  A    between atoms: C_12  and  C_13
REMARK    4  A    between atoms: C_13  and  O_15
REMARK    5  A    between atoms: O_15  and  C_16
REMARK                            x       y       z     vdW  Elec       q    Type
REMARK                         _______ _______ _______ _____ _____    ______ ____
ROOT
ATOM      1  C   UNL     1       2.040  -3.549  -1.454  0.00  0.00    +0.333 C 
ATOM      2  O   UNL     1       1.605  -2.893  -2.370  0.00  0.00    -0.248 OA
ENDROOT
BRANCH   1   3
ATOM      3  C   UNL     1       1.729  -3.158  -0.032  0.00  0.00    +0.247 C 
BRANCH   3  12
ATOM      4  C   UNL     1       0.363   1.622   0.014  0.00  0.00    +0.154 C 
ATOM      5  N   UNL     1       0.284   0.159  -0.008  0.00  0.00    -0.295 N 
ATOM      6  C   UNL     1      -0.887  -0.594  -0.038  0.00  0.00    +0.070 A 
ATOM      7  C   UNL     1      -2.233  -0.260  -0.055  0.00  0.00    +0.028 A 
ATOM      8  C   UNL     1      -3.188  -1.257  -0.085  0.00  0.00    +0.002 A 
ATOM      9  C   UNL     1      -2.807  -2.588  -0.098  0.00  0.00    +0.002 A 
ATOM     10  C   UNL     1      -1.470  -2.931  -0.080  0.00  0.00    +0.028 A 
ATOM     11  C   UNL     1      -0.503  -1.937  -0.051  0.00  0.00    +0.070 A 
ATOM     12  N   UNL     1       0.889  -1.958  -0.029  0.00  0.00    -0.281 N 
ATOM     13  C   UNL     1       1.332  -0.686  -0.009  0.00  0.00    +0.330 A 
ATOM     14  O   UNL     1       2.502  -0.352   0.009  0.00  0.00    -0.246 OA
ENDBRANCH   3  12
ENDBRANCH   1   3
BRANCH   1  15
ATOM     15  O   UNL     1       2.800  -4.628  -1.702  0.00  0.00    -0.424 OA
BRANCH  15  16
ATOM     16  C   UNL     1       2.969  -5.005  -2.997  0.00  0.00    +0.139 A 
ATOM     17  C   UNL     1       2.150  -5.948  -3.550  0.00  0.00    +0.048 A 
ATOM     18  C   UNL     1       2.310  -6.346  -4.875  0.00  0.00    +0.024 A 
ATOM     19  C   UNL     1       3.286  -5.806  -5.657  0.00  0.00    +0.049 A 
ATOM     20  C   UNL     1       4.149  -4.832  -5.125  0.00  0.00    +0.004 A 
ATOM     21  C   UNL     1       3.986  -4.421  -3.778  0.00  0.00    +0.026 A 
ATOM     22  C   UNL     1       4.845  -3.445  -3.248  0.00  0.00    +0.012 A 
ATOM     23  C   UNL     1       5.816  -2.903  -4.033  0.00  0.00    +0.001 A 
ATOM     24  C   UNL     1       5.973  -3.303  -5.359  0.00  0.00    +0.001 A 
ATOM     25  C   UNL     1       5.167  -4.255  -5.903  0.00  0.00    +0.010 A 
ATOM     26 CL   UNL     1       3.465  -6.320  -7.306  0.00  0.00    -0.083 Cl
ENDBRANCH  15  16
ENDBRANCH   1  15
TORSDOF 4
