REMARK  Name = ZINC09830713
REMARK  9 active torsions:
REMARK  status: ('A' for Active; 'I' for Inactive)
REMARK    1  A    between atoms: C_1  and  C_2
REMARK    2  A    between atoms: C_5  and  C_35
REMARK    3  A    between atoms: N_8  and  S_10
REMARK    4  A    between atoms: S_10  and  C_13
REMARK    5  A    between atoms: N_22  and  C_23
REMARK    6  A    between atoms: C_23  and  C_24
REMARK    7  A    between atoms: N_26  and  C_27
REMARK    8  A    between atoms: N_26  and  C_28
REMARK    9  A    between atoms: C_28  and  C_29
REMARK                            x       y       z     vdW  Elec       q    Type
REMARK                         _______ _______ _______ _____ _____    ______ ____
ROOT
ATOM      1  C   UNL     1       2.547  -3.268  -0.217  0.00  0.00    +0.109 A 
ATOM      2  C   UNL     1       2.077  -4.393  -0.873  0.00  0.00    +0.031 A 
ATOM      3  C   UNL     1       2.502  -4.677  -2.156  0.00  0.00    +0.031 A 
ATOM      4  C   UNL     1       3.401  -3.833  -2.787  0.00  0.00    +0.091 A 
ATOM      5  C   UNL     1       3.875  -2.699  -2.128  0.00  0.00    +0.159 A 
ATOM      6  C   UNL     1       3.439  -2.419  -0.842  0.00  0.00    +0.077 A 
ATOM      7  O   UNL     1       4.729  -2.069  -2.972  0.00  0.00    -0.407 OA
ATOM      8  C   UNL     1       4.803  -2.760  -4.120  0.00  0.00    +0.422 A 
ATOM      9  O   UNL     1       5.485  -2.456  -5.080  0.00  0.00    -0.223 OA
ATOM     10  N   UNL     1       4.006  -3.844  -4.044  0.00  0.00    -0.265 N 
ENDROOT
BRANCH   1  11
ATOM     11  S   UNL     1       1.999  -2.914   1.419  0.00  0.00    +0.061 S 
ATOM     12  O   UNL     1       2.998  -2.098   2.015  0.00  0.00    -0.153 OA
ATOM     13  O   UNL     1       1.587  -4.150   1.986  0.00  0.00    -0.153 OA
BRANCH  11  19
ATOM     14  C   UNL     1      -0.019   1.526   0.010  0.00  0.00    +0.009 C 
ATOM     15  C   UNL     1       0.002  -0.004   0.002  0.00  0.00    +0.002 C 
ATOM     16  C   UNL     1      -1.433  -0.534   0.015  0.00  0.00    +0.009 C 
ATOM     17  C   UNL     1      -1.414  -2.064  -0.027  0.00  0.00    +0.002 C 
ATOM     18  C   UNL     1      -0.692  -2.596   1.215  0.00  0.00    +0.112 C 
ATOM     19  N   UNL     1       0.639  -1.977   1.288  0.00  0.00    -0.176 NA
ATOM     20  C   UNL     1       0.742  -0.512   1.244  0.00  0.00    +0.112 C 
ATOM     21  C   UNL     1      -0.680  -2.532  -1.285  0.00  0.00    +0.009 C 
ENDBRANCH  11  19
ENDBRANCH   1  11
BRANCH  10  22
ATOM     22  C   UNL     1       3.809  -4.850  -5.091  0.00  0.00    +0.224 C 
BRANCH  22  23
ATOM     23  C   UNL     1       2.662  -4.437  -5.976  0.00  0.00    +0.236 C 
ATOM     24  O   UNL     1       2.067  -3.404  -5.754  0.00  0.00    -0.274 OA
ATOM     25  N   UNL     1       2.296  -5.215  -7.014  0.00  0.00    -0.299 N 
ATOM     26  C   UNL     1       3.015  -6.464  -7.281  0.00  0.00    +0.132 C 
BRANCH  25  27
ATOM     27  C   UNL     1       1.181  -4.814  -7.874  0.00  0.00    +0.142 C 
BRANCH  27  28
ATOM     28  C   UNL     1       1.702  -3.975  -9.013  0.00  0.00    -0.030 A 
ATOM     29  C   UNL     1       1.794  -2.603  -8.874  0.00  0.00    +0.005 A 
ATOM     30  C   UNL     1       2.272  -1.833  -9.919  0.00  0.00    +0.000 A 
ATOM     31  C   UNL     1       2.657  -2.436 -11.101  0.00  0.00    +0.000 A 
ATOM     32  C   UNL     1       2.566  -3.809 -11.239  0.00  0.00    +0.000 A 
ATOM     33  C   UNL     1       2.092  -4.578 -10.193  0.00  0.00    +0.005 A 
ENDBRANCH  27  28
ENDBRANCH  25  27
ENDBRANCH  22  23
ENDBRANCH  10  22
TORSDOF 6
