REMARK  Name = ZINC62476468
REMARK  4 active torsions:
REMARK  status: ('A' for Active; 'I' for Inactive)
REMARK    1  A    between atoms: C_7  and  C_9
REMARK    2  A    between atoms: C_9  and  N_10
REMARK    3  A    between atoms: C_16  and  N_19
REMARK    4  A    between atoms: C_20  and  C_22
REMARK                            x       y       z     vdW  Elec       q    Type
REMARK                         _______ _______ _______ _____ _____    ______ ____
ROOT
ATOM      1  N   UNL     1      -1.799  -6.087  -0.613  0.00  0.00    -0.294 N 
ATOM      2  C   UNL     1      -1.387  -5.309  -1.634  0.00  0.00    +0.303 C 
ATOM      3  O   UNL     1      -1.024  -4.168  -1.421  0.00  0.00    -0.253 OA
ATOM      4  N   UNL     1      -1.377  -5.796  -2.891  0.00  0.00    -0.286 N 
ATOM      5  C   UNL     1      -0.823  -5.003  -3.996  0.00  0.00    +0.111 C 
ATOM      6  C   UNL     1       0.229  -5.842  -4.727  0.00  0.00    +0.041 C 
ATOM      7  C   UNL     1      -0.394  -7.172  -5.158  0.00  0.00    +0.076 C 
ATOM      8  C   UNL     1      -0.856  -7.946  -3.921  0.00  0.00    +0.041 C 
ATOM      9  C   UNL     1      -1.915  -7.132  -3.180  0.00  0.00    +0.111 C 
ATOM     10  H   UNL     1      -2.158  -6.971  -0.791  0.00  0.00    +0.151 HD
ENDROOT
BRANCH   7  11
ATOM     11  N   UNL     1       0.601  -7.964  -5.885  0.00  0.00    -0.312 N 
ATOM     12  C   UNL     1       0.202  -8.895  -6.774  0.00  0.00    +0.216 C 
ATOM     13  O   UNL     1      -0.981  -9.077  -6.972  0.00  0.00    -0.276 OA
ATOM     14  H   UNL     1       1.547  -7.818  -5.728  0.00  0.00    +0.149 HD
BRANCH  12  15
ATOM     15  C   UNL     1       1.225  -9.710  -7.523  0.00  0.00    +0.075 C 
ATOM     16  C   UNL     1       2.120  -8.777  -8.341  0.00  0.00    +0.013 C 
ATOM     17  C   UNL     1       3.159  -9.604  -9.101  0.00  0.00    +0.001 C 
ATOM     18  C   UNL     1       2.446 -10.580 -10.040  0.00  0.00    +0.000 C 
ATOM     19  C   UNL     1       1.551 -11.513  -9.221  0.00  0.00    +0.001 C 
ATOM     20  C   UNL     1       0.512 -10.686  -8.461  0.00  0.00    +0.013 C 
ENDBRANCH  12  15
ENDBRANCH   7  11
BRANCH   1  21
ATOM     21  C   UNL     1      -1.705  -5.598   0.765  0.00  0.00    +0.162 C 
BRANCH  21  28
ATOM     22  C   UNL     1      -2.267  -9.411   3.991  0.00  0.00    +0.100 A 
ATOM     23  C   UNL     1      -3.364  -9.909   4.560  0.00  0.00    +0.067 A 
ATOM     24  S   UNL     1      -4.640  -8.862   3.878  0.00  0.00    -0.058 S 
ATOM     25  C   UNL     1      -3.592  -7.833   2.878  0.00  0.00    +0.178 A 
ATOM     26  N   UNL     1      -2.345  -8.345   3.122  0.00  0.00    -0.300 N 
ATOM     27  C   UNL     1      -1.484  -7.564   2.355  0.00  0.00    +0.118 A 
ATOM     28  C   UNL     1      -2.227  -6.651   1.708  0.00  0.00    +0.078 A 
ATOM     29  N   UNL     1      -3.513  -6.836   2.044  0.00  0.00    -0.225 NA
ENDBRANCH  21  28
ENDBRANCH   1  21
TORSDOF 4
