REMARK  Name = ZINC59932179
REMARK  12 active torsions:
REMARK  status: ('A' for Active; 'I' for Inactive)
REMARK    1  A    between atoms: C_1  and  C_2
REMARK    2  A    between atoms: C_3  and  S_8
REMARK    3  A    between atoms: C_4  and  C_7
REMARK    4  A    between atoms: S_8  and  N_11
REMARK    5  A    between atoms: C_17  and  C_19
REMARK    6  A    between atoms: C_19  and  N_20
REMARK    7  A    between atoms: N_20  and  C_21
REMARK    8  A    between atoms: N_20  and  C_22
REMARK    9  A    between atoms: C_25  and  C_28
REMARK   10  A    between atoms: C_28  and  C_29
REMARK   11  A    between atoms: C_28  and  C_30
REMARK   12  A    between atoms: C_28  and  C_31
REMARK                            x       y       z     vdW  Elec       q    Type
REMARK                         _______ _______ _______ _____ _____    ______ ____
ROOT
ATOM      1  N   UNL     1       1.570  -0.091  -3.285  0.00  0.00    -0.173 NA
ATOM      2  C   UNL     1       2.269   1.187  -3.093  0.00  0.00    +0.128 C 
ATOM      3  C   UNL     1       3.550   0.929  -2.288  0.00  0.00    +0.125 C 
ATOM      4  N   UNL     1       4.275  -0.189  -2.906  0.00  0.00    -0.298 N 
ATOM      5  C   UNL     1       3.575  -1.468  -3.098  0.00  0.00    +0.125 C 
ATOM      6  C   UNL     1       2.297  -1.211  -3.897  0.00  0.00    +0.128 C 
ATOM      7  C   UNL     1       5.559  -0.046  -3.290  0.00  0.00    +0.233 C 
ATOM      8  O   UNL     1       6.126   1.014  -3.127  0.00  0.00    -0.274 OA
ENDROOT
BRANCH   1   9
ATOM      9  S   UNL     1      -0.008  -0.267  -2.813  0.00  0.00    +0.066 S 
ATOM     10  O   UNL     1      -0.547  -1.328  -3.589  0.00  0.00    -0.153 OA
ATOM     11  O   UNL     1      -0.577   1.035  -2.802  0.00  0.00    -0.153 OA
BRANCH   9  14
ATOM     12  C   UNL     1      -0.018   1.503   0.010  0.00  0.00    +0.071 C 
ATOM     13  C   UNL     1       0.002  -0.004   0.002  0.00  0.00    +0.107 A 
ATOM     14  C   UNL     1       0.008  -0.824  -1.141  0.00  0.00    +0.170 A 
ATOM     15  C   UNL     1       0.027  -2.108  -0.735  0.00  0.00    +0.161 A 
ATOM     16  O   UNL     1       0.034  -2.119   0.606  0.00  0.00    -0.358 OA
ATOM     17  N   UNL     1       0.023  -0.775   1.052  0.00  0.00    -0.081 NA
ATOM     18  C   UNL     1       0.039  -3.320  -1.631  0.00  0.00    +0.091 C 
ENDBRANCH   9  14
ENDBRANCH   1   9
BRANCH   7  19
ATOM     19  C   UNL     1       6.290  -1.202  -3.923  0.00  0.00    +0.200 C 
BRANCH  19  20
ATOM     20  N   UNL     1       7.659  -0.795  -4.247  0.00  0.00    -0.324 N 
ATOM     21  C   UNL     1       8.730  -0.974  -3.264  0.00  0.00    +0.130 C 
BRANCH  20  22
ATOM     22  C   UNL     1       7.944  -0.235  -5.495  0.00  0.00    +0.030 A 
ATOM     23  C   UNL     1       6.929  -0.059  -6.427  0.00  0.00    +0.023 A 
ATOM     24  C   UNL     1       7.214   0.494  -7.660  0.00  0.00    +0.006 A 
ATOM     25  C   UNL     1       8.508   0.873  -7.967  0.00  0.00    -0.042 A 
ATOM     26  C   UNL     1       9.521   0.699  -7.042  0.00  0.00    +0.006 A 
ATOM     27  C   UNL     1       9.242   0.151  -5.805  0.00  0.00    +0.023 A 
BRANCH  25  28
ATOM     28  C   UNL     1       8.816   1.476  -9.314  0.00  0.00    -0.013 C 
ATOM     29  C   UNL     1       8.001   2.758  -9.496  0.00  0.00    +0.015 C 
ATOM     30  C   UNL     1      10.308   1.803  -9.397  0.00  0.00    +0.015 C 
ATOM     31  C   UNL     1       8.450   0.478 -10.415  0.00  0.00    +0.015 C 
ENDBRANCH  25  28
ENDBRANCH  20  22
ENDBRANCH  19  20
ENDBRANCH   7  19
TORSDOF 6
