REMARK  Name = ZINC07000843
REMARK  9 active torsions:
REMARK  status: ('A' for Active; 'I' for Inactive)
REMARK    1  A    between atoms: C_1  and  C_2
REMARK    2  A    between atoms: C_2  and  C_3
REMARK    3  A    between atoms: C_2  and  C_4
REMARK    4  A    between atoms: C_4  and  N_5
REMARK    5  A    between atoms: C_7  and  N_16
REMARK    6  A    between atoms: N_19  and  C_20
REMARK    7  A    between atoms: N_19  and  C_21
REMARK    8  A    between atoms: C_26  and  O_27
REMARK    9  A    between atoms: O_27  and  C_28
REMARK                            x       y       z     vdW  Elec       q    Type
REMARK                         _______ _______ _______ _____ _____    ______ ____
ROOT
ATOM      1  N   UNL     1      -2.083  -0.169   1.289  0.00  0.00    -0.313 N 
ATOM      2  C   UNL     1      -2.757   1.020   1.352  0.00  0.00    +0.113 A 
ATOM      3  C   UNL     1      -3.374   1.438   2.476  0.00  0.00    +0.059 A 
ATOM      4  C   UNL     1      -3.327   0.598   3.677  0.00  0.00    +0.010 A 
ATOM      5  C   UNL     1      -3.947   0.976   4.868  0.00  0.00    +0.010 A 
ATOM      6  C   UNL     1      -3.870   0.154   5.958  0.00  0.00    +0.001 A 
ATOM      7  C   UNL     1      -3.185  -1.053   5.893  0.00  0.00    +0.001 A 
ATOM      8  C   UNL     1      -2.569  -1.449   4.739  0.00  0.00    +0.014 A 
ATOM      9  C   UNL     1      -2.630  -0.630   3.611  0.00  0.00    +0.048 A 
ATOM     10  C   UNL     1      -1.995  -1.004   2.343  0.00  0.00    +0.259 A 
ATOM     11  O   UNL     1      -1.390  -2.057   2.245  0.00  0.00    -0.267 OA
ENDROOT
BRANCH   3  12
ATOM     12  N   UNL     1      -4.056   2.665   2.495  0.00  0.00    -0.267 N 
ATOM     13  C   UNL     1      -5.375   2.699   2.766  0.00  0.00    +0.311 C 
ATOM     14  O   UNL     1      -5.959   1.678   3.075  0.00  0.00    -0.252 OA
ATOM     15  N   UNL     1      -6.048   3.865   2.693  0.00  0.00    -0.255 N 
ATOM     16  C   UNL     1      -5.346   5.094   2.320  0.00  0.00    +0.140 C 
ATOM     17  H   UNL     1      -3.576   3.489   2.314  0.00  0.00    +0.156 HD
BRANCH  15  18
ATOM     18  C   UNL     1      -7.421   3.900   2.974  0.00  0.00    +0.081 A 
ATOM     19  C   UNL     1      -7.859   4.123   4.271  0.00  0.00    +0.047 A 
ATOM     20  C   UNL     1      -9.215   4.162   4.545  0.00  0.00    +0.043 A 
ATOM     21  C   UNL     1     -10.135   3.968   3.530  0.00  0.00    +0.024 A 
ATOM     22  C   UNL     1      -9.704   3.739   2.236  0.00  0.00    +0.049 A 
ATOM     23  C   UNL     1      -8.348   3.704   1.953  0.00  0.00    +0.142 A 
ATOM     24 CL   UNL     1      -9.762   4.449   6.167  0.00  0.00    -0.083 Cl
BRANCH  23  25
ATOM     25  O   UNL     1      -7.923   3.480   0.681  0.00  0.00    -0.493 OA
ATOM     26  C   UNL     1      -8.930   3.288  -0.315  0.00  0.00    +0.277 C 
ENDBRANCH  23  25
ENDBRANCH  15  18
ENDBRANCH   3  12
BRANCH   1  27
ATOM     27  C   UNL     1      -1.439  -0.551   0.029  0.00  0.00    +0.128 C 
BRANCH  27  29
ATOM     28  C   UNL     1      -0.027   1.510   0.003  0.00  0.00    +0.009 C 
ATOM     29  C   UNL     1      -0.005  -0.020   0.008  0.00  0.00    +0.003 C 
ATOM     30  C   UNL     1       0.707  -0.523  -1.250  0.00  0.00    +0.009 C 
ENDBRANCH  27  29
ENDBRANCH   1  27
TORSDOF 5
