REMARK  Name = ZINC13012508
REMARK  8 active torsions:
REMARK  status: ('A' for Active; 'I' for Inactive)
REMARK    1  A    between atoms: C_1  and  C_2
REMARK    2  A    between atoms: C_4  and  C_26
REMARK    3  A    between atoms: C_6  and  C_22
REMARK    4  A    between atoms: C_10  and  C_11
REMARK    5  A    between atoms: N_13  and  C_14
REMARK    6  A    between atoms: C_22  and  C_23
REMARK    7  A    between atoms: C_22  and  C_24
REMARK    8  A    between atoms: C_22  and  C_25
REMARK                            x       y       z     vdW  Elec       q    Type
REMARK                         _______ _______ _______ _____ _____    ______ ____
ROOT
ATOM      1  C   UNL     1      -0.001   1.137  -0.005  0.00  0.00    +0.046 C 
ATOM      2  C   UNL     1      -0.707   1.619   1.236  0.00  0.00    -0.020 A 
ATOM      3  C   UNL     1      -2.079   1.916   1.194  0.00  0.00    +0.032 A 
ATOM      4  C   UNL     1      -2.985   1.825   0.108  0.00  0.00    +0.050 A 
ATOM      5  N   UNL     1      -4.245   2.152   0.292  0.00  0.00    -0.236 NA
ATOM      6  C   UNL     1      -4.709   2.561   1.461  0.00  0.00    +0.136 A 
ATOM      7  N   UNL     1      -3.921   2.663   2.514  0.00  0.00    -0.224 NA
ATOM      8  C   UNL     1      -2.646   2.357   2.419  0.00  0.00    +0.113 A 
ATOM      9  S   UNL     1      -1.266   2.346   3.534  0.00  0.00    -0.064 S 
ATOM     10  C   UNL     1      -0.017   1.772   2.397  0.00  0.00    +0.079 A 
ATOM     11  C   UNL     1      -2.507   1.365  -1.245  0.00  0.00    +0.066 C 
ENDROOT
BRANCH  10  12
ATOM     12  C   UNL     1       1.410   1.525   2.653  0.00  0.00    +0.251 C 
ATOM     13  O   UNL     1       2.129   1.131   1.755  0.00  0.00    -0.270 OA
ATOM     14  N   UNL     1       1.920   1.736   3.882  0.00  0.00    -0.306 N 
ATOM     15  H   UNL     1       1.346   2.050   4.598  0.00  0.00    +0.149 HD
BRANCH  14  16
ATOM     16  C   UNL     1       3.342   1.490   4.137  0.00  0.00    +0.096 C 
ATOM     17  C   UNL     1       3.557   0.011   4.497  0.00  0.00    +0.046 C 
ATOM     18  C   UNL     1       4.978  -0.190   5.075  0.00  0.00    +0.168 C 
ATOM     19  S   UNL     1       5.346   1.449   5.823  0.00  0.00    -0.029 S 
ATOM     20  O   UNL     1       6.458   2.025   5.151  0.00  0.00    -0.174 OA
ATOM     21  O   UNL     1       5.377   1.316   7.238  0.00  0.00    -0.174 OA
ATOM     22  C   UNL     1       3.817   2.356   5.339  0.00  0.00    +0.188 C 
ENDBRANCH  14  16
ENDBRANCH  10  12
BRANCH   6  23
ATOM     23  C   UNL     1      -6.167   2.917   1.592  0.00  0.00    +0.022 C 
ATOM     24  C   UNL     1      -6.457   3.358   3.028  0.00  0.00    +0.019 C 
ATOM     25  C   UNL     1      -6.502   4.059   0.631  0.00  0.00    +0.019 C 
ATOM     26  C   UNL     1      -7.024   1.696   1.251  0.00  0.00    +0.019 C 
ENDBRANCH   6  23
TORSDOF 3
