REMARK  Name = ZINC02548729
REMARK  4 active torsions:
REMARK  status: ('A' for Active; 'I' for Inactive)
REMARK    1  A    between atoms: C_6  and  S_7
REMARK    2  A    between atoms: S_7  and  N_10
REMARK    3  A    between atoms: N_10  and  C_11
REMARK    4  A    between atoms: C_16  and  O_17
REMARK                            x       y       z     vdW  Elec       q    Type
REMARK                         _______ _______ _______ _____ _____    ______ ____
ROOT
ATOM      1  N   UNL     1      -1.948  -1.147  -1.567  0.00  0.00    -0.213 N 
ATOM      2  H   UNL     1      -2.760  -0.744  -1.911  0.00  0.00    +0.174 HD
ENDROOT
BRANCH   1   3
ATOM      3  C   UNL     1      -1.100  -1.855  -2.427  0.00  0.00    +0.091 A 
ATOM      4  C   UNL     1      -0.426  -2.978  -1.970  0.00  0.00    +0.048 A 
ATOM      5  C   UNL     1       0.411  -3.675  -2.822  0.00  0.00    +0.043 A 
ATOM      6  C   UNL     1       0.578  -3.255  -4.130  0.00  0.00    +0.024 A 
ATOM      7  C   UNL     1      -0.090  -2.135  -4.591  0.00  0.00    +0.049 A 
ATOM      8  C   UNL     1      -0.935  -1.435  -3.745  0.00  0.00    +0.139 A 
ATOM      9 CL   UNL     1       1.254  -5.081  -2.250  0.00  0.00    -0.083 Cl
BRANCH   8  10
ATOM     10  O   UNL     1      -1.597  -0.337  -4.199  0.00  0.00    -0.505 OA
ATOM     11  H   UNL     1      -1.112   0.491  -4.083  0.00  0.00    +0.292 HD
ENDBRANCH   8  10
ENDBRANCH   1   3
BRANCH   1  12
ATOM     12  S   UNL     1      -1.565  -1.000   0.037  0.00  0.00    +0.072 S 
ATOM     13  O   UNL     1      -1.342  -2.316   0.524  0.00  0.00    -0.150 OA
ATOM     14  O   UNL     1      -2.534  -0.131   0.608  0.00  0.00    -0.150 OA
BRANCH  12  20
ATOM     15  C   UNL     1       0.015   1.219   0.205  0.00  0.00    +0.030 A 
ATOM     16  C   UNL     1       1.228   1.878   0.277  0.00  0.00    +0.022 A 
ATOM     17  C   UNL     1       2.408   1.157   0.273  0.00  0.00    +0.041 A 
ATOM     18  C   UNL     1       2.374  -0.224   0.197  0.00  0.00    +0.022 A 
ATOM     19  C   UNL     1       1.160  -0.882   0.125  0.00  0.00    +0.030 A 
ATOM     20  C   UNL     1      -0.019  -0.161   0.129  0.00  0.00    +0.109 A 
ATOM     21 CL   UNL     1       3.932   1.984   0.363  0.00  0.00    -0.084 Cl
ENDBRANCH  12  20
ENDBRANCH   1  12
TORSDOF 4
