REMARK  Name = ZINC34955680
REMARK  4 active torsions:
REMARK  status: ('A' for Active; 'I' for Inactive)
REMARK    1  A    between atoms: C_1  and  C_2
REMARK    2  A    between atoms: C_7  and  C_22
REMARK    3  A    between atoms: N_9  and  S_10
REMARK    4  A    between atoms: S_10  and  C_13
REMARK                            x       y       z     vdW  Elec       q    Type
REMARK                         _______ _______ _______ _____ _____    ______ ____
ROOT
ATOM      1  S   UNL     1       1.660   0.565   2.077  0.00  0.00    +0.061 S 
ATOM      2  O   UNL     1       0.931   1.783   2.001  0.00  0.00    -0.153 OA
ATOM      3  O   UNL     1       1.954  -0.070   3.314  0.00  0.00    -0.153 OA
ENDROOT
BRANCH   1   4
ATOM      4  C   UNL     1       3.205   0.852   1.279  0.00  0.00    +0.106 A 
ATOM      5  C   UNL     1       4.260  -0.020   1.477  0.00  0.00    +0.030 A 
ATOM      6  C   UNL     1       5.469   0.201   0.855  0.00  0.00    +0.025 A 
ATOM      7  C   UNL     1       5.639   1.307   0.019  0.00  0.00    +0.031 A 
ATOM      8  C   UNL     1       4.575   2.175  -0.174  0.00  0.00    -0.023 A 
ATOM      9  C   UNL     1       3.363   1.946   0.449  0.00  0.00    +0.034 A 
ATOM     10  C   UNL     1       5.016   3.276  -1.112  0.00  0.00    +0.055 C 
ATOM     11  C   UNL     1       6.479   2.938  -1.444  0.00  0.00    +0.106 C 
ATOM     12  N   UNL     1       6.767   1.709  -0.699  0.00  0.00    -0.343 N 
ATOM     13  H   UNL     1       7.618   1.243  -0.703  0.00  0.00    +0.146 HD
ENDBRANCH   1   4
BRANCH   1  20
ATOM     14  C   UNL     1       0.104   1.410  -0.131  0.00  0.00    +0.026 C 
ATOM     15  C   UNL     1       0.093  -0.117  -0.035  0.00  0.00    +0.077 C 
ATOM     16  C   UNL     1      -1.351  -0.615   0.073  0.00  0.00    +0.020 C 
ATOM     17  C   UNL     1      -1.349  -2.127   0.309  0.00  0.00    +0.003 C 
ATOM     18  C   UNL     1      -0.630  -2.439   1.623  0.00  0.00    +0.020 C 
ATOM     19  C   UNL     1       0.822  -1.962   1.533  0.00  0.00    +0.077 C 
ATOM     20  N   UNL     1       0.833  -0.540   1.162  0.00  0.00    -0.171 NA
ATOM     21  C   UNL     1       1.564  -2.775   0.470  0.00  0.00    +0.026 C 
ENDBRANCH   1  20
TORSDOF 2
