REMARK  Name = ZINC06670551
REMARK  4 active torsions:
REMARK  status: ('A' for Active; 'I' for Inactive)
REMARK    1  A    between atoms: C_1  and  O_2
REMARK    2  A    between atoms: O_2  and  C_3
REMARK    3  A    between atoms: C_8  and  C_9
REMARK    4  A    between atoms: C_21  and  C_23
REMARK                            x       y       z     vdW  Elec       q    Type
REMARK                         _______ _______ _______ _____ _____    ______ ____
ROOT
ATOM      1  C   UNL     1       0.522  -2.881   1.026  0.00  0.00    +0.250 C 
ATOM      2  O   UNL     1       1.197  -2.457   1.944  0.00  0.00    -0.270 OA
ATOM      3  N   UNL     1       0.367  -4.210   0.862  0.00  0.00    -0.297 N 
ATOM      4  C   UNL     1       0.947  -5.155   1.825  0.00  0.00    +0.111 C 
ATOM      5  C   UNL     1      -0.164  -6.080   2.336  0.00  0.00    +0.056 C 
ATOM      6  C   UNL     1      -0.878  -6.718   1.152  0.00  0.00    +0.086 C 
ATOM      7  C   UNL     1      -1.490  -5.666   0.238  0.00  0.00    +0.056 C 
ATOM      8  C   UNL     1      -0.391  -4.738  -0.281  0.00  0.00    +0.111 C 
ATOM      9  N   UNL     1       0.021  -7.609   0.409  0.00  0.00    -0.286 N 
ATOM     10  C   UNL     1      -0.431  -8.991   0.259  0.00  0.00    +0.120 C 
ATOM     11  C   UNL     1      -1.287  -9.431   1.484  0.00  0.00    +0.090 C 
ATOM     12  S   UNL     1      -2.196  -7.844   1.763  0.00  0.00    -0.133 S 
ATOM     13  C   UNL     1       1.191  -7.179  -0.105  0.00  0.00    +0.220 C 
ATOM     14  O   UNL     1       1.455  -5.995  -0.103  0.00  0.00    -0.275 OA
ENDROOT
BRANCH   1  20
ATOM     15  C   UNL     1      -0.986  -0.946   0.576  0.00  0.00    +0.132 A 
ATOM     16  C   UNL     1      -1.585  -0.065  -0.311  0.00  0.00    +0.046 A 
ATOM     17  C   UNL     1      -1.340  -0.172  -1.665  0.00  0.00    +0.004 A 
ATOM     18  C   UNL     1      -0.495  -1.158  -2.149  0.00  0.00    +0.001 A 
ATOM     19  C   UNL     1       0.109  -2.042  -1.282  0.00  0.00    +0.017 A 
ATOM     20  C   UNL     1      -0.126  -1.941   0.092  0.00  0.00    +0.078 A 
BRANCH  15  22
ATOM     21  C   UNL     1      -2.114   0.196   2.327  0.00  0.00    +0.277 C 
ATOM     22  O   UNL     1      -1.226  -0.843   1.907  0.00  0.00    -0.494 OA
ENDBRANCH  15  22
ENDBRANCH   1  20
BRANCH  13  23
ATOM     23  C   UNL     1       2.170  -8.169  -0.680  0.00  0.00    +0.075 C 
ATOM     24  C   UNL     1       1.513  -8.923  -1.838  0.00  0.00    +0.013 C 
ATOM     25  C   UNL     1       2.507  -9.928  -2.423  0.00  0.00    +0.001 C 
ATOM     26  C   UNL     1       3.743  -9.185  -2.934  0.00  0.00    +0.000 C 
ATOM     27  C   UNL     1       4.401  -8.432  -1.775  0.00  0.00    +0.001 C 
ATOM     28  C   UNL     1       3.406  -7.426  -1.191  0.00  0.00    +0.013 C 
ENDBRANCH  13  23
TORSDOF 3
