REMARK  Name = ZINC35373337
REMARK  8 active torsions:
REMARK  status: ('A' for Active; 'I' for Inactive)
REMARK    1  A    between atoms: C_1  and  C_2
REMARK    2  A    between atoms: C_7  and  C_13
REMARK    3  A    between atoms: C_15  and  C_18
REMARK    4  A    between atoms: C_18  and  C_19
REMARK    5  A    between atoms: C_19  and  C_20
REMARK    6  A    between atoms: N_22  and  C_23
REMARK    7  A    between atoms: N_22  and  C_24
REMARK    8  A    between atoms: C_24  and  C_25
REMARK                            x       y       z     vdW  Elec       q    Type
REMARK                         _______ _______ _______ _____ _____    ______ ____
ROOT
ATOM      1  C   UNL     1       0.096  -6.354   1.140  0.00  0.00    +0.207 A 
ATOM      2  N   UNL     1       0.107  -7.134   2.237  0.00  0.00    -0.191 NA
ATOM      3  C   UNL     1       0.124  -8.389   1.892  0.00  0.00    +0.228 A 
ATOM      4  O   UNL     1       0.124  -8.463   0.555  0.00  0.00    -0.338 OA
ATOM      5  N   UNL     1       0.100  -7.126   0.079  0.00  0.00    -0.056 NA
ENDROOT
BRANCH   1  12
ATOM      6  C   UNL     1      -0.018   1.503   0.010  0.00  0.00    +0.044 C 
ATOM      7  C   UNL     1       0.002  -0.004   0.002  0.00  0.00    -0.048 A 
ATOM      8  C   UNL     1       0.006  -0.685  -1.208  0.00  0.00    +0.004 A 
ATOM      9  C   UNL     1       0.024  -2.049  -1.237  0.00  0.00    +0.010 A 
ATOM     10  C   UNL     1       0.040  -2.773  -0.035  0.00  0.00    -0.001 A 
ATOM     11  C   UNL     1       0.060  -4.191  -0.053  0.00  0.00    +0.027 A 
ATOM     12  C   UNL     1       0.075  -4.873   1.131  0.00  0.00    +0.087 A 
ATOM     13  C   UNL     1       0.072  -4.127   2.393  0.00  0.00    +0.260 A 
ATOM     14  N   UNL     1       0.052  -2.781   2.383  0.00  0.00    -0.322 N 
ATOM     15  C   UNL     1       0.037  -2.085   1.192  0.00  0.00    +0.049 A 
ATOM     16  C   UNL     1       0.023  -0.693   1.195  0.00  0.00    +0.029 A 
ATOM     17  O   UNL     1       0.086  -4.727   3.453  0.00  0.00    -0.267 OA
ATOM     18  H   UNL     1       0.050  -2.295   3.223  0.00  0.00    +0.169 HD
ENDBRANCH   1  12
BRANCH   3  19
ATOM     19  C   UNL     1       0.141  -9.562   2.839  0.00  0.00    +0.108 C 
BRANCH  19  20
ATOM     20  C   UNL     1      -1.295  -9.979   3.160  0.00  0.00    +0.105 C 
BRANCH  20  21
ATOM     21  C   UNL     1      -1.278 -11.151   4.107  0.00  0.00    +0.216 C 
ATOM     22  O   UNL     1      -0.221 -11.609   4.487  0.00  0.00    -0.276 OA
ATOM     23  N   UNL     1      -2.438 -11.692   4.531  0.00  0.00    -0.300 N 
ATOM     24  C   UNL     1      -3.715 -11.139   4.073  0.00  0.00    +0.132 C 
BRANCH  23  25
ATOM     25  C   UNL     1      -2.421 -12.832   5.451  0.00  0.00    +0.142 C 
BRANCH  25  26
ATOM     26  C   UNL     1      -2.426 -12.331   6.872  0.00  0.00    -0.030 A 
ATOM     27  C   UNL     1      -1.232 -12.079   7.521  0.00  0.00    +0.005 A 
ATOM     28  C   UNL     1      -1.237 -11.619   8.825  0.00  0.00    +0.000 A 
ATOM     29  C   UNL     1      -2.436 -11.410   9.479  0.00  0.00    +0.000 A 
ATOM     30  C   UNL     1      -3.631 -11.661   8.831  0.00  0.00    +0.000 A 
ATOM     31  C   UNL     1      -3.626 -12.117   7.526  0.00  0.00    +0.005 A 
ENDBRANCH  25  26
ENDBRANCH  23  25
ENDBRANCH  20  21
ENDBRANCH  19  20
ENDBRANCH   3  19
TORSDOF 6
