REMARK  Name = ZINC00154501
REMARK  2 active torsions:
REMARK  status: ('A' for Active; 'I' for Inactive)
REMARK    1  A    between atoms: C_10  and  C_14
REMARK    2  A    between atoms: C_11  and  N_13
REMARK                            x       y       z     vdW  Elec       q    Type
REMARK                         _______ _______ _______ _____ _____    ______ ____
ROOT
ATOM      1  C   UNL     1       0.002  -0.004   0.002  0.00  0.00    +0.019 A 
ATOM      2  C   UNL     1      -0.017   1.375   0.010  0.00  0.00    +0.048 A 
ATOM      3  C   UNL     1       1.177   2.088   0.002  0.00  0.00    +0.141 A 
ATOM      4  C   UNL     1       2.391   1.387  -0.013  0.00  0.00    +0.066 A 
ATOM      5  C   UNL     1       2.399  -0.006  -0.020  0.00  0.00    +0.030 A 
ATOM      6  C   UNL     1       1.204  -0.695  -0.013  0.00  0.00    +0.019 A 
ATOM      7 BR   UNL     1       1.206  -2.586  -0.023  0.00  0.00    -0.050 Br
ATOM      8  C   UNL     1       3.655   2.154  -0.021  0.00  0.00    +0.205 A 
ATOM      9  O   UNL     1       4.739   1.597  -0.034  0.00  0.00    -0.286 OA
ATOM     10  C   UNL     1       3.543   3.621  -0.013  0.00  0.00    +0.118 A 
ATOM     11  C   UNL     1       2.263   4.188   0.003  0.00  0.00    +0.198 A 
ATOM     12  O   UNL     1       1.159   3.438   0.009  0.00  0.00    -0.441 OA
ENDROOT
BRANCH  11  13
ATOM     13  N   UNL     1       2.141   5.543   0.011  0.00  0.00    -0.329 N 
ATOM     14  H   UNL     1       1.261   5.950   0.022  0.00  0.00    +0.145 HD
ATOM     15  H   UNL     1       2.934   6.102   0.007  0.00  0.00    +0.145 HD
ENDBRANCH  11  13
BRANCH  10  16
ATOM     16  C   UNL     1       4.697   4.437  -0.020  0.00  0.00    +0.267 C 
ATOM     17  O   UNL     1       5.800   3.928  -0.034  0.00  0.00    -0.295 OA
ENDBRANCH  10  16
TORSDOF 2
