REMARK  Name = ZINC64790049
REMARK  6 active torsions:
REMARK  status: ('A' for Active; 'I' for Inactive)
REMARK    1  A    between atoms: C_8  and  C_12
REMARK    2  A    between atoms: C_14  and  C_17
REMARK    3  A    between atoms: C_17  and  C_18
REMARK    4  A    between atoms: C_18  and  C_19
REMARK    5  A    between atoms: N_21  and  C_22
REMARK    6  A    between atoms: C_22  and  C_23
REMARK                            x       y       z     vdW  Elec       q    Type
REMARK                         _______ _______ _______ _____ _____    ______ ____
ROOT
ATOM      1  C   UNL     1       2.526  -4.225  -0.046  0.00  0.00    +0.207 A 
ATOM      2  N   UNL     1       3.649  -4.966  -0.056  0.00  0.00    -0.191 NA
ATOM      3  C   UNL     1       3.348  -6.233  -0.062  0.00  0.00    +0.228 A 
ATOM      4  O   UNL     1       2.014  -6.353  -0.055  0.00  0.00    -0.338 OA
ATOM      5  N   UNL     1       1.492  -5.032  -0.039  0.00  0.00    -0.056 NA
ENDROOT
BRANCH   1  13
ATOM      6  C   UNL     1      -0.016   1.361   0.009  0.00  0.00    +0.001 A 
ATOM      7  C   UNL     1       1.169   2.083   0.002  0.00  0.00    +0.002 A 
ATOM      8  C   UNL     1       2.385   1.436  -0.013  0.00  0.00    +0.026 A 
ATOM      9  C   UNL     1       2.431   0.044  -0.021  0.00  0.00    +0.049 A 
ATOM     10  C   UNL     1       1.228  -0.686  -0.013  0.00  0.00    -0.001 A 
ATOM     11  C   UNL     1       0.002  -0.004   0.002  0.00  0.00    +0.010 A 
ATOM     12  C   UNL     1       1.259  -2.103  -0.022  0.00  0.00    +0.027 A 
ATOM     13  C   UNL     1       2.466  -2.745  -0.038  0.00  0.00    +0.087 A 
ATOM     14  C   UNL     1       3.701  -1.956  -0.046  0.00  0.00    +0.260 A 
ATOM     15  N   UNL     1       3.645  -0.611  -0.037  0.00  0.00    -0.322 N 
ATOM     16  O   UNL     1       4.781  -2.519  -0.060  0.00  0.00    -0.267 OA
ATOM     17  H   UNL     1       4.467  -0.096  -0.042  0.00  0.00    +0.169 HD
ENDBRANCH   1  13
BRANCH   3  18
ATOM     18  C   UNL     1       4.334  -7.372  -0.073  0.00  0.00    +0.108 C 
BRANCH  18  19
ATOM     19  C   UNL     1       4.676  -7.766   1.365  0.00  0.00    +0.105 C 
BRANCH  19  20
ATOM     20  C   UNL     1       5.662  -8.905   1.353  0.00  0.00    +0.214 C 
ATOM     21  O   UNL     1       6.053  -9.358   0.298  0.00  0.00    -0.276 OA
ATOM     22  N   UNL     1       6.109  -9.421   2.515  0.00  0.00    -0.311 N 
ATOM     23  H   UNL     1       5.796  -9.059   3.359  0.00  0.00    +0.149 HD
BRANCH  22  24
ATOM     24  C   UNL     1       7.068 -10.529   2.504  0.00  0.00    +0.139 C 
BRANCH  24  25
ATOM     25  C   UNL     1       7.404 -10.916   3.921  0.00  0.00    -0.030 A 
ATOM     26  C   UNL     1       8.460 -10.306   4.572  0.00  0.00    +0.006 A 
ATOM     27  C   UNL     1       8.770 -10.662   5.872  0.00  0.00    +0.020 A 
ATOM     28  C   UNL     1       8.022 -11.628   6.521  0.00  0.00    +0.041 A 
ATOM     29  C   UNL     1       6.965 -12.238   5.869  0.00  0.00    +0.020 A 
ATOM     30  C   UNL     1       6.653 -11.878   4.571  0.00  0.00    +0.006 A 
ATOM     31 CL   UNL     1       8.410 -12.075   8.153  0.00  0.00    -0.084 Cl
ENDBRANCH  24  25
ENDBRANCH  22  24
ENDBRANCH  19  20
ENDBRANCH  18  19
ENDBRANCH   3  18
TORSDOF 6
