REMARK  Name = ZINC01010334
REMARK  10 active torsions:
REMARK  status: ('A' for Active; 'I' for Inactive)
REMARK    1  A    between atoms: C_1  and  N_2
REMARK    2  A    between atoms: N_2  and  C_3
REMARK    3  A    between atoms: N_2  and  N_4
REMARK    4  A    between atoms: C_7  and  C_14
REMARK    5  A    between atoms: C_9  and  C_12
REMARK    6  A    between atoms: C_10  and  N_11
REMARK    7  A    between atoms: C_17  and  O_22
REMARK    8  A    between atoms: C_18  and  O_20
REMARK    9  A    between atoms: O_20  and  C_21
REMARK   10  A    between atoms: C_26  and  C_29
REMARK                            x       y       z     vdW  Elec       q    Type
REMARK                         _______ _______ _______ _____ _____    ______ ____
ROOT
ATOM      1  N   UNL     1       2.435   6.930   0.066  0.00  0.00    -0.223 N 
ATOM      2  C   UNL     1       2.845   6.180  -1.003  0.00  0.00    +0.037 C 
ATOM      3  C   UNL     1       2.607   4.852  -1.044  0.00  0.00    +0.026 C 
ATOM      4  C   UNL     1       1.871   4.162   0.077  0.00  0.00    +0.098 C 
ATOM      5  C   UNL     1       1.868   5.003   1.320  0.00  0.00    +0.078 C 
ATOM      6  C   UNL     1       2.142   6.332   1.269  0.00  0.00    +0.117 C 
ATOM      7  C   UNL     1       3.039   4.072  -2.130  0.00  0.00    +0.162 C 
ATOM      8  O   UNL     1       2.802   2.880  -2.139  0.00  0.00    -0.292 OA
ATOM      9  C   UNL     1       3.788   4.684  -3.282  0.00  0.00    +0.088 C 
ATOM     10  C   UNL     1       4.558   5.911  -2.781  0.00  0.00    +0.032 C 
ATOM     11  C   UNL     1       3.564   6.876  -2.133  0.00  0.00    +0.061 C 
ENDROOT
BRANCH   4  12
ATOM     12  C   UNL     1       0.449   3.906  -0.349  0.00  0.00    -0.031 A 
ATOM     13  C   UNL     1      -0.380   4.968  -0.659  0.00  0.00    +0.008 A 
ATOM     14  C   UNL     1      -1.686   4.738  -1.052  0.00  0.00    +0.049 A 
ATOM     15  C   UNL     1      -2.164   3.440  -1.140  0.00  0.00    +0.158 A 
ATOM     16  C   UNL     1      -1.331   2.372  -0.822  0.00  0.00    +0.162 A 
ATOM     17  C   UNL     1      -0.024   2.609  -0.430  0.00  0.00    +0.054 A 
BRANCH  16  18
ATOM     18  O   UNL     1      -1.798   1.097  -0.902  0.00  0.00    -0.491 OA
ATOM     19  C   UNL     1      -0.885   0.050  -0.567  0.00  0.00    +0.277 C 
ENDBRANCH  16  18
BRANCH  15  20
ATOM     20  O   UNL     1      -3.447   3.212  -1.531  0.00  0.00    -0.503 OA
ATOM     21  H   UNL     1      -3.825   2.182  -1.601  0.00  0.00    +0.292 HD
ENDBRANCH  15  20
ENDBRANCH   4  12
BRANCH  10  22
ATOM     22  C   UNL     1       5.239   6.589  -3.941  0.00  0.00    -0.044 A 
ATOM     23  C   UNL     1       4.490   7.071  -4.998  0.00  0.00    +0.004 A 
ATOM     24  C   UNL     1       5.115   7.697  -6.060  0.00  0.00    +0.000 A 
ATOM     25  C   UNL     1       6.490   7.833  -6.070  0.00  0.00    +0.000 A 
ATOM     26  C   UNL     1       7.241   7.347  -5.015  0.00  0.00    +0.000 A 
ATOM     27  C   UNL     1       6.615   6.724  -3.951  0.00  0.00    +0.004 A 
ENDBRANCH  10  22
BRANCH   1  29
ATOM     28  C   UNL     1       0.981   8.738   0.347  0.00  0.00    +0.128 C 
ATOM     29  N   UNL     1       2.317   8.285  -0.063  0.00  0.00    -0.227 NA
ATOM     30  C   UNL     1       3.364   8.980   0.696  0.00  0.00    +0.128 C 
ENDBRANCH   1  29
BRANCH   6  31
ATOM     31  N   UNL     1       2.126   7.081   2.421  0.00  0.00    -0.344 N 
ATOM     32  H   UNL     1       1.891   6.604   3.384  0.00  0.00    +0.144 HD
ATOM     33  H   UNL     1       2.348   8.158   2.380  0.00  0.00    +0.144 HD
ENDBRANCH   6  31
BRANCH   5  34
ATOM     34  C   UNL     1       1.573   4.393   2.582  0.00  0.00    +0.099 C 
ATOM     35  N   UNL     1       1.338   3.909   3.583  0.00  0.00    -0.191 NA
ENDBRANCH   5  34
TORSDOF 7
