REMARK  Name = ZINC02136030
REMARK  7 active torsions:
REMARK  status: ('A' for Active; 'I' for Inactive)
REMARK    1  A    between atoms: C_1  and  C_2
REMARK    2  A    between atoms: C_2  and  C_3
REMARK    3  A    between atoms: C_17  and  C_19
REMARK    4  A    between atoms: C_19  and  C_20
REMARK    5  A    between atoms: C_20  and  S_21
REMARK    6  A    between atoms: S_21  and  C_22
REMARK    7  A    between atoms: N_25  and  C_28
REMARK                            x       y       z     vdW  Elec       q    Type
REMARK                         _______ _______ _______ _____ _____    ______ ____
ROOT
ATOM      1  C   UNL     1       2.485   1.413  -0.015  0.00  0.00    -0.026 A 
ATOM      2  C   UNL     1       3.456   2.393  -0.019  0.00  0.00    +0.005 A 
ATOM      3  C   UNL     1       3.099   3.729  -0.008  0.00  0.00    +0.001 A 
ATOM      4  C   UNL     1       1.761   4.084   0.008  0.00  0.00    +0.004 A 
ATOM      5  C   UNL     1       0.789   3.109   0.012  0.00  0.00    -0.027 A 
ATOM      6  C   UNL     1       1.137   1.761   0.001  0.00  0.00    +0.039 A 
ATOM      7  N   UNL     1      -0.011   0.966   0.007  0.00  0.00    -0.286 N 
ATOM      8  C   UNL     1      -1.139   1.702   0.016  0.00  0.00    +0.211 C 
ATOM      9  O   UNL     1      -2.277   1.284   0.019  0.00  0.00    -0.277 OA
ATOM     10  C   UNL     1      -0.713   3.145   0.026  0.00  0.00    +0.050 C 
ATOM     11  C   UNL     1      -1.248   3.884   1.258  0.00  0.00    +0.088 C 
ATOM     12  C   UNL     1      -2.515   4.627   0.751  0.00  0.00    +0.073 C 
ATOM     13  C   UNL     1      -2.629   4.241  -0.739  0.00  0.00    -0.057 C 
ATOM     14  C   UNL     1      -3.636   3.945   1.534  0.00  0.00    +0.224 C 
ATOM     15  O   UNL     1      -4.814   4.218   1.447  0.00  0.00    -0.275 OA
ATOM     16  N   UNL     1      -3.117   3.006   2.333  0.00  0.00    -0.239 N 
ATOM     17  C   UNL     1      -1.787   2.886   2.259  0.00  0.00    +0.225 C 
ATOM     18  O   UNL     1      -1.118   2.100   2.894  0.00  0.00    -0.275 OA
ATOM     19  H   UNL     1       0.002  -0.004   0.002  0.00  0.00    +0.155 HD
ATOM     20  N   UNL     1      -1.264   3.860  -1.111  0.00  0.00    +0.394 N 
ATOM     21  H   UNL     1      -1.279   3.253  -1.939  0.00  0.00    -0.083 HD
ATOM     22  H   UNL     1      -0.704   4.697  -1.310  0.00  0.00    -0.083 HD
ENDROOT
BRANCH  16  23
ATOM     23  C   UNL     1      -3.939   2.177   3.219  0.00  0.00    +0.084 C 
ATOM     24  C   UNL     1      -4.993   1.409   2.395  0.00  0.00    +0.023 C 
ATOM     25  C   UNL     1      -6.251   1.404   3.300  0.00  0.00    +0.002 C 
ATOM     26  C   UNL     1      -6.213   2.811   3.947  0.00  0.00    +0.002 C 
ATOM     27  C   UNL     1      -4.714   3.068   4.205  0.00  0.00    +0.023 C 
ENDBRANCH  16  23
BRANCH   1  29
ATOM     28  C   UNL     1       2.885  -0.557  -1.468  0.00  0.00    +0.009 C 
ATOM     29  C   UNL     1       2.885  -0.040  -0.028  0.00  0.00    +0.033 C 
ENDBRANCH   1  29
BRANCH  13  30
ATOM     30  C   UNL     1      -3.122   5.434  -1.562  0.00  0.00    -0.004 C 
BRANCH  30  31
ATOM     31  C   UNL     1      -3.346   4.996  -3.010  0.00  0.00    +0.067 C 
BRANCH  31  32
ATOM     32  S   UNL     1      -3.931   6.410  -3.985  0.00  0.00    -0.164 S 
ATOM     33  C   UNL     1      -4.146   5.734  -5.654  0.00  0.00    +0.084 C 
ENDBRANCH  31  32
ENDBRANCH  30  31
ENDBRANCH  13  30
TORSDOF 5
