REMARK  Name = ZINC12885243
REMARK  7 active torsions:
REMARK  status: ('A' for Active; 'I' for Inactive)
REMARK    1  A    between atoms: C_1  and  C_2
REMARK    2  A    between atoms: C_2  and  N_3
REMARK    3  A    between atoms: C_4  and  C_6
REMARK    4  A    between atoms: C_6  and  C_8
REMARK    5  A    between atoms: C_6  and  N_9
REMARK    6  A    between atoms: C_17  and  C_19
REMARK    7  A    between atoms: C_19  and  N_59
REMARK                            x       y       z     vdW  Elec       q    Type
REMARK                         _______ _______ _______ _____ _____    ______ ____
ROOT
ATOM      1  N   UNL     1      -2.103   1.072   1.277  0.00  0.00    -0.317 N 
ATOM      2  C   UNL     1      -3.098   1.757   0.603  0.00  0.00    +0.131 A 
ATOM      3  C   UNL     1      -4.413   1.219   0.518  0.00  0.00    +0.051 A 
ATOM      4  C   UNL     1      -4.927  -0.036   1.068  0.00  0.00    -0.025 A 
ATOM      5  C   UNL     1      -6.226  -0.316   0.842  0.00  0.00    -0.004 A 
ATOM      6  S   UNL     1      -6.837   1.054  -0.103  0.00  0.00    -0.073 S 
ATOM      7  C   UNL     1      -5.342   2.004  -0.193  0.00  0.00    +0.114 A 
ATOM      8  N   UNL     1      -5.000   3.156  -0.736  0.00  0.00    -0.227 NA
ATOM      9  C   UNL     1      -3.764   3.604  -0.623  0.00  0.00    +0.116 A 
ATOM     10  N   UNL     1      -2.842   2.924   0.034  0.00  0.00    -0.219 NA
ATOM     11  C   UNL     1      -6.986  -1.526   1.294  0.00  0.00    +0.043 C 
ATOM     12  C   UNL     1      -5.976  -2.592   1.745  0.00  0.00    +0.005 C 
ATOM     13  C   UNL     1      -4.949  -1.934   2.671  0.00  0.00    +0.005 C 
ATOM     14  C   UNL     1      -4.049  -0.997   1.865  0.00  0.00    +0.037 C 
ATOM     15  H   UNL     1      -2.276   0.183   1.624  0.00  0.00    +0.148 HD
ENDROOT
BRANCH   1  16
ATOM     16  C   UNL     1      -0.788   1.690   1.467  0.00  0.00    +0.155 C 
ATOM     17  C   UNL     1       0.077   1.436   0.231  0.00  0.00    +0.038 C 
BRANCH  16  19
ATOM     18  N   UNL     1       1.105   1.508   3.049  0.00  0.00    -0.314 N 
ATOM     19  C   UNL     1      -0.122   1.090   2.679  0.00  0.00    +0.233 C 
ATOM     20  O   UNL     1      -0.690   0.232   3.320  0.00  0.00    -0.274 OA
ATOM     21  H   UNL     1       1.558   2.195   2.536  0.00  0.00    +0.149 HD
BRANCH  18  23
ATOM     22  C   UNL     1       3.126   1.571   4.425  0.00  0.00    +0.024 C 
ATOM     23  C   UNL     1       1.752   0.926   4.227  0.00  0.00    +0.101 C 
ENDBRANCH  18  23
ENDBRANCH  16  19
ENDBRANCH   1  16
BRANCH   9  24
ATOM     24  C   UNL     1      -3.398   4.924  -1.252  0.00  0.00    -0.001 C 
BRANCH  24  30
ATOM     25  C   UNL     1      -5.052   6.146   0.027  0.00  0.00    -0.078 C 
ATOM     26  C   UNL     1      -5.234   7.179   1.141  0.00  0.00    -0.019 C 
ATOM     27  C   UNL     1      -4.659   8.522   0.684  0.00  0.00    -0.004 C 
ATOM     28  C   UNL     1      -3.183   8.339   0.320  0.00  0.00    -0.019 C 
ATOM     29  C   UNL     1      -3.060   7.272  -0.771  0.00  0.00    -0.078 C 
ATOM     30  N   UNL     1      -3.609   5.998  -0.259  0.00  0.00    +0.384 N 
ATOM     31  H   UNL     1      -3.121   5.750   0.609  0.00  0.00    -0.081 HD
ENDBRANCH  24  30
ENDBRANCH   9  24
TORSDOF 5
