REMARK  Name = ZINC05309727
REMARK  5 active torsions:
REMARK  status: ('A' for Active; 'I' for Inactive)
REMARK    1  A    between atoms: C_1  and  C_2
REMARK    2  A    between atoms: C_2  and  C_4
REMARK    3  A    between atoms: C_2  and  S_16
REMARK    4  A    between atoms: C_4  and  C_6
REMARK    5  A    between atoms: S_16  and  C_17
REMARK                            x       y       z     vdW  Elec       q    Type
REMARK                         _______ _______ _______ _____ _____    ______ ____
ROOT
ATOM      1  C   UNL     1      -0.019   1.526   0.010  0.00  0.00    +0.028 C 
ATOM      2  C   UNL     1       0.002  -0.004   0.002  0.00  0.00    +0.122 C 
ENDROOT
BRANCH   2   3
ATOM      3  C   UNL     1       0.707  -0.490  -1.238  0.00  0.00    +0.178 C 
ATOM      4  O   UNL     1       0.066  -0.782  -2.226  0.00  0.00    -0.291 OA
BRANCH   3   5
ATOM      5  C   UNL     1       2.120  -0.606  -1.250  0.00  0.00    +0.043 A 
ATOM      6  C   UNL     1       2.983  -0.322  -0.213  0.00  0.00    +0.095 A 
ATOM      7  N   UNL     1       4.251  -0.555  -0.603  0.00  0.00    -0.360 N 
ATOM      8  H   UNL     1       5.032  -0.427  -0.043  0.00  0.00    +0.165 HD
ATOM      9  C   UNL     1       4.285  -1.003  -1.908  0.00  0.00    +0.047 A 
ATOM     10  C   UNL     1       2.962  -1.063  -2.373  0.00  0.00    +0.010 A 
ATOM     11  C   UNL     1       2.695  -1.491  -3.670  0.00  0.00    +0.011 A 
ATOM     12  C   UNL     1       3.736  -1.860  -4.495  0.00  0.00    +0.001 A 
ATOM     13  C   UNL     1       5.044  -1.805  -4.037  0.00  0.00    +0.002 A 
ATOM     14  C   UNL     1       5.323  -1.375  -2.757  0.00  0.00    +0.026 A 
ENDBRANCH   3   5
ENDBRANCH   2   3
BRANCH   2  15
ATOM     15  S   UNL     1      -1.700  -0.632   0.015  0.00  0.00    -0.075 S 
BRANCH  15  16
ATOM     16  C   UNL     1      -2.335  -0.110   1.573  0.00  0.00    +0.192 A 
ATOM     17  N   UNL     1      -3.596  -0.363   2.031  0.00  0.00    -0.219 NA
ATOM     18  C   UNL     1      -3.697   0.212   3.287  0.00  0.00    +0.112 A 
ATOM     19  C   UNL     1      -4.707   0.294   4.234  0.00  0.00    +0.053 A 
ATOM     20  C   UNL     1      -4.444   0.971   5.415  0.00  0.00    +0.061 A 
ATOM     21  C   UNL     1      -3.196   1.540   5.612  0.00  0.00    +0.133 A 
ATOM     22  N   UNL     1      -2.251   1.451   4.699  0.00  0.00    -0.233 NA
ATOM     23  C   UNL     1      -2.453   0.812   3.548  0.00  0.00    +0.181 A 
ATOM     24  N   UNL     1      -1.665   0.575   2.469  0.00  0.00    -0.201 NA
ATOM     25 CL   UNL     1      -5.669   1.106   6.638  0.00  0.00    -0.082 Cl
ENDBRANCH  15  16
ENDBRANCH   2  15
TORSDOF 4
