REMARK  Name = ZINC05011595
REMARK  8 active torsions:
REMARK  status: ('A' for Active; 'I' for Inactive)
REMARK    1  A    between atoms: C_1  and  O_2
REMARK    2  A    between atoms: O_2  and  C_3
REMARK    3  A    between atoms: C_5  and  C_13
REMARK    4  A    between atoms: C_6  and  O_11
REMARK    5  A    between atoms: C_8  and  O_9
REMARK    6  A    between atoms: O_9  and  C_10
REMARK    7  A    between atoms: O_11  and  C_12
REMARK    8  A    between atoms: N_23  and  C_24
REMARK                            x       y       z     vdW  Elec       q    Type
REMARK                         _______ _______ _______ _____ _____    ______ ____
ROOT
ATOM      1  C   UNL     1       2.372   0.353  -4.229  0.00  0.00    +0.063 C 
ATOM      2  N   UNL     1       1.644   1.633  -4.358  0.00  0.00    +0.403 N 
ATOM      3  C   UNL     1       0.204   1.405  -4.088  0.00  0.00    -0.075 C 
ATOM      4  C   UNL     1      -0.496   2.481  -4.955  0.00  0.00    -0.020 C 
ATOM      5  C   UNL     1       0.372   2.513  -6.234  0.00  0.00    -0.008 C 
ATOM      6  C   UNL     1       1.737   1.937  -5.813  0.00  0.00    +0.023 C 
ATOM      7  C   UNL     1       1.931   0.591  -6.475  0.00  0.00    +0.205 C 
ATOM      8  O   UNL     1       1.792   0.359  -7.658  0.00  0.00    -0.277 OA
ATOM      9  N   UNL     1       2.287  -0.308  -5.536  0.00  0.00    -0.282 N 
ATOM     10  H   UNL     1       2.040   2.362  -3.784  0.00  0.00    -0.077 HD
ENDROOT
BRANCH   9  11
ATOM     11  C   UNL     1       2.536  -1.665  -5.770  0.00  0.00    +0.035 A 
ATOM     12  C   UNL     1       3.023  -2.470  -4.748  0.00  0.00    +0.025 A 
ATOM     13  C   UNL     1       3.268  -3.809  -4.982  0.00  0.00    +0.022 A 
ATOM     14  C   UNL     1       3.028  -4.349  -6.234  0.00  0.00    +0.041 A 
ATOM     15  C   UNL     1       2.543  -3.549  -7.254  0.00  0.00    +0.022 A 
ATOM     16  C   UNL     1       2.291  -2.211  -7.023  0.00  0.00    +0.025 A 
ATOM     17 CL   UNL     1       3.338  -6.032  -6.525  0.00  0.00    -0.084 Cl
ENDBRANCH   9  11
BRANCH   1  20
ATOM     18  C   UNL     1       0.147  -2.200  -2.554  0.00  0.00    +0.162 A 
ATOM     19  C   UNL     1       0.742  -1.410  -3.524  0.00  0.00    +0.056 A 
ATOM     20  C   UNL     1       1.726  -0.504  -3.172  0.00  0.00    +0.002 A 
ATOM     21  C   UNL     1       2.119  -0.385  -1.847  0.00  0.00    +0.127 A 
ATOM     22  C   UNL     1       1.526  -1.174  -0.873  0.00  0.00    +0.095 A 
ATOM     23  C   UNL     1       0.536  -2.078  -1.224  0.00  0.00    +0.165 A 
BRANCH  18  25
ATOM     24  C   UNL     1      -1.170  -3.163  -4.285  0.00  0.00    +0.277 C 
ATOM     25  O   UNL     1      -0.821  -3.091  -2.901  0.00  0.00    -0.491 OA
ENDBRANCH  18  25
BRANCH  23  26
ATOM     26  O   UNL     1      -0.052  -2.848  -0.269  0.00  0.00    -0.491 OA
ATOM     27  C   UNL     1       0.397  -2.669   1.076  0.00  0.00    +0.277 C 
ENDBRANCH  23  26
BRANCH  21  28
ATOM     28  O   UNL     1       3.087   0.506  -1.503  0.00  0.00    -0.495 OA
ATOM     29  C   UNL     1       3.520   0.500  -0.142  0.00  0.00    +0.277 C 
ENDBRANCH  21  28
ENDBRANCH   1  20
TORSDOF 5
