REMARK  Name = ZINC35069160
REMARK  14 active torsions:
REMARK  status: ('A' for Active; 'I' for Inactive)
REMARK    1  A    between atoms: C_1  and  C_2
REMARK    2  A    between atoms: C_2  and  C_3
REMARK    3  A    between atoms: C_3  and  C_4
REMARK    4  A    between atoms: N_6  and  C_7
REMARK    5  A    between atoms: N_6  and  C_12
REMARK    6  A    between atoms: C_7  and  C_8
REMARK    7  A    between atoms: C_8  and  N_9
REMARK    8  A    between atoms: N_9  and  C_10
REMARK    9  A    between atoms: N_9  and  C_11
REMARK   10  A    between atoms: C_12  and  C_14
REMARK   11  A    between atoms: C_12  and  C_15
REMARK   12  A    between atoms: N_25  and  C_26
REMARK   13  A    between atoms: C_29  and  C_33
REMARK   14  A    between atoms: C_30  and  C_32
REMARK                            x       y       z     vdW  Elec       q    Type
REMARK                         _______ _______ _______ _____ _____    ______ ____
ROOT
ATOM      1  C   UNL     1       3.188  -0.690   2.922  0.00  0.00    +0.138 A 
ATOM      2  N   UNL     1       3.275  -0.361   1.669  0.00  0.00    -0.231 NA
ATOM      3  C   UNL     1       4.183   0.547   1.233  0.00  0.00    +0.078 A 
ATOM      4  C   UNL     1       4.276   0.900  -0.115  0.00  0.00    +0.028 A 
ATOM      5  C   UNL     1       5.213   1.827  -0.514  0.00  0.00    +0.002 A 
ATOM      6  C   UNL     1       6.068   2.417   0.408  0.00  0.00    +0.001 A 
ATOM      7  C   UNL     1       5.995   2.084   1.743  0.00  0.00    +0.015 A 
ATOM      8  C   UNL     1       5.054   1.149   2.168  0.00  0.00    +0.065 A 
ATOM      9  C   UNL     1       4.930   0.756   3.579  0.00  0.00    +0.266 A 
ATOM     10  O   UNL     1       5.650   1.237   4.435  0.00  0.00    -0.267 OA
ATOM     11  N   UNL     1       3.981  -0.157   3.891  0.00  0.00    -0.263 N 
ENDROOT
BRANCH  11  12
ATOM     12  C   UNL     1       3.817  -0.562   5.221  0.00  0.00    +0.051 A 
ATOM     13  C   UNL     1       4.147  -1.857   5.600  0.00  0.00    +0.026 A 
ATOM     14  C   UNL     1       3.986  -2.253   6.913  0.00  0.00    +0.005 A 
ATOM     15  C   UNL     1       3.496  -1.362   7.851  0.00  0.00    -0.047 A 
ATOM     16  C   UNL     1       3.166  -0.072   7.477  0.00  0.00    -0.046 A 
ATOM     17  C   UNL     1       3.331   0.332   6.166  0.00  0.00    +0.030 A 
ATOM     18  C   UNL     1       2.632   0.895   8.501  0.00  0.00    +0.044 C 
ATOM     19  C   UNL     1       3.321  -1.797   9.283  0.00  0.00    +0.044 C 
ENDBRANCH  11  12
BRANCH   1  20
ATOM     20  C   UNL     1       2.151  -1.707   3.325  0.00  0.00    +0.139 C 
ATOM     21  C   UNL     1       1.246  -1.113   4.405  0.00  0.00    +0.036 C 
BRANCH  20  24
ATOM     22  C   UNL     1       0.549  -1.151   1.575  0.00  0.00    +0.216 C 
ATOM     23  O   UNL     1      -0.179  -1.471   0.659  0.00  0.00    -0.276 OA
ATOM     24  N   UNL     1       1.344  -2.070   2.157  0.00  0.00    -0.293 N 
BRANCH  22  25
ATOM     25  C   UNL     1       0.564   0.275   2.062  0.00  0.00    +0.096 C 
BRANCH  25  27
ATOM     26  C   UNL     1      -0.238   2.596   1.603  0.00  0.00    +0.004 C 
ATOM     27  C   UNL     1      -0.254   1.148   1.109  0.00  0.00    +0.006 C 
ENDBRANCH  25  27
ENDBRANCH  22  25
BRANCH  24  28
ATOM     28  C   UNL     1       1.402  -3.433   1.623  0.00  0.00    +0.090 C 
BRANCH  28  29
ATOM     29  C   UNL     1       2.505  -3.521   0.567  0.00  0.00    -0.060 C 
BRANCH  29  30
ATOM     30  N   UNL     1       2.563  -4.887   0.030  0.00  0.00    +0.377 N 
ATOM     31  C   UNL     1       1.315  -5.185  -0.686  0.00  0.00    -0.097 C 
ATOM     32  C   UNL     1       3.698  -5.003  -0.895  0.00  0.00    -0.097 C 
ATOM     33  H   UNL     1       2.679  -5.542   0.789  0.00  0.00    -0.083 HD
ENDBRANCH  29  30
ENDBRANCH  28  29
ENDBRANCH  24  28
ENDBRANCH  20  24
ENDBRANCH   1  20
TORSDOF 8
