REMARK  Name = ZINC49099083
REMARK  5 active torsions:
REMARK  status: ('A' for Active; 'I' for Inactive)
REMARK    1  A    between atoms: C_1  and  C_2
REMARK    2  A    between atoms: C_3  and  C_20
REMARK    3  A    between atoms: N_7  and  S_8
REMARK    4  A    between atoms: S_8  and  C_11
REMARK    5  A    between atoms: C_13  and  C_17
REMARK                            x       y       z     vdW  Elec       q    Type
REMARK                         _______ _______ _______ _____ _____    ______ ____
ROOT
ATOM      1  S   UNL     1       3.739  -2.321  -0.031  0.00  0.00    +0.103 S 
ATOM      2  O   UNL     1       3.925  -1.656  -1.273  0.00  0.00    -0.146 OA
ATOM      3  O   UNL     1       3.938  -1.671   1.218  0.00  0.00    -0.146 OA
ENDROOT
BRANCH   1  10
ATOM      4  C   UNL     1      -0.018   1.503   0.010  0.00  0.00    +0.064 C 
ATOM      5  C   UNL     1       0.002  -0.004   0.002  0.00  0.00    +0.025 A 
ATOM      6  C   UNL     1      -1.144  -0.684   0.004  0.00  0.00    +0.009 A 
ATOM      7  S   UNL     1      -0.577  -2.377  -0.009  0.00  0.00    -0.053 S 
ATOM      8  C   UNL     1       1.179  -2.046  -0.016  0.00  0.00    +0.192 A 
ATOM      9  N   UNL     1       1.194  -0.668  -0.013  0.00  0.00    -0.336 N 
ATOM     10  N   UNL     1       2.183  -2.888  -0.026  0.00  0.00    -0.103 NA
ATOM     11  C   UNL     1      -2.557  -0.159   0.016  0.00  0.00    +0.053 C 
ATOM     12  H   UNL     1       2.033  -0.181  -0.019  0.00  0.00    +0.168 HD
ENDBRANCH   1  10
BRANCH   1  13
ATOM     13  C   UNL     1       4.804  -3.724  -0.045  0.00  0.00    +0.134 A 
ATOM     14  C   UNL     1       5.621  -3.966  -1.120  0.00  0.00    +0.053 A 
ATOM     15  C   UNL     1       6.421  -5.099  -1.027  0.00  0.00    +0.103 A 
ATOM     16  S   UNL     1       5.962  -5.741   0.572  0.00  0.00    -0.073 S 
ATOM     17  C   UNL     1       4.833  -4.578   1.012  0.00  0.00    +0.082 A 
ATOM     18 BR   UNL     1       3.828  -4.481   2.611  0.00  0.00    -0.040 Br
BRANCH  15  19
ATOM     19  C   UNL     1       7.357  -5.610  -1.959  0.00  0.00    +0.393 C 
ATOM     20  O   UNL     1       7.544  -5.028  -3.021  0.00  0.00    -0.240 OA
ATOM     21  O   UNL     1       7.979  -6.634  -1.704  0.00  0.00    -0.240 OA
ENDBRANCH  15  19
ENDBRANCH   1  13
TORSDOF 3
