REMARK  Name = ZINC43323651
REMARK  4 active torsions:
REMARK  status: ('A' for Active; 'I' for Inactive)
REMARK    1  A    between atoms: C_1  and  C_2
REMARK    2  A    between atoms: C_2  and  C_3
REMARK    3  A    between atoms: N_12  and  C_13
REMARK    4  A    between atoms: C_16  and  C_20
REMARK                            x       y       z     vdW  Elec       q    Type
REMARK                         _______ _______ _______ _____ _____    ______ ____
ROOT
ATOM      1  C   UNL     1      -1.671  -0.658   0.536  0.00  0.00    +0.006 C 
ATOM      2  C   UNL     1      -1.578  -2.180   0.402  0.00  0.00    +0.006 C 
ATOM      3  C   UNL     1      -2.976  -2.760   0.178  0.00  0.00    +0.019 C 
ATOM      4  C   UNL     1      -3.558  -2.194  -1.122  0.00  0.00    +0.109 C 
ATOM      5  N   UNL     1      -3.516  -0.727  -1.059  0.00  0.00    -0.285 N 
ATOM      6  C   UNL     1      -2.238  -0.068  -0.759  0.00  0.00    +0.112 C 
ATOM      7  C   UNL     1      -4.630   0.001  -1.273  0.00  0.00    +0.307 C 
ATOM      8  O   UNL     1      -4.604   1.208  -1.127  0.00  0.00    -0.252 OA
ATOM      9  N   UNL     1      -5.772  -0.608  -1.648  0.00  0.00    -0.267 N 
ATOM     10  H   UNL     1      -5.810  -1.576  -1.701  0.00  0.00    +0.156 HD
ENDROOT
BRANCH   9  11
ATOM     11  C   UNL     1      -6.903   0.156  -1.962  0.00  0.00    +0.070 A 
ATOM     12  C   UNL     1      -6.772   1.507  -2.249  0.00  0.00    +0.026 A 
ATOM     13  C   UNL     1      -7.889   2.259  -2.558  0.00  0.00    +0.005 A 
ATOM     14  C   UNL     1      -9.139   1.666  -2.581  0.00  0.00    -0.048 A 
ATOM     15  C   UNL     1      -9.275   0.320  -2.295  0.00  0.00    +0.043 A 
ATOM     16  C   UNL     1      -8.160  -0.439  -1.991  0.00  0.00    +0.145 A 
ATOM     17  F   UNL     1      -8.291  -1.755  -1.717  0.00  0.00    -0.204 F 
ATOM     18  C   UNL     1     -10.355   2.490  -2.918  0.00  0.00    +0.044 C 
ENDBRANCH   9  11
BRANCH   1  20
ATOM     19  C   UNL     1      -0.386   1.422   1.049  0.00  0.00    +0.004 C 
ATOM     20  C   UNL     1      -0.277  -0.082   0.793  0.00  0.00    +0.002 C 
ENDBRANCH   1  20
TORSDOF 2
