REMARK  Name = ZINC48565995
REMARK  6 active torsions:
REMARK  status: ('A' for Active; 'I' for Inactive)
REMARK    1  A    between atoms: C_1  and  C_2
REMARK    2  A    between atoms: C_5  and  C_7
REMARK    3  A    between atoms: C_7  and  C_9
REMARK    4  A    between atoms: C_7  and  N_10
REMARK    5  A    between atoms: N_10  and  C_11
REMARK    6  A    between atoms: N_16  and  C_21
REMARK                            x       y       z     vdW  Elec       q    Type
REMARK                         _______ _______ _______ _____ _____    ______ ____
ROOT
ATOM      1  N   UNL     1       2.125  -4.165  -1.009  0.00  0.00    -0.310 N 
ATOM      2  C   UNL     1       3.350  -3.404  -0.755  0.00  0.00    +0.131 C 
ATOM      3  C   UNL     1       2.025  -4.956  -2.137  0.00  0.00    +0.136 A 
ATOM      4  C   UNL     1       3.044  -4.959  -3.109  0.00  0.00    +0.078 A 
ATOM      5  C   UNL     1       4.280  -4.293  -3.253  0.00  0.00    +0.148 A 
ATOM      6  N   UNL     1       4.829  -4.679  -4.370  0.00  0.00    -0.177 NA
ATOM      7  N   UNL     1       3.995  -5.605  -5.010  0.00  0.00    -0.249 N 
ATOM      8  C   UNL     1       2.886  -5.787  -4.238  0.00  0.00    +0.163 A 
ATOM      9  N   UNL     1       1.786  -6.530  -4.341  0.00  0.00    -0.216 NA
ATOM     10  C   UNL     1       0.861  -6.493  -3.407  0.00  0.00    +0.225 A 
ATOM     11  N   UNL     1       0.967  -5.737  -2.328  0.00  0.00    -0.220 NA
ATOM     12  C   UNL     1       4.267  -6.264  -6.290  0.00  0.00    +0.174 C 
ENDROOT
BRANCH   1  13
ATOM     13  C   UNL     1       1.006  -4.087  -0.067  0.00  0.00    +0.108 C 
ATOM     14  C   UNL     1       1.497  -4.439   1.339  0.00  0.00    +0.033 C 
BRANCH  13  19
ATOM     15  C   UNL     1      -0.156   1.457  -0.032  0.00  0.00    +0.051 C 
ATOM     16  C   UNL     1      -0.108  -0.049  -0.051  0.00  0.00    -0.013 A 
ATOM     17  C   UNL     1      -1.133  -0.935  -0.101  0.00  0.00    +0.011 A 
ATOM     18  C   UNL     1      -0.849  -2.288  -0.110  0.00  0.00    +0.013 A 
ATOM     19  C   UNL     1       0.445  -2.688  -0.068  0.00  0.00    +0.010 A 
ATOM     20  S   UNL     1       1.313  -1.129  -0.020  0.00  0.00    -0.097 S 
ENDBRANCH  13  19
ENDBRANCH   1  13
TORSDOF 2
