REMARK  Name = ZINC25171575
REMARK  6 active torsions:
REMARK  status: ('A' for Active; 'I' for Inactive)
REMARK    1  A    between atoms: C_1  and  C_2
REMARK    2  A    between atoms: C_2  and  C_3
REMARK    3  A    between atoms: C_2  and  C_4
REMARK    4  A    between atoms: C_4  and  C_6
REMARK    5  A    between atoms: C_4  and  N_22
REMARK    6  A    between atoms: C_23  and  C_25
REMARK                            x       y       z     vdW  Elec       q    Type
REMARK                         _______ _______ _______ _____ _____    ______ ____
ROOT
ATOM      1  C   UNL     1      -0.945   3.003  -1.239  0.00  0.00    +0.162 C 
ENDROOT
BRANCH   1   2
ATOM      2  C   UNL     1      -0.919   1.527  -0.934  0.00  0.00    +0.236 C 
ATOM      3  O   UNL     1      -1.912   0.978  -0.506  0.00  0.00    -0.274 OA
ATOM      4  N   UNL     1       0.209   0.817  -1.137  0.00  0.00    -0.297 N 
ATOM      5  C   UNL     1       1.369   1.430  -1.799  0.00  0.00    +0.127 C 
ATOM      6  C   UNL     1       2.592   1.274  -0.886  0.00  0.00    +0.128 C 
ATOM      7  N   UNL     1       2.682  -0.128  -0.455  0.00  0.00    -0.282 N 
ATOM      8  C   UNL     1       1.521  -0.740   0.207  0.00  0.00    +0.128 C 
ATOM      9  C   UNL     1       0.298  -0.585  -0.706  0.00  0.00    +0.127 C 
ATOM     10  C   UNL     1       3.807  -0.839  -0.663  0.00  0.00    +0.305 C 
ATOM     11  O   UNL     1       3.779  -2.053  -0.604  0.00  0.00    -0.252 OA
ATOM     12  N   UNL     1       4.965  -0.205  -0.934  0.00  0.00    -0.285 N 
ATOM     13  C   UNL     1       5.112   1.232  -0.665  0.00  0.00    +0.109 C 
ATOM     14  C   UNL     1       6.358   1.440   0.208  0.00  0.00    +0.019 C 
ATOM     15  C   UNL     1       7.568   0.803  -0.479  0.00  0.00    +0.003 C 
ATOM     16  C   UNL     1       7.335  -0.702  -0.633  0.00  0.00    +0.019 C 
ATOM     17  C   UNL     1       6.101  -0.935  -1.512  0.00  0.00    +0.109 C 
ENDBRANCH   1   2
BRANCH   1  18
ATOM     18  N   UNL     1      -1.788   3.689  -0.257  0.00  0.00    -0.300 N 
ATOM     19  C   UNL     1      -1.588   4.995   0.007  0.00  0.00    +0.250 C 
ATOM     20  O   UNL     1      -0.707   5.604  -0.569  0.00  0.00    -0.270 OA
ATOM     21  H   UNL     1      -2.585   3.138   0.265  0.00  0.00    +0.150 HD
BRANCH  19  22
ATOM     22  C   UNL     1      -2.437   5.687   0.996  0.00  0.00    +0.107 A 
ATOM     23  C   UNL     1      -2.066   5.715   2.345  0.00  0.00    +0.138 A 
ATOM     24  C   UNL     1      -2.865   6.369   3.264  0.00  0.00    +0.039 A 
ATOM     25  C   UNL     1      -4.033   6.986   2.855  0.00  0.00    +0.006 A 
ATOM     26  C   UNL     1      -4.410   6.959   1.525  0.00  0.00    +0.039 A 
ATOM     27  C   UNL     1      -3.621   6.313   0.592  0.00  0.00    +0.138 A 
ATOM     28  F   UNL     1      -3.991   6.287  -0.707  0.00  0.00    -0.205 F 
ATOM     29  F   UNL     1      -0.928   5.108   2.747  0.00  0.00    -0.205 F 
ENDBRANCH  19  22
ENDBRANCH   1  18
BRANCH   1  31
ATOM     30  C   UNL     1      -1.425   4.708  -3.001  0.00  0.00    +0.009 C 
ATOM     31  C   UNL     1      -1.514   3.223  -2.642  0.00  0.00    +0.012 C 
ATOM     32  C   UNL     1      -0.707   2.406  -3.653  0.00  0.00    +0.009 C 
ENDBRANCH   1  31
TORSDOF 4
