REMARK  Name = ZINC63818714
REMARK  3 active torsions:
REMARK  status: ('A' for Active; 'I' for Inactive)
REMARK    1  A    between atoms: C_1  and  N_2
REMARK    2  A    between atoms: C_10  and  C_11
REMARK    3  A    between atoms: N_13  and  C_14
REMARK                            x       y       z     vdW  Elec       q    Type
REMARK                         _______ _______ _______ _____ _____    ______ ____
ROOT
ATOM      1  C   UNL     1       0.209  -4.598   1.175  0.00  0.00    +0.249 C 
ATOM      2  O   UNL     1       0.333  -4.868  -0.005  0.00  0.00    -0.270 OA
ATOM      3  N   UNL     1       0.088  -5.587   2.083  0.00  0.00    -0.282 N 
ATOM      4  H   UNL     1       0.063  -5.376   3.029  0.00  0.00    +0.155 HD
ENDROOT
BRANCH   1  14
ATOM      5  C   UNL     1       0.471   1.440  -0.028  0.00  0.00    +0.149 C 
ATOM      6  N   UNL     1       0.439  -0.025  -0.025  0.00  0.00    -0.350 N 
ATOM      7  C   UNL     1       0.544  -0.814  -1.135  0.00  0.00    +0.086 A 
ATOM      8  C   UNL     1       0.478  -2.111  -0.783  0.00  0.00    +0.028 A 
ATOM      9  C   UNL     1       0.318  -2.151   0.668  0.00  0.00    +0.012 A 
ATOM     10  C   UNL     1       0.304  -0.812   1.097  0.00  0.00    +0.050 A 
ATOM     11  C   UNL     1       0.168  -0.528   2.451  0.00  0.00    +0.026 A 
ATOM     12  C   UNL     1       0.050  -1.553   3.369  0.00  0.00    +0.003 A 
ATOM     13  C   UNL     1       0.065  -2.875   2.962  0.00  0.00    +0.014 A 
ATOM     14  C   UNL     1       0.192  -3.191   1.611  0.00  0.00    +0.046 A 
ENDBRANCH   1  14
BRANCH   3  15
ATOM     15  C   UNL     1      -0.001  -6.918   1.660  0.00  0.00    +0.032 C 
ATOM     16  C   UNL     1       0.899  -7.802   2.124  0.00  0.00    +0.027 C 
ATOM     17  C   UNL     1       0.779  -9.242   1.721  0.00  0.00    +0.160 C 
ATOM     18  C   UNL     1       0.096  -9.286   0.367  0.00  0.00    -0.018 C 
ATOM     19  C   UNL     1       0.855 -10.095  -0.392  0.00  0.00    +0.025 C 
ATOM     20  C   UNL     1       2.033 -10.429   0.312  0.00  0.00    +0.106 C 
ATOM     21  N   UNL     1       2.046  -9.930   1.517  0.00  0.00    -0.279 NA
ATOM     22  C   UNL     1      -1.010  -8.472   0.053  0.00  0.00    +0.008 C 
ATOM     23  C   UNL     1      -1.074  -7.288   0.735  0.00  0.00    +0.023 C 
ENDBRANCH   3  15
TORSDOF 2
