REMARK  Name = ZINC01409493
REMARK  3 active torsions:
REMARK  status: ('A' for Active; 'I' for Inactive)
REMARK    1  A    between atoms: C_1  and  C_2
REMARK    2  A    between atoms: C_10  and  C_11
REMARK    3  A    between atoms: N_13  and  C_20
REMARK                            x       y       z     vdW  Elec       q    Type
REMARK                         _______ _______ _______ _____ _____    ______ ____
ROOT
ATOM      1  C   UNL     1      -0.018   1.503   0.010  0.00  0.00    +0.109 C 
ATOM      2  C   UNL     1       0.002  -0.004   0.002  0.00  0.00    +0.215 C 
ATOM      3  O   UNL     1       1.060  -0.596  -0.011  0.00  0.00    -0.276 OA
ATOM      4  N   UNL     1      -1.156  -0.694   0.009  0.00  0.00    -0.267 N 
ATOM      5  C   UNL     1      -1.137  -2.072   0.002  0.00  0.00    +0.158 C 
ATOM      6  N   UNL     1      -0.081  -2.856  -0.007  0.00  0.00    -0.154 NA
ATOM      7  C   UNL     1      -0.182  -4.172  -0.013  0.00  0.00    +0.276 C 
ATOM      8  O   UNL     1       0.786  -4.916  -0.021  0.00  0.00    -0.267 OA
ATOM      9  C   UNL     1      -1.576  -4.662  -0.010  0.00  0.00    +0.079 C 
ATOM     10  C   UNL     1      -2.053  -5.939  -0.014  0.00  0.00    +0.030 C 
ATOM     11  S   UNL     1      -2.459  -3.110   0.009  0.00  0.00    -0.051 S 
ATOM     12  H   UNL     1      -2.002  -0.220   0.020  0.00  0.00    +0.157 HD
ENDROOT
BRANCH  10  13
ATOM     13  C   UNL     1      -3.494  -6.180  -0.009  0.00  0.00    +0.001 A 
ATOM     14  C   UNL     1      -4.492  -5.230  -0.006  0.00  0.00    +0.094 A 
ATOM     15  N   UNL     1      -5.701  -5.843  -0.002  0.00  0.00    -0.349 N 
ATOM     16  C   UNL     1      -5.548  -7.215  -0.002  0.00  0.00    +0.049 A 
ATOM     17  C   UNL     1      -4.172  -7.491  -0.013  0.00  0.00    +0.007 A 
ATOM     18  C   UNL     1      -3.724  -8.809  -0.022  0.00  0.00    +0.010 A 
ATOM     19  C   UNL     1      -4.638  -9.841  -0.023  0.00  0.00    +0.001 A 
ATOM     20  C   UNL     1      -5.998  -9.570  -0.016  0.00  0.00    +0.002 A 
ATOM     21  C   UNL     1      -6.455  -8.270   0.001  0.00  0.00    +0.026 A 
ATOM     22  C   UNL     1      -6.990  -5.147   0.002  0.00  0.00    +0.149 C 
ENDBRANCH  10  13
TORSDOF 1
