REMARK  Name = ZINC39582705
REMARK  1 active torsions:
REMARK  status: ('A' for Active; 'I' for Inactive)
REMARK    1  A    between atoms: C_16  and  C_20
REMARK                            x       y       z     vdW  Elec       q    Type
REMARK                         _______ _______ _______ _____ _____    ______ ____
ROOT
ATOM      1  C   UNL     1      -0.017   1.382   0.010  0.00  0.00    +0.000 A 
ATOM      2  C   UNL     1       1.167   2.102   0.002  0.00  0.00    +0.001 A 
ATOM      3  C   UNL     1       2.380   1.447   0.010  0.00  0.00    +0.008 A 
ATOM      4  C   UNL     1       2.404   0.044   0.012  0.00  0.00    -0.017 A 
ATOM      5  C   UNL     1       1.207  -0.669  -0.020  0.00  0.00    -0.040 A 
ATOM      6  C   UNL     1       0.002  -0.004   0.002  0.00  0.00    +0.004 A 
ATOM      7  C   UNL     1       1.233  -2.184  -0.143  0.00  0.00    +0.036 C 
ATOM      8  C   UNL     1       1.776  -2.783   1.150  0.00  0.00    +0.006 C 
ATOM      9  C   UNL     1       3.292  -2.886   1.124  0.00  0.00    +0.019 C 
ATOM     10  C   UNL     1       4.013  -1.575   1.273  0.00  0.00    +0.084 C 
ATOM     11  C   UNL     1       3.691  -0.668   0.081  0.00  0.00    -0.012 C 
ATOM     12  C   UNL     1       4.657  -0.620  -0.889  0.00  0.00    +0.075 C 
ATOM     13  C   UNL     1       5.942  -1.305  -0.624  0.00  0.00    +0.112 C 
ATOM     14  N   UNL     1       6.891  -1.394  -1.526  0.00  0.00    -0.226 NA
ATOM     15  C   UNL     1       6.686  -0.792  -2.697  0.00  0.00    +0.138 C 
ATOM     16  N   UNL     1       5.620  -0.105  -3.017  0.00  0.00    -0.160 NA
ATOM     17  C   UNL     1       4.558   0.074  -2.209  0.00  0.00    +0.272 C 
ATOM     18  O   UNL     1       3.592   0.748  -2.528  0.00  0.00    -0.268 OA
ATOM     19  S   UNL     1       5.823  -1.833   1.057  0.00  0.00    -0.097 S 
ENDROOT
BRANCH  15  20
ATOM     20  C   UNL     1       7.771  -0.913  -3.737  0.00  0.00    +0.182 C 
ATOM     21 CL   UNL     1       7.276  -0.026  -5.227  0.00  0.00    -0.117 Cl
ENDBRANCH  15  20
TORSDOF 1
