REMARK  Name = ZINC09418695
REMARK  6 active torsions:
REMARK  status: ('A' for Active; 'I' for Inactive)
REMARK    1  A    between atoms: C_1  and  O_2
REMARK    2  A    between atoms: O_2  and  C_3
REMARK    3  A    between atoms: C_8  and  C_9
REMARK    4  A    between atoms: N_11  and  C_12
REMARK    5  A    between atoms: C_12  and  C_25
REMARK    6  A    between atoms: N_15  and  C_19
REMARK                            x       y       z     vdW  Elec       q    Type
REMARK                         _______ _______ _______ _____ _____    ______ ____
ROOT
ATOM      1  C   UNL     1      -0.367  -4.998   0.972  0.00  0.00    +0.278 C 
ATOM      2  C   UNL     1       0.391  -4.657   2.239  0.00  0.00    +0.274 C 
ATOM      3  O   UNL     1       0.434  -3.583   2.800  0.00  0.00    -0.271 OA
ATOM      4  N   UNL     1       1.008  -5.795   2.613  0.00  0.00    -0.219 N 
ATOM      5  C   UNL     1       0.747  -6.798   1.767  0.00  0.00    +0.311 C 
ATOM      6  O   UNL     1       1.191  -7.923   1.895  0.00  0.00    -0.252 OA
ATOM      7  N   UNL     1      -0.061  -6.424   0.759  0.00  0.00    -0.263 N 
ATOM      8  H   UNL     1      -0.380  -6.983   0.033  0.00  0.00    +0.153 HD
ENDROOT
BRANCH   4   9
ATOM      9  C   UNL     1       1.859  -5.919   3.799  0.00  0.00    +0.086 C 
ATOM     10  C   UNL     1       3.267  -6.341   3.375  0.00  0.00    +0.023 C 
ATOM     11  C   UNL     1       4.156  -6.471   4.613  0.00  0.00    +0.002 C 
ATOM     12  C   UNL     1       3.569  -7.524   5.554  0.00  0.00    +0.000 C 
ATOM     13  C   UNL     1       2.161  -7.102   5.979  0.00  0.00    +0.002 C 
ATOM     14  C   UNL     1       1.272  -6.973   4.740  0.00  0.00    +0.023 C 
ENDBRANCH   4   9
BRANCH   1  17
ATOM     15  C   UNL     1       0.174  -2.851  -0.045  0.00  0.00    +0.250 C 
ATOM     16  O   UNL     1      -0.264  -2.302   0.947  0.00  0.00    -0.270 OA
ATOM     17  N   UNL     1       0.118  -4.194  -0.152  0.00  0.00    -0.276 N 
ATOM     18  H   UNL     1       0.400  -4.627  -0.973  0.00  0.00    +0.152 HD
BRANCH  15  24
ATOM     19  C   UNL     1       0.827  -0.653  -1.026  0.00  0.00    +0.132 A 
ATOM     20  C   UNL     1       1.391   0.091  -2.051  0.00  0.00    +0.046 A 
ATOM     21  C   UNL     1       1.886  -0.541  -3.174  0.00  0.00    +0.004 A 
ATOM     22  C   UNL     1       1.823  -1.921  -3.286  0.00  0.00    +0.001 A 
ATOM     23  C   UNL     1       1.266  -2.675  -2.277  0.00  0.00    +0.017 A 
ATOM     24  C   UNL     1       0.767  -2.049  -1.132  0.00  0.00    +0.078 A 
BRANCH  19  26
ATOM     25  C   UNL     1       0.436   1.393   0.117  0.00  0.00    +0.277 C 
ATOM     26  O   UNL     1       0.340  -0.032   0.078  0.00  0.00    -0.494 OA
ENDBRANCH  19  26
ENDBRANCH  15  24
ENDBRANCH   1  17
BRANCH   1  27
ATOM     27  C   UNL     1      -1.870  -4.794   1.168  0.00  0.00    +0.436 C 
ATOM     28  F   UNL     1      -2.554  -5.247   0.035  0.00  0.00    -0.166 F 
ATOM     29  F   UNL     1      -2.296  -5.515   2.289  0.00  0.00    -0.166 F 
ATOM     30  F   UNL     1      -2.135  -3.434   1.360  0.00  0.00    -0.166 F 
ENDBRANCH   1  27
TORSDOF 5
