REMARK  Name = ZINC39883573
REMARK  8 active torsions:
REMARK  status: ('A' for Active; 'I' for Inactive)
REMARK    1  A    between atoms: C_1  and  C_2
REMARK    2  A    between atoms: C_2  and  C_3
REMARK    3  A    between atoms: C_2  and  C_4
REMARK    4  A    between atoms: C_2  and  C_5
REMARK    5  A    between atoms: C_11  and  C_14
REMARK    6  A    between atoms: C_14  and  C_15
REMARK    7  A    between atoms: N_17  and  C_18
REMARK    8  A    between atoms: C_21  and  N_25
REMARK                            x       y       z     vdW  Elec       q    Type
REMARK                         _______ _______ _______ _____ _____    ______ ____
ROOT
ATOM      1  C   UNL     1       5.157   0.353  -2.553  0.00  0.00    +0.135 C 
ENDROOT
BRANCH   1   8
ATOM      2  C   UNL     1       0.710  -0.488  -1.275  0.00  0.00    -0.041 A 
ATOM      3  C   UNL     1       0.037  -1.289  -2.187  0.00  0.00    +0.008 A 
ATOM      4  C   UNL     1       0.671  -1.750  -3.321  0.00  0.00    +0.047 A 
ATOM      5  C   UNL     1       1.998  -1.410  -3.556  0.00  0.00    +0.135 A 
ATOM      6  C   UNL     1       2.673  -0.599  -2.630  0.00  0.00    +0.024 A 
ATOM      7  C   UNL     1       2.014  -0.138  -1.491  0.00  0.00    +0.016 A 
ATOM      8  C   UNL     1       4.029  -0.434  -3.168  0.00  0.00    +0.007 A 
ATOM      9  C   UNL     1       4.061  -1.123  -4.317  0.00  0.00    +0.200 A 
ATOM     10  O   UNL     1       2.867  -1.697  -4.546  0.00  0.00    -0.463 OA
BRANCH   2  12
ATOM     11  C   UNL     1      -0.023   1.534  -0.041  0.00  0.00    +0.015 C 
ATOM     12  C   UNL     1      -0.003   0.004  -0.042  0.00  0.00    -0.013 C 
ATOM     13  C   UNL     1       0.729  -0.497   1.205  0.00  0.00    +0.015 C 
ATOM     14  C   UNL     1      -1.439  -0.524  -0.038  0.00  0.00    +0.015 C 
ENDBRANCH   2  12
ENDBRANCH   1   8
BRANCH   1  15
ATOM     15  C   UNL     1       5.880  -0.507  -1.549  0.00  0.00    +0.222 C 
ATOM     16  O   UNL     1       5.515  -1.647  -1.352  0.00  0.00    -0.275 OA
ATOM     17  N   UNL     1       6.933  -0.010  -0.869  0.00  0.00    -0.284 N 
ATOM     18  H   UNL     1       7.266   0.878  -1.072  0.00  0.00    +0.155 HD
BRANCH  17  19
ATOM     19  C   UNL     1       7.546  -0.776   0.130  0.00  0.00    +0.052 A 
ATOM     20  C   UNL     1       7.635  -2.155  -0.006  0.00  0.00    +0.027 A 
ATOM     21  C   UNL     1       8.240  -2.907   0.981  0.00  0.00    +0.034 A 
ATOM     22  C   UNL     1       8.758  -2.289   2.104  0.00  0.00    +0.128 A 
ATOM     23  C   UNL     1       8.672  -0.917   2.244  0.00  0.00    +0.054 A 
ATOM     24  C   UNL     1       8.071  -0.157   1.257  0.00  0.00    +0.064 A 
ATOM     25 CL   UNL     1       7.969   1.567   1.430  0.00  0.00    -0.082 Cl
BRANCH  22  26
ATOM     26  N   UNL     1       9.406  -3.100   3.160  0.00  0.00    +0.056 N 
ATOM     27  O   UNL     1       9.482  -4.300   3.039  0.00  0.00    -0.126 OA
ATOM     28  O   UNL     1       9.859  -2.561   4.143  0.00  0.00    -0.126 OA
ENDBRANCH  22  26
ENDBRANCH  17  19
ENDBRANCH   1  15
TORSDOF 5
