REMARK  Name = ZINC05571599
REMARK  8 active torsions:
REMARK  status: ('A' for Active; 'I' for Inactive)
REMARK    1  A    between atoms: C_1  and  C_2
REMARK    2  A    between atoms: C_2  and  N_3
REMARK    3  A    between atoms: C_7  and  C_28
REMARK    4  A    between atoms: C_8  and  C_27
REMARK    5  A    between atoms: C_12  and  S_13
REMARK    6  A    between atoms: S_13  and  C_14
REMARK    7  A    between atoms: C_14  and  C_15
REMARK    8  A    between atoms: N_20  and  C_21
REMARK                            x       y       z     vdW  Elec       q    Type
REMARK                         _______ _______ _______ _____ _____    ______ ____
ROOT
ATOM      1  S   UNL     1      -2.927   4.088   0.038  0.00  0.00    -0.078 S 
ENDROOT
BRANCH   1  11
ATOM      2  N   UNL     1      -3.733   6.675   0.056  0.00  0.00    -0.288 N 
ATOM      3  C   UNL     1      -3.569   8.011   0.063  0.00  0.00    +0.263 A 
ATOM      4  O   UNL     1      -4.537   8.752   0.072  0.00  0.00    -0.267 OA
ATOM      5  C   UNL     1      -2.244   8.550   0.060  0.00  0.00    +0.075 A 
ATOM      6  C   UNL     1      -1.816   9.938   0.067  0.00  0.00    -0.026 A 
ATOM      7  C   UNL     1      -0.504  10.219   0.062  0.00  0.00    -0.008 A 
ATOM      8  S   UNL     1       0.264   8.611   0.049  0.00  0.00    -0.073 S 
ATOM      9  C   UNL     1      -1.199   7.607   0.050  0.00  0.00    +0.117 A 
ATOM     10  N   UNL     1      -1.430   6.300   0.049  0.00  0.00    -0.216 NA
ATOM     11  C   UNL     1      -2.661   5.830   0.046  0.00  0.00    +0.173 A 
ATOM     12  C   UNL     1       0.160  11.572   0.066  0.00  0.00    +0.052 C 
ATOM     13  C   UNL     1      -2.833  11.050   0.079  0.00  0.00    +0.045 C 
BRANCH   2  15
ATOM     14  C   UNL     1      -5.553   5.915   1.502  0.00  0.00    +0.027 C 
ATOM     15  C   UNL     1      -5.088   6.117   0.059  0.00  0.00    +0.124 C 
ENDBRANCH   2  15
ENDBRANCH   1  11
BRANCH   1  16
ATOM     16  C   UNL     1      -1.213   3.508   0.027  0.00  0.00    +0.173 C 
BRANCH  16  17
ATOM     17  C   UNL     1      -1.192   2.002   0.019  0.00  0.00    +0.231 C 
ATOM     18  O   UNL     1      -2.234   1.381   0.020  0.00  0.00    -0.274 OA
ATOM     19  N   UNL     1      -0.016   1.344   0.009  0.00  0.00    -0.239 N 
ATOM     20  C   UNL     1       0.002  -0.004   0.002  0.00  0.00    +0.306 C 
ATOM     21  O   UNL     1      -1.042  -0.626   0.009  0.00  0.00    -0.252 OA
ATOM     22  N   UNL     1       1.178  -0.662  -0.013  0.00  0.00    -0.296 N 
ATOM     23  H   UNL     1       0.817   1.840   0.004  0.00  0.00    +0.159 HD
ATOM     24  H   UNL     1       2.012  -0.166  -0.018  0.00  0.00    +0.151 HD
BRANCH  22  25
ATOM     25  C   UNL     1       1.198  -2.127  -0.021  0.00  0.00    +0.074 C 
ATOM     26  C   UNL     1       1.093  -2.646   1.415  0.00  0.00    +0.022 C 
ATOM     27  C   UNL     1       1.114  -4.176   1.406  0.00  0.00    +0.002 C 
ATOM     28  C   UNL     1       2.422  -4.665   0.781  0.00  0.00    +0.000 C 
ATOM     29  C   UNL     1       2.527  -4.146  -0.654  0.00  0.00    +0.002 C 
ATOM     30  C   UNL     1       2.506  -2.616  -0.646  0.00  0.00    +0.022 C 
ENDBRANCH  22  25
ENDBRANCH  16  17
ENDBRANCH   1  16
TORSDOF 5
