REMARK  Name = ZINC39593201
REMARK  7 active torsions:
REMARK  status: ('A' for Active; 'I' for Inactive)
REMARK    1  A    between atoms: C_1  and  C_2
REMARK    2  A    between atoms: C_2  and  C_3
REMARK    3  A    between atoms: C_2  and  C_4
REMARK    4  A    between atoms: C_2  and  C_5
REMARK    5  A    between atoms: C_8  and  C_11
REMARK    6  A    between atoms: N_12  and  N_13
REMARK    7  A    between atoms: C_14  and  C_20
REMARK                            x       y       z     vdW  Elec       q    Type
REMARK                         _______ _______ _______ _____ _____    ______ ____
ROOT
ATOM      1  N   UNL     1       4.620  -2.066  -6.040  0.00  0.00    -0.175 N 
ATOM      2  C   UNL     1       6.046  -1.885  -6.359  0.00  0.00    +0.230 C 
ATOM      3  N   UNL     1       6.232  -2.655  -7.600  0.00  0.00    -0.242 N 
ATOM      4  N   UNL     1       4.981  -3.204  -7.909  0.00  0.00    -0.160 NA
ATOM      5  C   UNL     1       4.092  -2.875  -7.033  0.00  0.00    +0.206 C 
ATOM      6  S   UNL     1       2.408  -3.390  -7.096  0.00  0.00    -0.011 SA
ATOM      7  H   UNL     1       7.055  -2.761  -8.103  0.00  0.00    +0.170 HD
ENDROOT
BRANCH   2   8
ATOM      8  C   UNL     1       6.361  -0.405  -6.589  0.00  0.00    +0.197 C 
ATOM      9  C   UNL     1       7.813  -0.220  -6.977  0.00  0.00    -0.017 C 
ATOM     10  C   UNL     1       8.328   0.537  -6.010  0.00  0.00    +0.065 C 
ATOM     11  C   UNL     1       9.798   0.798  -6.288  0.00  0.00    +0.057 C 
ATOM     12  C   UNL     1      10.204  -0.263  -7.335  0.00  0.00    +0.011 C 
ATOM     13  C   UNL     1       8.849  -0.565  -8.015  0.00  0.00    +0.035 C 
ATOM     14  N   UNL     1       7.369   0.829  -5.090  0.00  0.00    -0.158 NA
ATOM     15  N   UNL     1       6.255   0.353  -5.331  0.00  0.00    -0.176 NA
ENDBRANCH   2   8
BRANCH   1  17
ATOM     16  C   UNL     1       2.646  -1.682  -4.846  0.00  0.00    +0.138 C 
ATOM     17  N   UNL     1       3.932  -1.530  -4.943  0.00  0.00    -0.184 NA
BRANCH  16  21
ATOM     18  C   UNL     1       0.609  -0.348  -1.370  0.00  0.00    -0.042 A 
ATOM     19  C   UNL     1      -0.101  -0.944  -2.398  0.00  0.00    +0.005 A 
ATOM     20  C   UNL     1       0.555  -1.380  -3.530  0.00  0.00    +0.010 A 
ATOM     21  C   UNL     1       1.938  -1.218  -3.639  0.00  0.00    -0.005 A 
ATOM     22  C   UNL     1       2.648  -0.616  -2.597  0.00  0.00    +0.010 A 
ATOM     23  C   UNL     1       1.978  -0.180  -1.472  0.00  0.00    +0.005 A 
BRANCH  18  25
ATOM     24  C   UNL     1       0.088   1.634   0.026  0.00  0.00    +0.015 C 
ATOM     25  C   UNL     1      -0.115   0.126  -0.136  0.00  0.00    -0.013 C 
ATOM     26  C   UNL     1       0.442  -0.598   1.091  0.00  0.00    +0.015 C 
ATOM     27  C   UNL     1      -1.608  -0.176  -0.273  0.00  0.00    +0.015 C 
ENDBRANCH  18  25
ENDBRANCH  16  21
ENDBRANCH   1  17
TORSDOF 4
