REMARK  Name = ZINC02205061
REMARK  7 active torsions:
REMARK  status: ('A' for Active; 'I' for Inactive)
REMARK    1  A    between atoms: C_1  and  C_2
REMARK    2  A    between atoms: C_4  and  C_29
REMARK    3  A    between atoms: C_11  and  C_13
REMARK    4  A    between atoms: N_15  and  C_16
REMARK    5  A    between atoms: C_17  and  C_25
REMARK    6  A    between atoms: C_25  and  O_27
REMARK    7  A    between atoms: O_27  and  C_28
REMARK                            x       y       z     vdW  Elec       q    Type
REMARK                         _______ _______ _______ _____ _____    ______ ____
ROOT
ATOM      1  C   UNL     1       1.147   1.655   0.000  0.00  0.00    +0.284 C 
ATOM      2  O   UNL     1       1.130   2.870   0.007  0.00  0.00    -0.266 OA
ATOM      3  N   UNL     1      -0.011   0.966   0.007  0.00  0.00    -0.273 N 
ATOM      4  H   UNL     1       0.002  -0.004   0.002  0.00  0.00    +0.156 HD
ENDROOT
BRANCH   1  15
ATOM      5  C   UNL     1       7.128  -3.515  -0.084  0.00  0.00    +0.044 C 
ATOM      6  C   UNL     1       5.875  -2.676  -0.067  0.00  0.00    -0.049 A 
ATOM      7  C   UNL     1       4.632  -3.293  -0.059  0.00  0.00    +0.010 A 
ATOM      8  C   UNL     1       3.475  -2.545  -0.045  0.00  0.00    -0.007 A 
ATOM      9  C   UNL     1       3.548  -1.156  -0.038  0.00  0.00    +0.142 A 
ATOM     10  C   UNL     1       4.811  -0.539  -0.047  0.00  0.00    +0.064 A 
ATOM     11  C   UNL     1       5.971  -1.312  -0.061  0.00  0.00    +0.018 A 
ATOM     12  C   UNL     1       4.872   0.935  -0.039  0.00  0.00    +0.193 A 
ATOM     13  O   UNL     1       5.935   1.530  -0.046  0.00  0.00    -0.287 OA
ATOM     14  C   UNL     1       3.588   1.652  -0.023  0.00  0.00    +0.103 A 
ATOM     15  C   UNL     1       2.439   0.933  -0.016  0.00  0.00    +0.194 A 
ATOM     16  O   UNL     1       2.428  -0.408  -0.018  0.00  0.00    -0.450 OA
ATOM     17  C   UNL     1       2.133  -3.231  -0.036  0.00  0.00    +0.047 C 
ENDBRANCH   1  15
BRANCH   3  18
ATOM     18  C   UNL     1      -1.219   1.641   0.017  0.00  0.00    +0.087 A 
ATOM     19  C   UNL     1      -2.504   1.113   0.014  0.00  0.00    +0.091 A 
ATOM     20  C   UNL     1      -3.614   2.050   0.029  0.00  0.00    -0.021 A 
ATOM     21  C   UNL     1      -3.266   3.355   0.034  0.00  0.00    -0.004 A 
ATOM     22  S   UNL     1      -1.496   3.352   0.027  0.00  0.00    -0.077 S 
ATOM     23  C   UNL     1      -4.188   4.535   0.043  0.00  0.00    +0.043 C 
ATOM     24  C   UNL     1      -5.596   4.053  -0.332  0.00  0.00    +0.005 C 
ATOM     25  C   UNL     1      -5.930   2.811   0.500  0.00  0.00    +0.005 C 
ATOM     26  C   UNL     1      -5.079   1.628   0.034  0.00  0.00    +0.037 C 
BRANCH  19  27
ATOM     27  C   UNL     1      -2.730  -0.334   0.001  0.00  0.00    +0.342 C 
ATOM     28  O   UNL     1      -2.823  -0.945   1.049  0.00  0.00    -0.245 OA
BRANCH  27  29
ATOM     29  O   UNL     1      -2.837  -0.989  -1.173  0.00  0.00    -0.464 OA
ATOM     30  C   UNL     1      -3.061  -2.422  -1.110  0.00  0.00    +0.280 C 
ENDBRANCH  27  29
ENDBRANCH  19  27
ENDBRANCH   3  18
TORSDOF 4
