REMARK  Name = ZINC66813625
REMARK  4 active torsions:
REMARK  status: ('A' for Active; 'I' for Inactive)
REMARK    1  A    between atoms: C_3  and  C_6
REMARK    2  A    between atoms: C_6  and  C_7
REMARK    3  A    between atoms: C_10  and  S_12
REMARK    4  A    between atoms: S_12  and  C_13
REMARK                            x       y       z     vdW  Elec       q    Type
REMARK                         _______ _______ _______ _____ _____    ______ ____
ROOT
ATOM      1  C   UNL     1       5.664   2.926   5.939  0.00  0.00    +0.117 A 
ATOM      2  C   UNL     1       5.952   3.468   7.223  0.00  0.00    +0.043 A 
ATOM      3  C   UNL     1       5.655   4.803   7.742  0.00  0.00    -0.025 A 
ATOM      4  C   UNL     1       6.038   5.067   9.008  0.00  0.00    -0.004 A 
ATOM      5  S   UNL     1       6.807   3.575   9.578  0.00  0.00    -0.073 S 
ATOM      6  C   UNL     1       6.615   2.597   8.111  0.00  0.00    +0.113 A 
ATOM      7  N   UNL     1       6.940   1.369   7.759  0.00  0.00    -0.228 NA
ATOM      8  C   UNL     1       6.646   0.922   6.553  0.00  0.00    +0.223 A 
ATOM      9  N   UNL     1       6.020   1.680   5.671  0.00  0.00    -0.228 NA
ATOM     10  C   UNL     1       5.852   6.347   9.764  0.00  0.00    +0.043 C 
ATOM     11  C   UNL     1       5.490   7.453   8.763  0.00  0.00    +0.005 C 
ATOM     12  C   UNL     1       4.383   6.936   7.840  0.00  0.00    +0.005 C 
ATOM     13  C   UNL     1       4.944   5.864   6.905  0.00  0.00    +0.037 C 
ENDROOT
BRANCH   1  14
ATOM     14  S   UNL     1       4.836   3.898   4.725  0.00  0.00    -0.009 S 
BRANCH  14  18
ATOM     15  C   UNL     1       4.247   2.008   1.393  0.00  0.00    +0.223 A 
ATOM     16  N   UNL     1       4.856   1.105   2.105  0.00  0.00    -0.111 NA
ATOM     17  N   UNL     1       5.127   1.585   3.267  0.00  0.00    -0.101 NA
ATOM     18  C   UNL     1       4.698   2.821   3.337  0.00  0.00    +0.283 A 
ATOM     19  O   UNL     1       4.137   3.117   2.150  0.00  0.00    -0.415 OA
BRANCH  15  20
ATOM     20  C   UNL     1       3.761   1.845  -0.024  0.00  0.00    +0.140 C 
BRANCH  20  23
ATOM     21  C   UNL     1      -0.016   1.351   0.009  0.00  0.00    +0.008 A 
ATOM     22  C   UNL     1       1.183   2.038   0.002  0.00  0.00    +0.011 A 
ATOM     23  C   UNL     1       2.343   1.336  -0.013  0.00  0.00    -0.001 A 
ATOM     24  S   UNL     1       1.754  -0.349  -0.017  0.00  0.00    -0.101 S 
ATOM     25  C   UNL     1       0.002  -0.004   0.002  0.00  0.00    +0.045 A 
ENDBRANCH  20  23
ENDBRANCH  15  20
ENDBRANCH  14  18
ENDBRANCH   1  14
TORSDOF 4
