REMARK  Name = ZINC67460743
REMARK  8 active torsions:
REMARK  status: ('A' for Active; 'I' for Inactive)
REMARK    1  A    between atoms: C_1  and  C_2
REMARK    2  A    between atoms: C_3  and  C_8
REMARK    3  A    between atoms: N_6  and  C_7
REMARK    4  A    between atoms: C_8  and  C_10
REMARK    5  A    between atoms: C_8  and  N_11
REMARK    6  A    between atoms: C_17  and  C_20
REMARK    7  A    between atoms: C_20  and  C_22
REMARK    8  A    between atoms: C_20  and  O_29
REMARK                            x       y       z     vdW  Elec       q    Type
REMARK                         _______ _______ _______ _____ _____    ______ ____
ROOT
ATOM      1  N   UNL     1      -1.206   0.244  -4.941  0.00  0.00    -0.293 N 
ATOM      2  C   UNL     1      -1.156  -1.045  -4.552  0.00  0.00    +0.303 C 
ATOM      3  O   UNL     1      -0.556  -1.351  -3.539  0.00  0.00    -0.253 OA
ATOM      4  N   UNL     1      -1.771  -1.995  -5.284  0.00  0.00    -0.286 N 
ATOM      5  C   UNL     1      -1.824  -3.386  -4.813  0.00  0.00    +0.109 C 
ATOM      6  C   UNL     1      -3.284  -3.850  -4.810  0.00  0.00    +0.025 C 
ATOM      7  C   UNL     1      -3.886  -3.634  -6.201  0.00  0.00    +0.025 C 
ATOM      8  C   UNL     1      -3.853  -2.143  -6.546  0.00  0.00    +0.025 C 
ATOM      9  C   UNL     1      -2.405  -1.659  -6.566  0.00  0.00    +0.109 C 
ATOM     10  H   UNL     1      -1.621   0.479  -5.786  0.00  0.00    +0.151 HD
ENDROOT
BRANCH   1  11
ATOM     11  C   UNL     1      -0.635   1.290  -4.090  0.00  0.00    +0.105 C 
ATOM     12  C   UNL     1      -1.668   1.718  -3.045  0.00  0.00    +0.033 C 
BRANCH  11  15
ATOM     13  C   UNL     1       1.547   3.423  -3.400  0.00  0.00    +0.065 C 
ATOM     14  C   UNL     1       0.689   3.399  -4.639  0.00  0.00    +0.041 A 
ATOM     15  C   UNL     1      -0.256   2.477  -4.937  0.00  0.00    +0.013 A 
ATOM     16  C   UNL     1      -0.817   2.819  -6.172  0.00  0.00    +0.140 A 
ATOM     17  N   UNL     1      -0.231   3.908  -6.599  0.00  0.00    -0.179 NA
ATOM     18  N   UNL     1       0.720   4.297  -5.646  0.00  0.00    -0.271 N 
ATOM     19  C   UNL     1       1.595   5.468  -5.730  0.00  0.00    +0.172 C 
ENDBRANCH  11  15
ENDBRANCH   1  11
BRANCH   7  20
ATOM     20  C   UNL     1      -5.334  -4.128  -6.212  0.00  0.00    +0.148 C 
BRANCH  20  21
ATOM     21  C   UNL     1      -5.927  -3.915  -7.581  0.00  0.00    -0.019 A 
ATOM     22  C   UNL     1      -5.741  -4.864  -8.569  0.00  0.00    +0.007 A 
ATOM     23  C   UNL     1      -6.285  -4.669  -9.825  0.00  0.00    +0.020 A 
ATOM     24  C   UNL     1      -7.015  -3.525 -10.092  0.00  0.00    +0.041 A 
ATOM     25  C   UNL     1      -7.201  -2.576  -9.103  0.00  0.00    +0.020 A 
ATOM     26  C   UNL     1      -6.662  -2.775  -7.846  0.00  0.00    +0.007 A 
ATOM     27 CL   UNL     1      -7.698  -3.280 -11.670  0.00  0.00    -0.084 Cl
ENDBRANCH  20  21
BRANCH  20  28
ATOM     28  O   UNL     1      -5.364  -5.520  -5.890  0.00  0.00    -0.387 OA
ATOM     29  H   UNL     1      -4.868  -6.077  -6.506  0.00  0.00    +0.210 HD
ENDBRANCH  20  28
ENDBRANCH   7  20
TORSDOF 5
