REMARK  Name = ZINC39592338
REMARK  3 active torsions:
REMARK  status: ('A' for Active; 'I' for Inactive)
REMARK    1  A    between atoms: C_4  and  C_7
REMARK    2  A    between atoms: C_10  and  C_16
REMARK    3  A    between atoms: C_19  and  C_22
REMARK                            x       y       z     vdW  Elec       q    Type
REMARK                         _______ _______ _______ _____ _____    ______ ____
ROOT
ATOM      1  C   UNL     1       3.696  -0.685  -0.037  0.00  0.00    +0.130 C 
ATOM      2  N   UNL     1       3.915  -1.969  -0.052  0.00  0.00    -0.168 NA
ATOM      3  N   UNL     1       5.206  -2.485  -0.067  0.00  0.00    -0.175 N 
ATOM      4  C   UNL     1       5.878  -3.809  -0.085  0.00  0.00    +0.230 C 
ATOM      5  N   UNL     1       7.314  -3.494  -0.093  0.00  0.00    -0.242 N 
ATOM      6  N   UNL     1       7.404  -2.097  -0.080  0.00  0.00    -0.161 NA
ATOM      7  C   UNL     1       6.238  -1.556  -0.066  0.00  0.00    +0.201 C 
ATOM      8  S   UNL     1       5.349  -0.012  -0.051  0.00  0.00    -0.029 S 
ATOM      9  H   UNL     1       8.050  -4.126  -0.105  0.00  0.00    +0.170 HD
ENDROOT
BRANCH   1  13
ATOM     10  C   UNL     1      -0.017   1.379   0.010  0.00  0.00    +0.000 A 
ATOM     11  C   UNL     1       1.168   2.093   0.002  0.00  0.00    +0.001 A 
ATOM     12  C   UNL     1       2.377   1.429  -0.013  0.00  0.00    +0.010 A 
ATOM     13  C   UNL     1       2.403   0.034  -0.021  0.00  0.00    +0.009 A 
ATOM     14  C   UNL     1       1.204  -0.680  -0.013  0.00  0.00    +0.010 A 
ATOM     15  C   UNL     1       0.002  -0.004   0.002  0.00  0.00    +0.001 A 
ENDBRANCH   1  13
BRANCH   4  16
ATOM     16  C   UNL     1       5.512  -4.611   1.166  0.00  0.00    +0.194 C 
ATOM     17  C   UNL     1       6.240  -5.943   1.181  0.00  0.00    +0.035 C 
ATOM     18  C   UNL     1       6.998  -5.884   2.293  0.00  0.00    +0.091 C 
ATOM     19  N   UNL     1       6.812  -4.698   2.931  0.00  0.00    -0.154 NA
ATOM     20  N   UNL     1       6.008  -3.939   2.378  0.00  0.00    -0.176 NA
BRANCH  18  21
ATOM     21  C   UNL     1       7.908  -6.960   2.756  0.00  0.00    +0.002 A 
ATOM     22  C   UNL     1       8.028  -8.138   2.020  0.00  0.00    +0.013 A 
ATOM     23  C   UNL     1       8.876  -9.136   2.454  0.00  0.00    +0.039 A 
ATOM     24  C   UNL     1       9.606  -8.970   3.620  0.00  0.00    +0.123 A 
ATOM     25  C   UNL     1       9.489  -7.801   4.354  0.00  0.00    +0.039 A 
ATOM     26  C   UNL     1       8.649  -6.795   3.925  0.00  0.00    +0.013 A 
ATOM     27  F   UNL     1      10.434  -9.950   4.041  0.00  0.00    -0.205 F 
ENDBRANCH  18  21
ENDBRANCH   4  16
TORSDOF 3
