REMARK  Name = ZINC09074509
REMARK  6 active torsions:
REMARK  status: ('A' for Active; 'I' for Inactive)
REMARK    1  A    between atoms: C_6  and  C_7
REMARK    2  A    between atoms: C_7  and  O_9
REMARK    3  A    between atoms: O_9  and  C_10
REMARK    4  A    between atoms: C_10  and  C_11
REMARK    5  A    between atoms: N_13  and  C_14
REMARK    6  A    between atoms: C_15  and  C_19
REMARK                            x       y       z     vdW  Elec       q    Type
REMARK                         _______ _______ _______ _____ _____    ______ ____
ROOT
ATOM      1  O   UNL     1       4.856   0.069  -0.061  0.00  0.00    -0.452 OA
ENDROOT
BRANCH   1   2
ATOM      2  C   UNL     1       3.706  -0.635  -0.051  0.00  0.00    +0.340 C 
ATOM      3  O   UNL     1       3.737  -1.850  -0.062  0.00  0.00    -0.245 OA
BRANCH   2   9
ATOM      4  C   UNL     1       2.378   1.467  -0.018  0.00  0.00    +0.016 A 
ATOM      5  C   UNL     1       1.166   2.122   0.002  0.00  0.00    +0.017 A 
ATOM      6  C   UNL     1      -0.017   1.396   0.010  0.00  0.00    +0.030 A 
ATOM      7  C   UNL     1       0.002  -0.004   0.002  0.00  0.00    +0.048 A 
ATOM      8  C   UNL     1       1.221  -0.662  -0.019  0.00  0.00    +0.039 A 
ATOM      9  C   UNL     1       2.412   0.069  -0.029  0.00  0.00    +0.061 A 
ATOM     10  N   UNL     1      -1.175  -0.748   0.021  0.00  0.00    -0.284 N 
ATOM     11  C   UNL     1      -2.379  -0.325  -0.354  0.00  0.00    +0.227 C 
ATOM     12  O   UNL     1      -3.307  -1.104  -0.288  0.00  0.00    -0.275 OA
ATOM     13  C   UNL     1      -2.654   1.066  -0.857  0.00  0.00    +0.170 C 
ATOM     14  S   UNL     1      -1.572   2.232   0.022  0.00  0.00    -0.114 S 
ATOM     15  H   UNL     1      -1.111  -1.663   0.338  0.00  0.00    +0.155 HD
ENDBRANCH   2   9
ENDBRANCH   1   2
BRANCH   1  16
ATOM     16  C   UNL     1       6.093  -0.691  -0.083  0.00  0.00    +0.328 C 
BRANCH  16  17
ATOM     17  C   UNL     1       7.265   0.257  -0.091  0.00  0.00    +0.255 C 
ATOM     18  O   UNL     1       7.075   1.455  -0.079  0.00  0.00    -0.272 OA
ATOM     19  N   UNL     1       8.523  -0.226  -0.111  0.00  0.00    -0.277 N 
ATOM     20  H   UNL     1       8.674  -1.184  -0.121  0.00  0.00    +0.155 HD
BRANCH  19  21
ATOM     21  C   UNL     1       9.600   0.647  -0.118  0.00  0.00    +0.084 A 
ATOM     22  C   UNL     1      10.957   0.343  -0.133  0.00  0.00    +0.065 A 
ATOM     23  C   UNL     1      11.871   1.460  -0.141  0.00  0.00    +0.022 A 
ATOM     24  C   UNL     1      11.335   2.693  -0.123  0.00  0.00    +0.048 A 
ATOM     25  S   UNL     1       9.583   2.378  -0.103  0.00  0.00    -0.081 S 
BRANCH  22  26
ATOM     26  C   UNL     1      11.435  -1.043  -0.143  0.00  0.00    +0.244 C 
ATOM     27  O   UNL     1      10.636  -1.962  -0.139  0.00  0.00    -0.270 OA
ATOM     28  N   UNL     1      12.758  -1.299  -0.157  0.00  0.00    -0.325 N 
ATOM     29  H   UNL     1      13.394  -0.567  -0.160  0.00  0.00    +0.145 HD
ATOM     30  H   UNL     1      13.074  -2.216  -0.164  0.00  0.00    +0.145 HD
ENDBRANCH  22  26
ENDBRANCH  19  21
ENDBRANCH  16  17
ENDBRANCH   1  16
TORSDOF 6
