REMARK  Name = ZINC39708230
REMARK  9 active torsions:
REMARK  status: ('A' for Active; 'I' for Inactive)
REMARK    1  A    between atoms: C_1  and  C_2
REMARK    2  A    between atoms: C_2  and  C_3
REMARK    3  A    between atoms: C_2  and  S_4
REMARK    4  A    between atoms: S_4  and  C_5
REMARK    5  A    between atoms: C_8  and  C_11
REMARK    6  A    between atoms: N_13  and  C_14
REMARK    7  A    between atoms: C_14  and  C_15
REMARK    8  A    between atoms: C_15  and  C_16
REMARK    9  A    between atoms: C_16  and  N_17
REMARK                            x       y       z     vdW  Elec       q    Type
REMARK                         _______ _______ _______ _____ _____    ______ ____
ROOT
ATOM      1  C   UNL     1       7.047   1.485  -0.814  0.00  0.00    +0.252 C 
ATOM      2  O   UNL     1       5.920   1.083  -1.032  0.00  0.00    -0.270 OA
ATOM      3  N   UNL     1       8.053   1.156  -1.649  0.00  0.00    -0.246 N 
ATOM      4  C   UNL     1       7.782   0.475  -2.824  0.00  0.00    +0.168 A 
ATOM      5  N   UNL     1       8.624  -0.012  -3.706  0.00  0.00    -0.224 NA
ATOM      6  C   UNL     1       8.216  -0.661  -4.818  0.00  0.00    +0.080 A 
ATOM      7  C   UNL     1       9.012  -1.229  -5.840  0.00  0.00    +0.032 A 
ATOM      8  C   UNL     1       8.435  -1.858  -6.911  0.00  0.00    +0.040 A 
ATOM      9  C   UNL     1       7.055  -1.961  -7.034  0.00  0.00    +0.125 A 
ATOM     10  C   UNL     1       6.245  -1.417  -6.052  0.00  0.00    +0.055 A 
ATOM     11  C   UNL     1       6.817  -0.785  -4.976  0.00  0.00    +0.043 A 
ATOM     12  S   UNL     1       6.199   0.028  -3.522  0.00  0.00    -0.052 S 
ATOM     13  F   UNL     1       6.509  -2.585  -8.101  0.00  0.00    -0.205 F 
ENDROOT
BRANCH   1  17
ATOM     14  C   UNL     1       7.812   3.917   2.569  0.00  0.00    +0.008 A 
ATOM     15  C   UNL     1       6.708   4.178   1.760  0.00  0.00    +0.015 A 
ATOM     16  C   UNL     1       6.459   3.396   0.668  0.00  0.00    +0.014 A 
ATOM     17  C   UNL     1       7.313   2.331   0.363  0.00  0.00    +0.037 A 
ATOM     18  C   UNL     1       8.421   2.071   1.177  0.00  0.00    +0.014 A 
ATOM     19  C   UNL     1       8.667   2.860   2.264  0.00  0.00    +0.015 A 
BRANCH  14  20
ATOM     20  S   UNL     1       8.130   4.928   3.976  0.00  0.00    -0.122 S 
BRANCH  20  22
ATOM     21  C   UNL     1       5.459   5.197   4.499  0.00  0.00    +0.019 C 
ATOM     22  C   UNL     1       6.680   6.014   4.073  0.00  0.00    +0.045 C 
ATOM     23  C   UNL     1       6.938   7.119   5.099  0.00  0.00    +0.019 C 
ENDBRANCH  20  22
ENDBRANCH  14  20
ENDBRANCH   1  17
BRANCH   3  24
ATOM     24  C   UNL     1       9.432   1.519  -1.314  0.00  0.00    +0.117 C 
BRANCH  24  25
ATOM     25  C   UNL     1      10.143   0.311  -0.702  0.00  0.00    +0.041 C 
BRANCH  25  26
ATOM     26  C   UNL     1      11.531   0.730  -0.213  0.00  0.00    +0.124 C 
BRANCH  26  27
ATOM     27  N   UNL     1      12.212  -0.427   0.373  0.00  0.00    -0.338 N 
ATOM     28  C   UNL     1      12.162  -0.822   1.683  0.00  0.00    +0.104 A 
ATOM     29  C   UNL     1      12.926  -1.926   1.787  0.00  0.00    +0.101 A 
ATOM     30  N   UNL     1      13.429  -2.198   0.574  0.00  0.00    -0.352 N 
ATOM     31  C   UNL     1      13.002  -1.307  -0.279  0.00  0.00    +0.173 A 
ATOM     32  H   UNL     1      14.016  -2.941   0.363  0.00  0.00    +0.166 HD
ENDBRANCH  26  27
ENDBRANCH  25  26
ENDBRANCH  24  25
ENDBRANCH   3  24
TORSDOF 7
