REMARK  Name = ZINC43754963
REMARK  7 active torsions:
REMARK  status: ('A' for Active; 'I' for Inactive)
REMARK    1  A    between atoms: C_1  and  C_2
REMARK    2  A    between atoms: C_5  and  C_28
REMARK    3  A    between atoms: C_18  and  C_20
REMARK    4  A    between atoms: C_23  and  O_26
REMARK    5  A    between atoms: O_26  and  C_27
REMARK    6  A    between atoms: C_28  and  O_30
REMARK    7  A    between atoms: O_30  and  C_31
REMARK                            x       y       z     vdW  Elec       q    Type
REMARK                         _______ _______ _______ _____ _____    ______ ____
ROOT
ATOM      1  C   UNL     1       0.880  -1.103   1.205  0.00  0.00    +0.109 C 
ATOM      2  C   UNL     1       0.180  -0.189   0.232  0.00  0.00    +0.214 C 
ATOM      3  O   UNL     1       0.147   1.006   0.440  0.00  0.00    -0.276 OA
ATOM      4  N   UNL     1      -0.409  -0.699  -0.867  0.00  0.00    -0.275 N 
ATOM      5  C   UNL     1      -1.004   0.184  -1.882  0.00  0.00    +0.190 C 
ATOM      6  C   UNL     1      -0.229   0.025  -3.196  0.00  0.00    +0.071 C 
ATOM      7  C   UNL     1      -0.005  -1.442  -3.459  0.00  0.00    -0.015 A 
ATOM      8  C   UNL     1       0.351  -2.086  -4.707  0.00  0.00    +0.003 A 
ATOM      9  C   UNL     1       0.588  -1.593  -5.994  0.00  0.00    +0.010 A 
ATOM     10  C   UNL     1       0.912  -2.512  -6.960  0.00  0.00    +0.001 A 
ATOM     11  C   UNL     1       1.004  -3.867  -6.686  0.00  0.00    +0.002 A 
ATOM     12  C   UNL     1       0.775  -4.382  -5.422  0.00  0.00    +0.026 A 
ATOM     13  C   UNL     1       0.444  -3.472  -4.420  0.00  0.00    +0.047 A 
ATOM     14  N   UNL     1       0.162  -3.633  -3.094  0.00  0.00    -0.356 N 
ATOM     15  H   UNL     1       0.154  -4.481  -2.624  0.00  0.00    +0.166 HD
ATOM     16  C   UNL     1      -0.107  -2.415  -2.528  0.00  0.00    +0.046 A 
ATOM     17  C   UNL     1      -0.468  -2.154  -1.087  0.00  0.00    +0.154 C 
ENDROOT
BRANCH  17  18
ATOM     18  C   UNL     1      -1.862  -2.656  -0.813  0.00  0.00    -0.021 A 
ATOM     19  C   UNL     1      -2.917  -2.225  -1.596  0.00  0.00    +0.009 A 
ATOM     20  C   UNL     1      -4.196  -2.684  -1.348  0.00  0.00    +0.046 A 
ATOM     21  C   UNL     1      -4.421  -3.579  -0.311  0.00  0.00    +0.120 A 
ATOM     22  C   UNL     1      -3.361  -4.010   0.472  0.00  0.00    +0.046 A 
ATOM     23  C   UNL     1      -2.083  -3.552   0.216  0.00  0.00    +0.009 A 
BRANCH  21  24
ATOM     24  O   UNL     1      -5.679  -4.031  -0.064  0.00  0.00    -0.495 OA
ATOM     25  C   UNL     1      -5.836  -4.950   1.018  0.00  0.00    +0.277 C 
ENDBRANCH  21  24
ENDBRANCH  17  18
BRANCH   5  26
ATOM     26  C   UNL     1      -0.923   1.615  -1.416  0.00  0.00    +0.328 C 
ATOM     27  O   UNL     1       0.003   2.311  -1.759  0.00  0.00    -0.249 OA
BRANCH  26  28
ATOM     28  O   UNL     1      -1.881   2.116  -0.620  0.00  0.00    -0.467 OA
ATOM     29  C   UNL     1      -1.740   3.480  -0.216  0.00  0.00    +0.280 C 
ENDBRANCH  26  28
ENDBRANCH   5  26
TORSDOF 4
