REMARK  Name = ZINC37984252
REMARK  9 active torsions:
REMARK  status: ('A' for Active; 'I' for Inactive)
REMARK    1  A    between atoms: C_1  and  C_2
REMARK    2  A    between atoms: C_2  and  C_4
REMARK    3  A    between atoms: C_2  and  N_8
REMARK    4  A    between atoms: C_4  and  C_5
REMARK    5  A    between atoms: C_5  and  C_6
REMARK    6  A    between atoms: C_5  and  C_7
REMARK    7  A    between atoms: N_8  and  C_9
REMARK    8  A    between atoms: C_10  and  C_12
REMARK    9  A    between atoms: C_14  and  N_20
REMARK                            x       y       z     vdW  Elec       q    Type
REMARK                         _______ _______ _______ _____ _____    ______ ____
ROOT
ATOM      1  C   UNL     1      -3.109  -1.790  -1.038  0.00  0.00    +0.041 A 
ATOM      2  C   UNL     1      -4.148  -0.888  -0.795  0.00  0.00    +0.047 A 
ATOM      3  C   UNL     1      -5.458  -1.310  -0.881  0.00  0.00    +0.147 A 
ATOM      4  C   UNL     1      -5.745  -2.625  -1.208  0.00  0.00    +0.089 A 
ATOM      5  C   UNL     1      -4.719  -3.525  -1.450  0.00  0.00    +0.062 A 
ATOM      6  C   UNL     1      -3.404  -3.113  -1.372  0.00  0.00    +0.034 A 
ATOM      7 CL   UNL     1      -5.089  -5.171  -1.857  0.00  0.00    -0.082 Cl
ATOM      8 CL   UNL     1      -7.397  -3.148  -1.314  0.00  0.00    -0.080 Cl
ENDROOT
BRANCH   1  11
ATOM      9  N   UNL     1      -1.346  -0.424  -0.030  0.00  0.00    -0.298 N 
ATOM     10  C   UNL     1      -2.322   0.044   0.957  0.00  0.00    +0.132 C 
ATOM     11  C   UNL     1      -1.704  -1.343  -0.948  0.00  0.00    +0.247 C 
ATOM     12  O   UNL     1      -0.870  -1.805  -1.703  0.00  0.00    -0.270 OA
BRANCH   9  14
ATOM     13  C   UNL     1      -0.026   1.633  -0.108  0.00  0.00    +0.028 C 
ATOM     14  C   UNL     1       0.020   0.107  -0.018  0.00  0.00    +0.073 C 
BRANCH  14  15
ATOM     15  C   UNL     1       0.716  -0.307   1.280  0.00  0.00    +0.025 C 
BRANCH  15  16
ATOM     16  C   UNL     1       0.799  -1.833   1.351  0.00  0.00    -0.015 C 
ATOM     17  C   UNL     1       1.716  -2.346   0.239  0.00  0.00    +0.007 C 
ATOM     18  C   UNL     1       1.363  -2.251   2.710  0.00  0.00    +0.007 C 
ENDBRANCH  15  16
ENDBRANCH  14  15
ENDBRANCH   9  14
ENDBRANCH   1  11
BRANCH   3  19
ATOM     19  N   UNL     1      -6.559  -0.356  -0.623  0.00  0.00    +0.058 N 
ATOM     20  O   UNL     1      -6.310   0.792  -0.338  0.00  0.00    -0.126 OA
ATOM     21  O   UNL     1      -7.708  -0.724  -0.698  0.00  0.00    -0.126 OA
ENDBRANCH   3  19
TORSDOF 5
