REMARK  Name = ZINC59148379
REMARK  6 active torsions:
REMARK  status: ('A' for Active; 'I' for Inactive)
REMARK    1  A    between atoms: C_1  and  C_2
REMARK    2  A    between atoms: C_3  and  C_16
REMARK    3  A    between atoms: C_4  and  C_15
REMARK    4  A    between atoms: N_5  and  C_7
REMARK    5  A    between atoms: C_7  and  C_8
REMARK    6  A    between atoms: N_17  and  N_18
REMARK                            x       y       z     vdW  Elec       q    Type
REMARK                         _______ _______ _______ _____ _____    ______ ____
ROOT
ATOM      1  C   UNL     1      -0.018   1.503   0.010  0.00  0.00    +0.068 C 
ATOM      2  C   UNL     1       0.002  -0.004   0.002  0.00  0.00    +0.069 A 
ATOM      3  C   UNL     1       0.008  -0.827  -1.145  0.00  0.00    +0.038 A 
ATOM      4  C   UNL     1       0.028  -2.135  -0.711  0.00  0.00    +0.045 A 
ATOM      5  N   UNL     1       0.034  -2.111   0.636  0.00  0.00    -0.263 N 
ATOM      6  N   UNL     1       0.023  -0.776   1.055  0.00  0.00    -0.175 NA
ATOM      7  C   UNL     1       0.040  -3.364  -1.582  0.00  0.00    +0.066 C 
ENDROOT
BRANCH   3   8
ATOM      8  C   UNL     1      -0.005  -0.371  -2.549  0.00  0.00    +0.145 C 
ATOM      9  N   UNL     1      -0.024   0.898  -2.818  0.00  0.00    -0.166 NA
BRANCH   9  10
ATOM     10  N   UNL     1      -0.036   1.330  -4.151  0.00  0.00    -0.127 N 
ATOM     11  C   UNL     1      -0.037   0.528  -5.231  0.00  0.00    +0.366 A 
ATOM     12  O   UNL     1      -0.026  -0.688  -5.215  0.00  0.00    -0.243 OA
ATOM     13  N   UNL     1      -0.052   1.302  -6.335  0.00  0.00    -0.246 N 
ATOM     14  N   UNL     1      -0.061   2.637  -5.902  0.00  0.00    -0.246 N 
ATOM     15  H   UNL     1      -0.072   3.426  -6.465  0.00  0.00    +0.192 HD
ATOM     16  C   UNL     1      -0.056   2.615  -4.553  0.00  0.00    +0.366 A 
ATOM     17  O   UNL     1      -0.065   3.588  -3.826  0.00  0.00    -0.243 OA
ATOM     18  H   UNL     1      -0.055   0.995  -7.255  0.00  0.00    +0.192 HD
ENDBRANCH   9  10
ENDBRANCH   3   8
BRANCH   5  19
ATOM     19  C   UNL     1       0.053  -3.285   1.513  0.00  0.00    +0.180 C 
BRANCH  19  20
ATOM     20  C   UNL     1       1.480  -3.668   1.808  0.00  0.00    -0.008 A 
ATOM     21  C   UNL     1       2.109  -4.633   1.043  0.00  0.00    +0.007 A 
ATOM     22  C   UNL     1       3.418  -4.985   1.313  0.00  0.00    +0.000 A 
ATOM     23  C   UNL     1       4.100  -4.372   2.348  0.00  0.00    +0.001 A 
ATOM     24  C   UNL     1       3.473  -3.407   3.113  0.00  0.00    +0.020 A 
ATOM     25  C   UNL     1       2.164  -3.050   2.840  0.00  0.00    +0.046 A 
ATOM     26 CL   UNL     1       1.378  -1.833   3.796  0.00  0.00    -0.083 Cl
ENDBRANCH  19  20
ENDBRANCH   5  19
TORSDOF 4
