REMARK  Name = ZINC66817410
REMARK  12 active torsions:
REMARK  status: ('A' for Active; 'I' for Inactive)
REMARK    1  A    between atoms: C_1  and  C_2
REMARK    2  A    between atoms: C_3  and  C_17
REMARK    3  A    between atoms: N_6  and  C_7
REMARK    4  A    between atoms: C_10  and  O_13
REMARK    5  A    between atoms: O_13  and  C_14
REMARK    6  A    between atoms: C_14  and  C_15
REMARK    7  A    between atoms: C_14  and  C_16
REMARK    8  A    between atoms: N_19  and  C_20
REMARK    9  A    between atoms: C_20  and  C_21
REMARK   10  A    between atoms: C_21  and  C_22
REMARK   11  A    between atoms: C_21  and  C_23
REMARK   12  A    between atoms: C_21  and  N_24
REMARK                            x       y       z     vdW  Elec       q    Type
REMARK                         _______ _______ _______ _____ _____    ______ ____
ROOT
ATOM      1  C   UNL     1      -0.723   0.209   1.277  0.00  0.00    +0.068 C 
ATOM      2  C   UNL     1      -0.764  -1.286   1.089  0.00  0.00    +0.074 A 
ATOM      3  C   UNL     1      -0.655  -1.961  -0.094  0.00  0.00    +0.170 A 
ATOM      4  N   UNL     1      -0.739  -3.279   0.159  0.00  0.00    -0.124 NA
ATOM      5  N   UNL     1      -0.892  -3.466   1.424  0.00  0.00    -0.060 NA
ATOM      6  N   UNL     1      -0.909  -2.216   2.058  0.00  0.00    -0.216 N 
ENDROOT
BRANCH   6   7
ATOM      7  C   UNL     1      -1.050  -1.976   3.433  0.00  0.00    +0.068 A 
ATOM      8  C   UNL     1      -0.382  -0.913   4.025  0.00  0.00    +0.031 A 
ATOM      9  C   UNL     1      -0.521  -0.678   5.378  0.00  0.00    +0.048 A 
ATOM     10  C   UNL     1      -1.329  -1.504   6.146  0.00  0.00    +0.121 A 
ATOM     11  C   UNL     1      -1.997  -2.567   5.555  0.00  0.00    +0.048 A 
ATOM     12  C   UNL     1      -1.863  -2.799   4.201  0.00  0.00    +0.031 A 
BRANCH  10  13
ATOM     13  O   UNL     1      -1.466  -1.272   7.479  0.00  0.00    -0.489 OA
BRANCH  13  14
ATOM     14  C   UNL     1      -0.849  -0.093   7.999  0.00  0.00    +0.167 C 
ATOM     15  C   UNL     1      -1.567   0.336   9.280  0.00  0.00    +0.051 C 
ATOM     16  C   UNL     1       0.621  -0.381   8.310  0.00  0.00    +0.051 C 
ENDBRANCH  13  14
ENDBRANCH  10  13
ENDBRANCH   6   7
BRANCH   3  17
ATOM     17  C   UNL     1      -0.478  -1.348  -1.424  0.00  0.00    +0.266 C 
ATOM     18  O   UNL     1      -0.416  -0.139  -1.532  0.00  0.00    -0.268 OA
ATOM     19  N   UNL     1      -0.384  -2.129  -2.518  0.00  0.00    -0.311 N 
ATOM     20  H   UNL     1      -0.433  -3.094  -2.432  0.00  0.00    +0.149 HD
BRANCH  19  21
ATOM     21  C   UNL     1      -0.207  -1.520  -3.839  0.00  0.00    +0.092 C 
BRANCH  21  22
ATOM     22  C   UNL     1      -0.223  -2.612  -4.910  0.00  0.00    -0.055 C 
ATOM     23  C   UNL     1      -1.605  -3.267  -4.951  0.00  0.00    -0.008 C 
ATOM     24  C   UNL     1       0.088  -1.994  -6.275  0.00  0.00    -0.008 C 
BRANCH  22  25
ATOM     25  N   UNL     1       0.790  -3.627  -4.590  0.00  0.00    +0.384 N 
ATOM     26  C   UNL     1       2.112  -2.993  -4.528  0.00  0.00    -0.078 C 
ATOM     27  C   UNL     1       3.160  -4.029  -4.115  0.00  0.00    -0.019 C 
ATOM     28  C   UNL     1       3.183  -5.162  -5.146  0.00  0.00    -0.004 C 
ATOM     29  C   UNL     1       1.781  -5.767  -5.256  0.00  0.00    -0.019 C 
ATOM     30  C   UNL     1       0.784  -4.666  -5.627  0.00  0.00    -0.078 C 
ATOM     31  H   UNL     1       0.577  -4.044  -3.696  0.00  0.00    -0.081 HD
ENDBRANCH  22  25
ENDBRANCH  21  22
ENDBRANCH  19  21
ENDBRANCH   3  17
TORSDOF 7
