REMARK  Name = ZINC01396885
REMARK  3 active torsions:
REMARK  status: ('A' for Active; 'I' for Inactive)
REMARK    1  A    between atoms: C_4  and  C_7
REMARK    2  A    between atoms: C_7  and  S_8
REMARK    3  A    between atoms: S_8  and  C_9
REMARK                            x       y       z     vdW  Elec       q    Type
REMARK                         _______ _______ _______ _____ _____    ______ ____
ROOT
ATOM      1  C   UNL     1       5.786  -1.866   1.477  0.00  0.00    +0.211 A 
ATOM      2  N   UNL     1       6.354  -2.179   0.314  0.00  0.00    -0.183 NA
ATOM      3  C   UNL     1       7.496  -2.820   0.530  0.00  0.00    +0.254 A 
ATOM      4  N   UNL     1       8.413  -3.329  -0.304  0.00  0.00    -0.218 NA
ATOM      5  C   UNL     1       9.482  -3.941   0.146  0.00  0.00    +0.129 A 
ATOM      6  C   UNL     1       9.685  -4.070   1.540  0.00  0.00    +0.076 A 
ATOM      7  C   UNL     1       8.744  -3.528   2.394  0.00  0.00    +0.062 A 
ATOM      8  N   UNL     1       7.658  -2.917   1.886  0.00  0.00    -0.199 N 
ATOM      9  N   UNL     1       6.547  -2.291   2.465  0.00  0.00    -0.137 NA
ATOM     10  C   UNL     1       8.959  -3.617   3.887  0.00  0.00    +0.083 C 
ATOM     11  C   UNL     1      10.246  -4.305   4.367  0.00  0.00    +0.113 C 
ATOM     12  C   UNL     1       9.864  -5.341   5.388  0.00  0.00    -0.023 A 
ATOM     13  C   UNL     1       8.831  -5.032   6.264  0.00  0.00    +0.006 A 
ATOM     14  C   UNL     1       8.438  -5.931   7.233  0.00  0.00    +0.000 A 
ATOM     15  C   UNL     1       9.080  -7.152   7.335  0.00  0.00    +0.000 A 
ATOM     16  C   UNL     1      10.102  -7.462   6.463  0.00  0.00    +0.004 A 
ATOM     17  C   UNL     1      10.495  -6.561   5.481  0.00  0.00    -0.041 A 
ATOM     18  C   UNL     1      11.597  -6.991   4.547  0.00  0.00    +0.054 C 
ATOM     19  C   UNL     1      12.207  -5.785   3.832  0.00  0.00    +0.113 C 
ATOM     20  N   UNL     1      11.106  -4.934   3.361  0.00  0.00    -0.290 N 
ATOM     21  C   UNL     1      10.871  -4.774   2.052  0.00  0.00    +0.250 C 
ATOM     22  O   UNL     1      11.672  -5.223   1.256  0.00  0.00    -0.270 OA
ENDROOT
BRANCH   1  23
ATOM     23  S   UNL     1       4.257  -1.011   1.666  0.00  0.00    -0.080 S 
BRANCH  23  24
ATOM     24  C   UNL     1       3.711  -0.707  -0.038  0.00  0.00    +0.112 C 
BRANCH  24  28
ATOM     25  C   UNL     1      -0.017   1.378   0.010  0.00  0.00    +0.000 A 
ATOM     26  C   UNL     1       1.171   2.086   0.002  0.00  0.00    +0.000 A 
ATOM     27  C   UNL     1       2.377   1.411  -0.013  0.00  0.00    +0.004 A 
ATOM     28  C   UNL     1       2.396   0.029  -0.020  0.00  0.00    -0.037 A 
ATOM     29  C   UNL     1       1.208  -0.679  -0.012  0.00  0.00    +0.004 A 
ATOM     30  C   UNL     1       0.002  -0.004   0.002  0.00  0.00    +0.000 A 
ENDBRANCH  24  28
ENDBRANCH  23  24
ENDBRANCH   1  23
TORSDOF 3
