REMARK  Name = ZINC44175661
REMARK  2 active torsions:
REMARK  status: ('A' for Active; 'I' for Inactive)
REMARK    1  A    between atoms: C_4  and  C_7
REMARK    2  A    between atoms: N_13  and  C_14
REMARK                            x       y       z     vdW  Elec       q    Type
REMARK                         _______ _______ _______ _____ _____    ______ ____
ROOT
ATOM      1  C   UNL     1       3.711  -0.707  -0.038  0.00  0.00    +0.170 C 
ATOM      2  C   UNL     1       3.795  -1.659  -1.220  0.00  0.00    +0.236 C 
ATOM      3  O   UNL     1       3.755  -1.266  -2.367  0.00  0.00    -0.274 OA
ATOM      4  N   UNL     1       3.913  -2.941  -0.920  0.00  0.00    -0.264 N 
ATOM      5  C   UNL     1       3.958  -3.396   0.381  0.00  0.00    +0.162 C 
ATOM      6  N   UNL     1       4.072  -4.633   0.803  0.00  0.00    -0.226 NA
ATOM      7  S   UNL     1       3.825  -1.903   1.357  0.00  0.00    -0.073 S 
ATOM      8  H   UNL     1       3.969  -3.586  -1.643  0.00  0.00    +0.157 HD
ENDROOT
BRANCH   1  12
ATOM      9  C   UNL     1      -0.017   1.378   0.010  0.00  0.00    +0.000 A 
ATOM     10  C   UNL     1       1.171   2.086   0.002  0.00  0.00    +0.000 A 
ATOM     11  C   UNL     1       2.377   1.411  -0.013  0.00  0.00    +0.005 A 
ATOM     12  C   UNL     1       2.396   0.029  -0.020  0.00  0.00    -0.025 A 
ATOM     13  C   UNL     1       1.208  -0.679  -0.012  0.00  0.00    +0.005 A 
ATOM     14  C   UNL     1       0.002  -0.004   0.002  0.00  0.00    +0.000 A 
ENDBRANCH   1  12
BRANCH   6  15
ATOM     15  C   UNL     1       4.100  -4.898   2.147  0.00  0.00    +0.067 A 
ATOM     16  C   UNL     1       4.884  -4.118   2.999  0.00  0.00    +0.028 A 
ATOM     17  C   UNL     1       4.907  -4.390   4.351  0.00  0.00    +0.002 A 
ATOM     18  C   UNL     1       4.156  -5.433   4.863  0.00  0.00    +0.000 A 
ATOM     19  C   UNL     1       3.376  -6.210   4.024  0.00  0.00    +0.002 A 
ATOM     20  C   UNL     1       3.339  -5.945   2.671  0.00  0.00    +0.028 A 
ENDBRANCH   6  15
TORSDOF 2
