REMARK  Name = ZINC02397018
REMARK  4 active torsions:
REMARK  status: ('A' for Active; 'I' for Inactive)
REMARK    1  A    between atoms: C_1  and  C_2
REMARK    2  A    between atoms: C_2  and  C_3
REMARK    3  A    between atoms: C_3  and  C_5
REMARK    4  A    between atoms: C_3  and  N_17
REMARK                            x       y       z     vdW  Elec       q    Type
REMARK                         _______ _______ _______ _____ _____    ______ ____
ROOT
ATOM      1  C   UNL     1      -1.433  -0.534   0.013  0.00  0.00    +0.170 C 
ENDROOT
BRANCH   1   2
ATOM      2  C   UNL     1      -1.414  -2.036   0.129  0.00  0.00    +0.240 C 
ATOM      3  O   UNL     1      -1.912  -2.718  -0.742  0.00  0.00    -0.273 OA
ATOM      4  N   UNL     1      -0.842  -2.622   1.199  0.00  0.00    -0.263 N 
ATOM      5  C   UNL     1      -0.824  -4.003   1.306  0.00  0.00    +0.165 A 
ATOM      6  N   UNL     1      -1.301  -4.899   0.473  0.00  0.00    -0.225 NA
ATOM      7  C   UNL     1      -1.212  -6.227   0.706  0.00  0.00    +0.080 A 
ATOM      8  C   UNL     1      -1.681  -7.288  -0.102  0.00  0.00    +0.029 A 
ATOM      9  C   UNL     1      -1.508  -8.592   0.286  0.00  0.00    +0.002 A 
ATOM     10  C   UNL     1      -0.872  -8.917   1.475  0.00  0.00    +0.001 A 
ATOM     11  C   UNL     1      -0.401  -7.904   2.290  0.00  0.00    +0.017 A 
ATOM     12  C   UNL     1      -0.569  -6.595   1.910  0.00  0.00    +0.041 A 
ATOM     13  S   UNL     1      -0.138  -5.019   2.607  0.00  0.00    -0.052 S 
ATOM     14  H   UNL     1      -0.444  -2.077   1.895  0.00  0.00    +0.157 HD
ENDBRANCH   1   2
BRANCH   1  15
ATOM     15  N   UNL     1      -2.105  -0.148  -1.230  0.00  0.00    -0.222 N 
ATOM     16  C   UNL     1      -1.699  -0.512  -2.460  0.00  0.00    +0.254 C 
ATOM     17  O   UNL     1      -0.731  -1.201  -2.711  0.00  0.00    -0.270 OA
ATOM     18  C   UNL     1      -2.627   0.067  -3.454  0.00  0.00    +0.049 A 
ATOM     19  C   UNL     1      -2.709   0.032  -4.837  0.00  0.00    +0.014 A 
ATOM     20  C   UNL     1      -3.737   0.703  -5.481  0.00  0.00    +0.001 A 
ATOM     21  C   UNL     1      -4.679   1.406  -4.754  0.00  0.00    +0.001 A 
ATOM     22  C   UNL     1      -4.610   1.449  -3.370  0.00  0.00    +0.014 A 
ATOM     23  C   UNL     1      -3.588   0.783  -2.712  0.00  0.00    +0.049 A 
ATOM     24  C   UNL     1      -3.214   0.611  -1.293  0.00  0.00    +0.254 C 
ATOM     25  O   UNL     1      -3.807   1.079  -0.342  0.00  0.00    -0.270 OA
ENDBRANCH   1  15
BRANCH   1  27
ATOM     26  C   UNL     1      -0.019   1.526   0.010  0.00  0.00    +0.006 C 
ATOM     27  C   UNL     1       0.002  -0.004   0.002  0.00  0.00    +0.029 C 
ENDBRANCH   1  27
TORSDOF 3
