REMARK  Name = ZINC15007074
REMARK  7 active torsions:
REMARK  status: ('A' for Active; 'I' for Inactive)
REMARK    1  A    between atoms: C_1  and  C_2
REMARK    2  A    between atoms: C_7  and  C_19
REMARK    3  A    between atoms: C_15  and  O_18
REMARK    4  A    between atoms: C_19  and  N_20
REMARK    5  A    between atoms: N_20  and  C_21
REMARK    6  A    between atoms: C_21  and  C_22
REMARK    7  A    between atoms: C_27  and  C_29
REMARK                            x       y       z     vdW  Elec       q    Type
REMARK                         _______ _______ _______ _____ _____    ______ ____
ROOT
ATOM      1  C   UNL     1      -4.507  -8.227   3.444  0.00  0.00    +0.044 C 
ATOM      2  C   UNL     1      -3.675  -7.341   2.553  0.00  0.00    -0.048 A 
ATOM      3  C   UNL     1      -2.317  -7.183   2.818  0.00  0.00    +0.004 A 
ATOM      4  C   UNL     1      -1.539  -6.389   2.030  0.00  0.00    +0.010 A 
ATOM      5  C   UNL     1      -2.112  -5.721   0.937  0.00  0.00    -0.001 A 
ATOM      6  C   UNL     1      -1.338  -4.896   0.096  0.00  0.00    +0.018 A 
ATOM      7  C   UNL     1      -1.957  -4.272  -0.945  0.00  0.00    +0.008 A 
ATOM      8  C   UNL     1      -3.329  -4.470  -1.161  0.00  0.00    +0.104 A 
ATOM      9  C   UNL     1      -3.493  -5.880   0.666  0.00  0.00    +0.048 A 
ATOM     10  C   UNL     1      -4.263  -6.707   1.500  0.00  0.00    +0.029 A 
ATOM     11  N   UNL     1      -3.945  -3.833  -2.228  0.00  0.00    -0.314 N 
ATOM     12  C   UNL     1      -5.039  -2.970  -1.765  0.00  0.00    +0.106 C 
ATOM     13  C   UNL     1      -5.598  -2.175  -2.947  0.00  0.00    +0.021 C 
ATOM     14  C   UNL     1      -6.107  -3.147  -4.015  0.00  0.00    +0.034 C 
ATOM     15  C   UNL     1      -4.960  -4.066  -4.445  0.00  0.00    +0.132 C 
ATOM     16  C   UNL     1      -4.419  -4.806  -3.220  0.00  0.00    +0.137 C 
ATOM     17  N   UNL     1      -4.121  -5.255  -0.390  0.00  0.00    -0.343 N 
ATOM     18  H   UNL     1      -5.122  -5.376  -0.579  0.00  0.00    +0.167 HD
ENDROOT
BRANCH  15  19
ATOM     19  O   UNL     1      -5.440  -5.013  -5.401  0.00  0.00    -0.390 OA
ATOM     20  H   UNL     1      -5.798  -4.613  -6.206  0.00  0.00    +0.210 HD
ENDBRANCH  15  19
BRANCH   7  21
ATOM     21  C   UNL     1      -1.169  -3.377  -1.866  0.00  0.00    +0.146 C 
BRANCH  21  22
ATOM     22  N   UNL     1       0.197  -3.232  -1.355  0.00  0.00    -0.289 N 
ATOM     23  C   UNL     1       0.492  -2.238  -0.494  0.00  0.00    +0.219 C 
ATOM     24  O   UNL     1       1.636  -2.076  -0.124  0.00  0.00    -0.275 OA
BRANCH  23  25
ATOM     25  C   UNL     1      -0.599  -1.329   0.010  0.00  0.00    +0.075 C 
ATOM     26  C   UNL     1      -0.942  -0.299  -1.068  0.00  0.00    +0.013 C 
ATOM     27  C   UNL     1      -2.050   0.625  -0.556  0.00  0.00    +0.001 C 
ATOM     28  C   UNL     1      -1.570   1.347   0.705  0.00  0.00    +0.000 C 
ATOM     29  C   UNL     1      -1.227   0.316   1.782  0.00  0.00    +0.001 C 
ATOM     30  C   UNL     1      -0.119  -0.607   1.271  0.00  0.00    +0.013 C 
ENDBRANCH  23  25
BRANCH  22  31
ATOM     31  C   UNL     1       1.241  -4.168  -1.780  0.00  0.00    +0.182 C 
BRANCH  31  32
ATOM     32  C   UNL     1       1.864  -3.676  -3.061  0.00  0.00    +0.122 A 
ATOM     33  C   UNL     1       2.928  -2.857  -3.155  0.00  0.00    +0.046 A 
ATOM     34  C   UNL     1       3.170  -2.656  -4.533  0.00  0.00    +0.041 A 
ATOM     35  C   UNL     1       2.240  -3.365  -5.199  0.00  0.00    +0.195 A 
ATOM     36  O   UNL     1       1.452  -3.980  -4.303  0.00  0.00    -0.466 OA
ENDBRANCH  31  32
ENDBRANCH  22  31
ENDBRANCH  21  22
ENDBRANCH   7  21
TORSDOF 6
