REMARK  Name = ZINC51320614
REMARK  6 active torsions:
REMARK  status: ('A' for Active; 'I' for Inactive)
REMARK    1  A    between atoms: C_1  and  C_2
REMARK    2  A    between atoms: C_2  and  C_4
REMARK    3  A    between atoms: C_2  and  N_15
REMARK    4  A    between atoms: N_6  and  N_7
REMARK    5  A    between atoms: N_7  and  C_8
REMARK    6  A    between atoms: C_16  and  C_18
REMARK                            x       y       z     vdW  Elec       q    Type
REMARK                         _______ _______ _______ _____ _____    ______ ____
ROOT
ATOM      1  C   UNL     1       0.707  -0.490  -1.238  0.00  0.00    +0.249 C 
ATOM      2  O   UNL     1       0.120  -1.191  -2.034  0.00  0.00    -0.272 OA
ATOM      3  N   UNL     1       1.991  -0.146  -1.462  0.00  0.00    -0.235 N 
ATOM      4  H   UNL     1       2.461   0.415  -0.825  0.00  0.00    +0.173 HD
ENDROOT
BRANCH   1   6
ATOM      5  C   UNL     1      -0.019   1.526   0.010  0.00  0.00    +0.038 C 
ATOM      6  C   UNL     1       0.002  -0.004   0.002  0.00  0.00    +0.158 C 
BRANCH   6   7
ATOM      7  N   UNL     1      -1.372  -0.511   0.012  0.00  0.00    -0.300 N 
ATOM      8  C   UNL     1      -2.029  -0.655   1.181  0.00  0.00    +0.251 C 
ATOM      9  O   UNL     1      -1.480  -0.364   2.227  0.00  0.00    -0.270 OA
ATOM     10  H   UNL     1      -1.810  -0.743  -0.822  0.00  0.00    +0.150 HD
BRANCH   8  11
ATOM     11  C   UNL     1      -3.403  -1.162   1.191  0.00  0.00    +0.075 A 
ATOM     12  C   UNL     1      -4.247  -1.377   2.270  0.00  0.00    +0.022 A 
ATOM     13  C   UNL     1      -5.494  -1.866   1.965  0.00  0.00    +0.024 A 
ATOM     14  C   UNL     1      -5.811  -2.099   0.666  0.00  0.00    +0.056 A 
ATOM     15  S   UNL     1      -4.429  -1.656  -0.181  0.00  0.00    -0.077 S 
ATOM     16 BR   UNL     1      -7.438  -2.764  -0.033  0.00  0.00    -0.043 Br
ENDBRANCH   8  11
ENDBRANCH   6   7
ENDBRANCH   1   6
BRANCH   3  17
ATOM     17  N   UNL     1       2.647  -0.598  -2.614  0.00  0.00    -0.264 N 
ATOM     18  H   UNL     1       2.177  -1.158  -3.251  0.00  0.00    +0.170 HD
BRANCH  17  19
ATOM     19  C   UNL     1       3.979  -0.240  -2.846  0.00  0.00    +0.045 A 
ATOM     20  C   UNL     1       4.654   0.557  -1.932  0.00  0.00    +0.027 A 
ATOM     21  C   UNL     1       5.970   0.909  -2.163  0.00  0.00    +0.040 A 
ATOM     22  C   UNL     1       6.615   0.466  -3.305  0.00  0.00    +0.124 A 
ATOM     23  C   UNL     1       5.944  -0.329  -4.219  0.00  0.00    +0.040 A 
ATOM     24  C   UNL     1       4.630  -0.688  -3.989  0.00  0.00    +0.027 A 
ATOM     25  F   UNL     1       7.902   0.811  -3.530  0.00  0.00    -0.205 F 
ENDBRANCH  17  19
ENDBRANCH   3  17
TORSDOF 5
