REMARK  Name = ZINC00235783
REMARK  4 active torsions:
REMARK  status: ('A' for Active; 'I' for Inactive)
REMARK    1  A    between atoms: C_1  and  C_2
REMARK    2  A    between atoms: C_14  and  S_17
REMARK    3  A    between atoms: S_17  and  C_18
REMARK    4  A    between atoms: C_18  and  C_19
REMARK                            x       y       z     vdW  Elec       q    Type
REMARK                         _______ _______ _______ _____ _____    ______ ____
ROOT
ATOM      1  C   UNL     1      -1.484   2.894   2.317  0.00  0.00    +0.074 C 
ATOM      2  C   UNL     1      -2.067   1.964   1.251  0.00  0.00    +0.259 C 
ATOM      3  N   UNL     1      -1.253   2.058   0.043  0.00  0.00    -0.309 N 
ATOM      4  C   UNL     1      -0.017   1.403   0.010  0.00  0.00    +0.039 A 
ATOM      5  C   UNL     1       1.172   2.109   0.002  0.00  0.00    +0.023 A 
ATOM      6  C   UNL     1       2.376   1.429  -0.001  0.00  0.00    +0.002 A 
ATOM      7  C   UNL     1       2.399   0.044   0.002  0.00  0.00    +0.001 A 
ATOM      8  C   UNL     1       1.219  -0.674   0.003  0.00  0.00    +0.012 A 
ATOM      9  C   UNL     1       0.002  -0.004   0.002  0.00  0.00    +0.028 A 
ATOM     10  C   UNL     1      -1.282  -0.734  -0.021  0.00  0.00    +0.156 A 
ATOM     11  C   UNL     1      -2.309  -0.367   0.878  0.00  0.00    +0.248 A 
ATOM     12  N   UNL     1      -3.456  -1.023   0.835  0.00  0.00    -0.184 NA
ATOM     13  C   UNL     1      -3.608  -2.010  -0.044  0.00  0.00    +0.213 A 
ATOM     14  N   UNL     1      -2.629  -2.343  -0.875  0.00  0.00    -0.122 NA
ATOM     15  N   UNL     1      -1.497  -1.727  -0.870  0.00  0.00    -0.141 NA
ATOM     16  O   UNL     1      -2.103   0.637   1.763  0.00  0.00    -0.453 OA
ATOM     17  H   UNL     1      -1.563   2.564  -0.724  0.00  0.00    +0.150 HD
ENDROOT
BRANCH  13  18
ATOM     18  S   UNL     1      -5.135  -2.888  -0.107  0.00  0.00    -0.080 S 
BRANCH  18  19
ATOM     19  C   UNL     1      -4.768  -4.061  -1.435  0.00  0.00    +0.112 C 
BRANCH  19  20
ATOM     20  C   UNL     1      -5.967  -4.943  -1.672  0.00  0.00    -0.037 A 
ATOM     21  C   UNL     1      -6.098  -6.132  -0.979  0.00  0.00    +0.004 A 
ATOM     22  C   UNL     1      -7.200  -6.938  -1.191  0.00  0.00    +0.000 A 
ATOM     23  C   UNL     1      -8.166  -6.561  -2.105  0.00  0.00    +0.000 A 
ATOM     24  C   UNL     1      -8.033  -5.375  -2.802  0.00  0.00    +0.000 A 
ATOM     25  C   UNL     1      -6.934  -4.566  -2.585  0.00  0.00    +0.004 A 
ENDBRANCH  19  20
ENDBRANCH  18  19
ENDBRANCH  13  18
TORSDOF 3
