REMARK  Name = ZINC12056843
REMARK  3 active torsions:
REMARK  status: ('A' for Active; 'I' for Inactive)
REMARK    1  A    between atoms: C_1  and  C_2
REMARK    2  A    between atoms: C_8  and  C_10
REMARK    3  A    between atoms: C_19  and  C_21
REMARK                            x       y       z     vdW  Elec       q    Type
REMARK                         _______ _______ _______ _____ _____    ______ ____
ROOT
ATOM      1  C   UNL     1       4.385   1.634   0.674  0.00  0.00    +0.088 C 
ATOM      2  C   UNL     1       3.722   0.254   0.652  0.00  0.00    +0.070 C 
ATOM      3  C   UNL     1       2.212   0.454   0.655  0.00  0.00    +0.062 A 
ATOM      4  C   UNL     1       1.687   1.630   0.103  0.00  0.00    +0.079 A 
ATOM      5  S   UNL     1      -0.052   1.416   0.339  0.00  0.00    -0.049 S 
ATOM      6  C   UNL     1       0.025  -0.141   1.111  0.00  0.00    +0.165 A 
ATOM      7  N   UNL     1       1.328  -0.386   1.138  0.00  0.00    -0.229 NA
ATOM      8  N   UNL     1      -1.012  -0.926   1.578  0.00  0.00    -0.264 N 
ATOM      9  C   UNL     1      -2.286  -0.502   1.459  0.00  0.00    +0.222 C 
ATOM     10  O   UNL     1      -2.522   0.569   0.941  0.00  0.00    -0.275 OA
ATOM     11  C   UNL     1       2.429   2.657  -0.469  0.00  0.00    +0.172 C 
ATOM     12  O   UNL     1       1.895   3.655  -0.910  0.00  0.00    -0.291 OA
ATOM     13  C   UNL     1       3.936   2.478  -0.519  0.00  0.00    +0.093 C 
ATOM     14  H   UNL     1      -0.823  -1.783   1.992  0.00  0.00    +0.157 HD
ENDROOT
BRANCH   1  22
ATOM     15  C   UNL     1       8.956   4.106   4.269  0.00  0.00    +0.007 C 
ATOM     16  C   UNL     1       8.298   3.878   2.906  0.00  0.00    -0.011 C 
ATOM     17  C   UNL     1       6.777   3.843   3.073  0.00  0.00    +0.022 C 
ATOM     18  C   UNL     1       6.122   3.649   1.702  0.00  0.00    +0.108 C 
ATOM     19  N   UNL     1       6.687   2.447   1.074  0.00  0.00    -0.301 N 
ATOM     20  C   UNL     1       8.147   2.335   0.951  0.00  0.00    +0.108 C 
ATOM     21  C   UNL     1       8.780   2.546   2.325  0.00  0.00    +0.022 C 
ATOM     22  C   UNL     1       5.882   1.465   0.624  0.00  0.00    +0.219 C 
ATOM     23  O   UNL     1       6.362   0.444   0.178  0.00  0.00    -0.275 OA
ENDBRANCH   1  22
BRANCH   9  24
ATOM     24  C   UNL     1      -3.416  -1.358   1.968  0.00  0.00    +0.075 C 
ATOM     25  C   UNL     1      -3.848  -2.458   0.984  0.00  0.00    +0.013 C 
ATOM     26  C   UNL     1      -5.297  -2.143   1.390  0.00  0.00    +0.001 C 
ATOM     27  C   UNL     1      -4.806  -0.733   1.757  0.00  0.00    +0.013 C 
ENDBRANCH   9  24
TORSDOF 2
