REMARK  Name = ZINC65968617
REMARK  2 active torsions:
REMARK  status: ('A' for Active; 'I' for Inactive)
REMARK    1  A    between atoms: C_12  and  C_14
REMARK    2  A    between atoms: C_14  and  N_15
REMARK                            x       y       z     vdW  Elec       q    Type
REMARK                         _______ _______ _______ _____ _____    ______ ____
ROOT
ATOM      1  C   UNL     1      12.277  -0.111  -3.240  0.00  0.00    +0.010 C 
ATOM      2  C   UNL     1      11.784   0.616  -1.974  0.00  0.00    +0.037 C 
ATOM      3  C   UNL     1      10.997  -0.430  -1.180  0.00  0.00    -0.023 A 
ATOM      4  C   UNL     1      11.331  -1.648  -1.640  0.00  0.00    -0.004 A 
ATOM      5  S   UNL     1      10.376  -2.786  -0.662  0.00  0.00    -0.073 S 
ATOM      6  C   UNL     1       9.527  -1.613   0.361  0.00  0.00    +0.116 A 
ATOM      7  C   UNL     1      10.013  -0.378  -0.088  0.00  0.00    +0.075 A 
ATOM      8  C   UNL     1       9.488   0.779   0.574  0.00  0.00    +0.260 A 
ATOM      9  O   UNL     1       9.851   1.897   0.251  0.00  0.00    -0.267 OA
ATOM     10  N   UNL     1       8.586   0.608   1.559  0.00  0.00    -0.312 N 
ATOM     11  H   UNL     1       8.225   1.386   2.012  0.00  0.00    +0.170 HD
ATOM     12  C   UNL     1       8.171  -0.631   1.929  0.00  0.00    +0.094 A 
ATOM     13  N   UNL     1       8.633  -1.703   1.343  0.00  0.00    -0.229 NA
ATOM     14  C   UNL     1      12.337  -1.577  -2.757  0.00  0.00    +0.043 C 
ENDROOT
BRANCH  12  15
ATOM     15  C   UNL     1       7.159  -0.771   3.037  0.00  0.00    -0.003 C 
BRANCH  15  16
ATOM     16  N   UNL     1       6.976  -2.193   3.356  0.00  0.00    +0.386 N 
ATOM     17  C   UNL     1       5.800  -2.319   4.164  0.00  0.00    -0.074 C 
ATOM     18  C   UNL     1       5.719  -3.560   4.999  0.00  0.00    -0.027 C 
ATOM     19  C   UNL     1       6.168  -4.823   4.297  0.00  0.00    +0.005 C 
ATOM     20  C   UNL     1       7.663  -5.077   4.378  0.00  0.00    -0.012 C 
ATOM     21  C   UNL     1       8.163  -4.946   5.818  0.00  0.00    +0.007 C 
ATOM     22  C   UNL     1       7.822  -3.539   6.312  0.00  0.00    -0.012 C 
ATOM     23  C   UNL     1       6.298  -3.413   6.388  0.00  0.00    +0.005 C 
ATOM     24  C   UNL     1       8.393  -2.473   5.401  0.00  0.00    -0.012 C 
ATOM     25  C   UNL     1       8.203  -2.684   3.928  0.00  0.00    -0.067 C 
ATOM     26  C   UNL     1       8.459  -4.123   3.493  0.00  0.00    -0.012 C 
ATOM     27  H   UNL     1       6.815  -2.687   2.491  0.00  0.00    -0.081 HD
ENDBRANCH  15  16
ENDBRANCH  12  15
TORSDOF 2
