REMARK  Name = ZINC15015723
REMARK  9 active torsions:
REMARK  status: ('A' for Active; 'I' for Inactive)
REMARK    1  A    between atoms: C_1  and  O_2
REMARK    2  A    between atoms: O_2  and  C_3
REMARK    3  A    between atoms: C_5  and  C_11
REMARK    4  A    between atoms: C_8  and  O_9
REMARK    5  A    between atoms: N_15  and  N_19
REMARK    6  A    between atoms: C_20  and  C_21
REMARK    7  A    between atoms: C_23  and  O_29
REMARK    8  A    between atoms: C_24  and  O_28
REMARK    9  A    between atoms: O_29  and  C_30
REMARK                            x       y       z     vdW  Elec       q    Type
REMARK                         _______ _______ _______ _____ _____    ______ ____
ROOT
ATOM      1  C   UNL     1       0.381   5.992  -0.313  0.00  0.00    +0.029 C 
ATOM      2  C   UNL     1       1.006   5.513  -1.419  0.00  0.00    +0.079 C 
ATOM      3  C   UNL     1       1.735   6.240  -2.476  0.00  0.00    +0.278 C 
ATOM      4  O   UNL     1       1.855   7.451  -2.453  0.00  0.00    -0.267 OA
ATOM      5  N   UNL     1       2.252   5.510  -3.450  0.00  0.00    -0.142 N 
ATOM      6  C   UNL     1       2.116   4.168  -3.473  0.00  0.00    +0.142 C 
ATOM      7  S   UNL     1       2.706   3.059  -4.636  0.00  0.00    -0.025 S 
ATOM      8  S   UNL     1       1.178   3.829  -1.992  0.00  0.00    -0.059 S 
ENDROOT
BRANCH   1  11
ATOM      9  C   UNL     1      -1.778   3.113   0.741  0.00  0.00    +0.162 A 
ATOM     10  C   UNL     1      -1.015   3.953  -0.045  0.00  0.00    +0.058 A 
ATOM     11  C   UNL     1      -0.431   5.095   0.517  0.00  0.00    -0.002 A 
ATOM     12  C   UNL     1      -0.625   5.378   1.876  0.00  0.00    +0.052 A 
ATOM     13  C   UNL     1      -1.389   4.532   2.653  0.00  0.00    +0.069 A 
ATOM     14  C   UNL     1      -1.971   3.404   2.091  0.00  0.00    +0.160 A 
ATOM     15 CL   UNL     1       0.095   6.792   2.581  0.00  0.00    -0.083 Cl
BRANCH   9  17
ATOM     16  C   UNL     1      -2.112   1.769  -1.193  0.00  0.00    +0.277 C 
ATOM     17  O   UNL     1      -2.346   2.003   0.197  0.00  0.00    -0.491 OA
ENDBRANCH   9  17
BRANCH  14  18
ATOM     18  O   UNL     1      -2.727   2.578   2.860  0.00  0.00    -0.503 OA
ATOM     19  H   UNL     1      -2.225   1.870   3.287  0.00  0.00    +0.292 HD
ENDBRANCH  14  18
ENDBRANCH   1  11
BRANCH   5  20
ATOM     20  N   UNL     1       2.956   6.144  -4.482  0.00  0.00    -0.179 NA
ATOM     21  C   UNL     1       2.509   6.091  -5.700  0.00  0.00    +0.140 C 
BRANCH  21  22
ATOM     22  C   UNL     1       3.195   6.839  -6.769  0.00  0.00    +0.017 A 
ATOM     23  C   UNL     1       2.719   6.779  -8.082  0.00  0.00    +0.060 A 
ATOM     24  C   UNL     1       3.363   7.486  -9.080  0.00  0.00    +0.162 A 
ATOM     25  C   UNL     1       4.491   8.247  -8.779  0.00  0.00    +0.160 A 
ATOM     26  C   UNL     1       4.968   8.303  -7.478  0.00  0.00    +0.069 A 
ATOM     27  C   UNL     1       4.327   7.604  -6.474  0.00  0.00    +0.053 A 
ATOM     28 CL   UNL     1       4.927   7.676  -4.847  0.00  0.00    -0.083 Cl
BRANCH  25  29
ATOM     29  O   UNL     1       5.125   8.938  -9.763  0.00  0.00    -0.503 OA
ATOM     30  H   UNL     1       5.824   8.438 -10.207  0.00  0.00    +0.292 HD
ENDBRANCH  25  29
BRANCH  24  31
ATOM     31  O   UNL     1       2.899   7.434 -10.357  0.00  0.00    -0.491 OA
ATOM     32  C   UNL     1       1.738   6.635 -10.594  0.00  0.00    +0.277 C 
ENDBRANCH  24  31
ENDBRANCH  21  22
ENDBRANCH   5  20
TORSDOF 7
