REMARK  Name = ZINC64958554
REMARK  8 active torsions:
REMARK  status: ('A' for Active; 'I' for Inactive)
REMARK    1  A    between atoms: C_1  and  C_2
REMARK    2  A    between atoms: C_5  and  N_9
REMARK    3  A    between atoms: C_6  and  C_8
REMARK    4  A    between atoms: N_9  and  S_10
REMARK    5  A    between atoms: S_10  and  C_13
REMARK    6  A    between atoms: C_16  and  C_18
REMARK    7  A    between atoms: C_19  and  C_24
REMARK    8  A    between atoms: C_20  and  C_23
REMARK                            x       y       z     vdW  Elec       q    Type
REMARK                         _______ _______ _______ _____ _____    ______ ____
ROOT
ATOM      1  S   UNL     1       0.780  -4.979  -1.271  0.00  0.00    +0.106 S 
ATOM      2  O   UNL     1       0.556  -6.363  -1.040  0.00  0.00    -0.147 OA
ATOM      3  O   UNL     1       0.369  -4.331  -2.467  0.00  0.00    -0.147 OA
ENDROOT
BRANCH   1   4
ATOM      4  C   UNL     1       2.517  -4.719  -1.127  0.00  0.00    +0.262 A 
ATOM      5  C   UNL     1       3.374  -5.500  -0.439  0.00  0.00    +0.072 A 
ATOM      6  C   UNL     1       4.655  -4.937  -0.586  0.00  0.00    +0.055 A 
ATOM      7  C   UNL     1       4.509  -3.828  -1.365  0.00  0.00    +0.175 A 
ATOM      8  O   UNL     1       3.206  -3.713  -1.689  0.00  0.00    -0.433 OA
BRANCH   7   9
ATOM      9  C   UNL     1       5.586  -2.919  -1.784  0.00  0.00    +0.205 A 
ATOM     10  C   UNL     1       5.444  -1.805  -2.560  0.00  0.00    +0.022 A 
ATOM     11  C   UNL     1       6.710  -1.227  -2.721  0.00  0.00    +0.084 A 
ATOM     12  N   UNL     1       7.579  -1.955  -2.075  0.00  0.00    -0.083 NA
ATOM     13  O   UNL     1       6.891  -3.033  -1.467  0.00  0.00    -0.351 OA
ATOM     14  C   UNL     1       7.015   0.022  -3.507  0.00  0.00    +0.069 C 
ATOM     15  C   UNL     1       4.153  -1.288  -3.141  0.00  0.00    +0.050 C 
ENDBRANCH   7   9
ENDBRANCH   1   4
BRANCH   1  16
ATOM     16  N   UNL     1       0.058  -4.167  -0.021  0.00  0.00    -0.213 N 
ATOM     17  H   UNL     1      -0.472  -4.653   0.631  0.00  0.00    +0.174 HD
BRANCH  16  22
ATOM     18  C   UNL     1       0.683   1.449   0.450  0.00  0.00    +0.044 C 
ATOM     19  C   UNL     1       0.517  -0.043   0.325  0.00  0.00    -0.050 A 
ATOM     20  C   UNL     1       0.426  -0.625  -0.926  0.00  0.00    +0.005 A 
ATOM     21  C   UNL     1       0.274  -1.992  -1.045  0.00  0.00    +0.025 A 
ATOM     22  C   UNL     1       0.212  -2.784   0.095  0.00  0.00    +0.051 A 
ATOM     23  C   UNL     1       0.304  -2.197   1.351  0.00  0.00    -0.028 A 
ATOM     24  C   UNL     1       0.461  -0.829   1.462  0.00  0.00    +0.008 A 
ATOM     25  C   UNL     1       0.236  -3.051   2.590  0.00  0.00    +0.046 C 
ENDBRANCH  16  22
ENDBRANCH   1  16
TORSDOF 4
