REMARK  Name = ZINC09157795
REMARK  10 active torsions:
REMARK  status: ('A' for Active; 'I' for Inactive)
REMARK    1  A    between atoms: C_1  and  C_2
REMARK    2  A    between atoms: C_2  and  C_3
REMARK    3  A    between atoms: C_2  and  C_4
REMARK    4  A    between atoms: C_4  and  C_5
REMARK    5  A    between atoms: N_9  and  C_13
REMARK    6  A    between atoms: C_13  and  N_59
REMARK    7  A    between atoms: C_14  and  N_59
REMARK    8  A    between atoms: C_15  and  C_16
REMARK    9  A    between atoms: C_15  and  N_59
REMARK   10  A    between atoms: C_21  and  N_22
REMARK                            x       y       z     vdW  Elec       q    Type
REMARK                         _______ _______ _______ _____ _____    ______ ____
ROOT
ATOM      1  C   UNL     1       2.313  -0.081  -1.978  0.00  0.00    -0.093 C 
ATOM      2  N   UNL     1       2.781   1.261  -1.571  0.00  0.00    +0.391 N 
ATOM      3  H   UNL     1       2.329   1.966  -2.163  0.00  0.00    -0.079 HD
ENDROOT
BRANCH   2   4
ATOM      4  C   UNL     1       2.419   1.514  -0.160  0.00  0.00    +0.043 C 
BRANCH   4   8
ATOM      5  C   UNL     1      -1.249   2.066   0.027  0.00  0.00    +0.161 C 
ATOM      6  C   UNL     1      -0.034   1.160   0.031  0.00  0.00    +0.242 C 
ATOM      7  O   UNL     1      -0.022  -0.048   0.134  0.00  0.00    -0.273 OA
ATOM      8  N   UNL     1       1.030   1.975  -0.109  0.00  0.00    -0.241 N 
ATOM      9  C   UNL     1       0.660   3.258  -0.196  0.00  0.00    +0.307 C 
ATOM     10  O   UNL     1       1.441   4.179  -0.327  0.00  0.00    -0.252 OA
ATOM     11  N   UNL     1      -0.674   3.414  -0.122  0.00  0.00    -0.288 N 
ATOM     12  H   UNL     1      -1.163   4.251  -0.161  0.00  0.00    +0.151 HD
BRANCH   5  13
ATOM     13  C   UNL     1      -2.163   1.735  -1.154  0.00  0.00    +0.034 C 
BRANCH  13  15
ATOM     14  C   UNL     1      -4.263   2.383  -2.344  0.00  0.00    +0.007 C 
ATOM     15  C   UNL     1      -3.418   2.608  -1.089  0.00  0.00    -0.015 C 
ATOM     16  C   UNL     1      -4.235   2.234   0.150  0.00  0.00    +0.007 C 
ENDBRANCH  13  15
ENDBRANCH   5  13
ENDBRANCH   4   8
ENDBRANCH   2   4
BRANCH   2  17
ATOM     17  C   UNL     1       4.246   1.358  -1.742  0.00  0.00    -0.039 C 
BRANCH  17  18
ATOM     18  C   UNL     1       4.568   1.315  -3.213  0.00  0.00    -0.043 A 
ATOM     19  C   UNL     1       5.024   0.145  -3.787  0.00  0.00    +0.003 A 
ATOM     20  C   UNL     1       5.315   0.104  -5.139  0.00  0.00    +0.000 A 
ATOM     21  C   UNL     1       5.160   1.236  -5.917  0.00  0.00    +0.002 A 
ATOM     22  C   UNL     1       4.709   2.410  -5.349  0.00  0.00    +0.023 A 
ATOM     23  C   UNL     1       4.411   2.454  -3.992  0.00  0.00    +0.031 A 
BRANCH  23  24
ATOM     24  N   UNL     1       3.955   3.641  -3.414  0.00  0.00    -0.330 N 
ATOM     25  C   UNL     1       2.653   4.031  -3.970  0.00  0.00    +0.105 C 
ATOM     26  C   UNL     1       2.118   5.250  -3.214  0.00  0.00    +0.019 C 
ATOM     27  C   UNL     1       3.117   6.403  -3.343  0.00  0.00    +0.003 C 
ATOM     28  C   UNL     1       4.476   5.954  -2.801  0.00  0.00    +0.019 C 
ATOM     29  C   UNL     1       4.943   4.716  -3.569  0.00  0.00    +0.105 C 
ENDBRANCH  23  24
ENDBRANCH  17  18
ENDBRANCH   2  17
TORSDOF 7
