REMARK  Name = ZINC43426086
REMARK  4 active torsions:
REMARK  status: ('A' for Active; 'I' for Inactive)
REMARK    1  A    between atoms: C_1  and  C_2
REMARK    2  A    between atoms: C_2  and  C_4
REMARK    3  A    between atoms: C_2  and  O_22
REMARK    4  A    between atoms: C_7  and  N_11
REMARK                            x       y       z     vdW  Elec       q    Type
REMARK                         _______ _______ _______ _____ _____    ______ ____
ROOT
ATOM      1  C   UNL     1       0.707  -0.490  -1.238  0.00  0.00    -0.017 A 
ATOM      2  C   UNL     1       2.085  -0.608  -1.246  0.00  0.00    +0.008 A 
ATOM      3  C   UNL     1       2.736  -1.053  -2.381  0.00  0.00    +0.026 A 
ATOM      4  C   UNL     1       2.006  -1.382  -3.514  0.00  0.00    +0.066 A 
ATOM      5  C   UNL     1       0.620  -1.263  -3.504  0.00  0.00    +0.145 A 
ATOM      6  C   UNL     1      -0.025  -0.822  -2.363  0.00  0.00    +0.046 A 
ATOM      7  F   UNL     1      -0.095  -1.582  -4.605  0.00  0.00    -0.204 F 
ENDROOT
BRANCH   4   8
ATOM      8  N   UNL     1       2.661  -1.832  -4.665  0.00  0.00    -0.320 N 
ATOM      9  C   UNL     1       3.139  -0.913  -5.723  0.00  0.00    +0.133 C 
ATOM     10  C   UNL     1       2.707  -1.407  -7.103  0.00  0.00    +0.179 C 
ATOM     11  O   UNL     1       2.932  -2.819  -7.263  0.00  0.00    -0.373 OA
ATOM     12  C   UNL     1       2.245  -3.559  -6.277  0.00  0.00    +0.139 C 
ATOM     13  C   UNL     1       2.934  -3.241  -4.913  0.00  0.00    +0.102 C 
ATOM     14  C   UNL     1       2.312  -4.259  -3.967  0.00  0.00    +0.025 C 
ATOM     15  C   UNL     1       1.986  -5.491  -4.851  0.00  0.00    +0.004 C 
ATOM     16  C   UNL     1       2.333  -5.084  -6.318  0.00  0.00    +0.033 C 
ENDBRANCH   4   8
BRANCH   1  18
ATOM     17  C   UNL     1      -0.019   1.526   0.010  0.00  0.00    +0.043 C 
ATOM     18  C   UNL     1       0.002  -0.004   0.002  0.00  0.00    +0.142 C 
BRANCH  18  19
ATOM     19  O   UNL     1       0.693  -0.477   1.160  0.00  0.00    -0.387 OA
ATOM     20  H   UNL     1       0.294  -0.202   1.996  0.00  0.00    +0.210 HD
ENDBRANCH  18  19
ENDBRANCH   1  18
TORSDOF 3
