REMARK  Name = ZINC59966184
REMARK  7 active torsions:
REMARK  status: ('A' for Active; 'I' for Inactive)
REMARK    1  A    between atoms: C_3  and  S_26
REMARK    2  A    between atoms: C_6  and  C_7
REMARK    3  A    between atoms: C_7  and  C_8
REMARK    4  A    between atoms: C_8  and  N_9
REMARK    5  A    between atoms: C_10  and  C_12
REMARK    6  A    between atoms: N_16  and  C_19
REMARK    7  A    between atoms: S_26  and  N_29
REMARK                            x       y       z     vdW  Elec       q    Type
REMARK                         _______ _______ _______ _____ _____    ______ ____
ROOT
ATOM      1  N   UNL     1      -3.004  -1.778  -1.420  0.00  0.00    -0.314 N 
ATOM      2  C   UNL     1      -3.594  -2.117  -2.584  0.00  0.00    +0.225 C 
ATOM      3  O   UNL     1      -3.084  -1.801  -3.637  0.00  0.00    -0.275 OA
ATOM      4  H   UNL     1      -3.412  -2.031  -0.578  0.00  0.00    +0.149 HD
ENDROOT
BRANCH   2   5
ATOM      5  C   UNL     1      -4.889  -2.888  -2.575  0.00  0.00    +0.162 C 
ATOM      6  C   UNL     1      -5.392  -3.117  -4.019  0.00  0.00    +0.041 C 
ATOM      7  C   UNL     1      -6.921  -2.988  -3.844  0.00  0.00    +0.115 C 
ATOM      8  N   UNL     1      -7.110  -2.143  -2.659  0.00  0.00    -0.271 N 
ATOM      9  C   UNL     1      -5.985  -2.075  -1.922  0.00  0.00    +0.232 C 
ATOM     10  O   UNL     1      -5.866  -1.453  -0.887  0.00  0.00    -0.274 OA
BRANCH   8  11
ATOM     11  C   UNL     1      -8.306  -1.493  -2.334  0.00  0.00    +0.036 A 
ATOM     12  C   UNL     1      -9.418  -1.631  -3.155  0.00  0.00    +0.025 A 
ATOM     13  C   UNL     1     -10.597  -0.989  -2.833  0.00  0.00    +0.022 A 
ATOM     14  C   UNL     1     -10.672  -0.208  -1.692  0.00  0.00    +0.041 A 
ATOM     15  C   UNL     1      -9.565  -0.069  -0.873  0.00  0.00    +0.022 A 
ATOM     16  C   UNL     1      -8.385  -0.714  -1.188  0.00  0.00    +0.025 A 
ATOM     17 CL   UNL     1     -12.155   0.598  -1.290  0.00  0.00    -0.084 Cl
ENDBRANCH   8  11
ENDBRANCH   2   5
BRANCH   1  18
ATOM     18  C   UNL     1      -1.745  -1.028  -1.429  0.00  0.00    +0.109 C 
BRANCH  18  19
ATOM     19  C   UNL     1      -1.293  -0.775   0.011  0.00  0.00    +0.054 C 
BRANCH  19  25
ATOM     20  C   UNL     1      -0.017   1.378   0.010  0.00  0.00    +0.005 A 
ATOM     21  C   UNL     1       1.171   2.086   0.002  0.00  0.00    +0.029 A 
ATOM     22  C   UNL     1       2.377   1.411  -0.013  0.00  0.00    +0.105 A 
ATOM     23  C   UNL     1       2.396   0.029  -0.020  0.00  0.00    +0.029 A 
ATOM     24  C   UNL     1       1.208  -0.679  -0.012  0.00  0.00    +0.005 A 
ATOM     25  C   UNL     1       0.002  -0.004   0.002  0.00  0.00    -0.046 A 
BRANCH  22  26
ATOM     26  S   UNL     1       3.891   2.312  -0.024  0.00  0.00    +0.056 S 
ATOM     27  O   UNL     1       4.872   1.453  -0.588  0.00  0.00    -0.153 OA
ATOM     28  O   UNL     1       3.597   3.593  -0.566  0.00  0.00    -0.153 OA
BRANCH  26  29
ATOM     29  N   UNL     1       4.327   2.556   1.555  0.00  0.00    -0.204 NA
ATOM     30  H   UNL     1       5.265   2.623   1.794  0.00  0.00    +0.144 HD
ATOM     31  H   UNL     1       3.645   2.631   2.241  0.00  0.00    +0.144 HD
ENDBRANCH  26  29
ENDBRANCH  22  26
ENDBRANCH  19  25
ENDBRANCH  18  19
ENDBRANCH   1  18
TORSDOF 7
