REMARK  Name = ZINC03983975
REMARK  10 active torsions:
REMARK  status: ('A' for Active; 'I' for Inactive)
REMARK    1  A    between atoms: C_1  and  C_2
REMARK    2  A    between atoms: C_11  and  C_28
REMARK    3  A    between atoms: C_11  and  O_35
REMARK    4  A    between atoms: C_12  and  C_27
REMARK    5  A    between atoms: C_14  and  O_26
REMARK    6  A    between atoms: C_18  and  C_25
REMARK    7  A    between atoms: C_28  and  C_30
REMARK    8  A    between atoms: C_30  and  O_31
REMARK    9  A    between atoms: O_31  and  C_32
REMARK   10  A    between atoms: C_32  and  C_34
REMARK                            x       y       z     vdW  Elec       q    Type
REMARK                         _______ _______ _______ _____ _____    ______ ____
ROOT
ATOM      1  C   UNL     1       0.046   1.362   0.350  0.00  0.00    +0.012 C 
ATOM      2  C   UNL     1       0.085  -0.162   0.269  0.00  0.00    +0.013 C 
ATOM      3  C   UNL     1       0.710  -0.572  -1.076  0.00  0.00    +0.012 C 
ATOM      4  C   UNL     1       0.773  -2.098  -1.140  0.00  0.00    -0.000 C 
ATOM      5  C   UNL     1       1.200  -2.611  -2.485  0.00  0.00    +0.002 C 
ATOM      6  C   UNL     1       1.246  -1.590  -3.631  0.00  0.00    +0.008 C 
ATOM      7  C   UNL     1       2.125  -2.292  -4.702  0.00  0.00    +0.043 C 
ATOM      8  C   UNL     1       2.809  -3.492  -3.995  0.00  0.00    +0.133 C 
ATOM      9  C   UNL     1       2.633  -3.176  -2.495  0.00  0.00    +0.009 C 
ATOM     10  C   UNL     1       2.768  -4.332  -1.548  0.00  0.00    +0.041 C 
ATOM     11  C   UNL     1       2.068  -4.061  -0.204  0.00  0.00    +0.120 C 
ATOM     12  C   UNL     1       1.682  -2.610  -0.030  0.00  0.00    +0.035 C 
ATOM     13  C   UNL     1       1.083  -2.281   1.339  0.00  0.00    +0.013 C 
ATOM     14  C   UNL     1       0.898  -0.778   1.390  0.00  0.00    -0.053 C 
ATOM     15  C   UNL     1       1.413  -0.041   2.357  0.00  0.00    +0.051 C 
ATOM     16  C   UNL     1       2.224  -0.645   3.431  0.00  0.00    +0.179 C 
ATOM     17  O   UNL     1       2.676   0.047   4.324  0.00  0.00    -0.288 OA
ATOM     18  C   UNL     1       2.476  -2.093   3.394  0.00  0.00    +0.047 C 
ATOM     19  C   UNL     1       1.945  -2.822   2.428  0.00  0.00    -0.012 C 
ATOM     20  C   UNL     1      -0.295  -2.915   1.495  0.00  0.00    +0.020 C 
ATOM     21  C   UNL     1       3.684  -2.098  -2.188  0.00  0.00    +0.015 C 
ENDROOT
BRANCH  11  22
ATOM     22  O   UNL     1       0.917  -4.912  -0.127  0.00  0.00    -0.391 OA
ATOM     23  H   UNL     1       1.121  -5.856  -0.173  0.00  0.00    +0.210 HD
ENDBRANCH  11  22
BRANCH   8  24
ATOM     24  C   UNL     1       2.141  -4.774  -4.390  0.00  0.00    +0.202 C 
ATOM     25  O   UNL     1       1.194  -5.181  -3.760  0.00  0.00    -0.291 OA
BRANCH  24  26
ATOM     26  C   UNL     1       2.651  -5.557  -5.572  0.00  0.00    +0.309 C 
BRANCH  26  27
ATOM     27  O   UNL     1       1.856  -6.732  -5.745  0.00  0.00    -0.457 OA
BRANCH  27  28
ATOM     28  C   UNL     1       2.182  -7.544  -6.763  0.00  0.00    +0.304 C 
ATOM     29  O   UNL     1       3.111  -7.266  -7.484  0.00  0.00    -0.251 OA
ATOM     30  C   UNL     1       1.388  -8.801  -7.008  0.00  0.00    +0.136 C 
ENDBRANCH  27  28
ENDBRANCH  26  27
ENDBRANCH  24  26
ENDBRANCH   8  24
BRANCH   8  31
ATOM     31  O   UNL     1       4.200  -3.525  -4.315  0.00  0.00    -0.380 OA
ATOM     32  H   UNL     1       4.384  -3.638  -5.258  0.00  0.00    +0.211 HD
ENDBRANCH   8  31
TORSDOF 6
