REMARK  Name = ZINC57992041
REMARK  3 active torsions:
REMARK  status: ('A' for Active; 'I' for Inactive)
REMARK    1  A    between atoms: C_1  and  C_2
REMARK    2  A    between atoms: C_7  and  N_8
REMARK    3  A    between atoms: C_9  and  C_11
REMARK                            x       y       z     vdW  Elec       q    Type
REMARK                         _______ _______ _______ _____ _____    ______ ____
ROOT
ATOM      1  C   UNL     1       0.065   0.232   4.780  0.00  0.00    +0.111 C 
ATOM      2  C   UNL     1      -1.270   1.009   4.934  0.00  0.00    +0.034 C 
ATOM      3  C   UNL     1      -2.181  -0.057   5.589  0.00  0.00    +0.059 C 
ATOM      4  C   UNL     1      -3.259   0.646   6.430  0.00  0.00    +0.020 C 
ATOM      5  C   UNL     1      -2.951   0.254   7.893  0.00  0.00    +0.017 C 
ATOM      6  C   UNL     1      -1.448  -0.113   7.844  0.00  0.00    +0.086 C 
ATOM      7  N   UNL     1      -1.289  -0.800   6.517  0.00  0.00    -0.282 NA
ATOM      8  C   UNL     1       0.095  -0.657   6.032  0.00  0.00    +0.137 C 
ATOM      9  C   UNL     1       0.711  -1.996   5.725  0.00  0.00    +0.004 A 
ATOM     10  C   UNL     1       0.377  -3.013   4.858  0.00  0.00    +0.008 A 
ATOM     11  C   UNL     1       1.156  -4.154   4.798  0.00  0.00    +0.000 A 
ATOM     12  C   UNL     1       2.270  -4.270   5.609  0.00  0.00    +0.002 A 
ATOM     13  C   UNL     1       2.609  -3.253   6.477  0.00  0.00    +0.023 A 
ATOM     14  C   UNL     1       1.829  -2.101   6.545  0.00  0.00    +0.039 A 
ATOM     15  N   UNL     1       1.962  -0.954   7.330  0.00  0.00    -0.283 N 
ATOM     16  C   UNL     1       0.986  -0.059   7.090  0.00  0.00    +0.243 C 
ATOM     17  O   UNL     1       0.850   1.022   7.623  0.00  0.00    -0.273 OA
ATOM     18  H   UNL     1       2.675  -0.818   7.973  0.00  0.00    +0.155 HD
ENDROOT
BRANCH   1  20
ATOM     19  N   UNL     1       1.214  -1.012   2.977  0.00  0.00    -0.285 N 
ATOM     20  C   UNL     1       0.053  -0.609   3.529  0.00  0.00    +0.223 C 
ATOM     21  O   UNL     1      -1.003  -0.922   3.019  0.00  0.00    -0.275 OA
ATOM     22  H   UNL     1       2.055  -0.808   3.413  0.00  0.00    +0.155 HD
BRANCH  19  29
ATOM     23  C   UNL     1       3.386  -0.640   1.177  0.00  0.00    +0.045 C 
ATOM     24  C   UNL     1       2.245  -1.575   0.867  0.00  0.00    -0.029 A 
ATOM     25  C   UNL     1       2.237  -2.285  -0.318  0.00  0.00    +0.005 A 
ATOM     26  C   UNL     1       1.190  -3.143  -0.603  0.00  0.00    +0.000 A 
ATOM     27  C   UNL     1       0.150  -3.292   0.295  0.00  0.00    +0.002 A 
ATOM     28  C   UNL     1       0.153  -2.585   1.481  0.00  0.00    +0.023 A 
ATOM     29  C   UNL     1       1.205  -1.726   1.773  0.00  0.00    +0.036 A 
ENDBRANCH  19  29
ENDBRANCH   1  20
TORSDOF 2
