REMARK  Name = ZINC06581030
REMARK  4 active torsions:
REMARK  status: ('A' for Active; 'I' for Inactive)
REMARK    1  A    between atoms: C_1  and  C_2
REMARK    2  A    between atoms: C_12  and  C_14
REMARK    3  A    between atoms: C_14  and  N_15
REMARK    4  A    between atoms: C_22  and  C_25
REMARK                            x       y       z     vdW  Elec       q    Type
REMARK                         _______ _______ _______ _____ _____    ______ ____
ROOT
ATOM      1  N   UNL     1       5.783   0.799  -2.831  0.00  0.00    -0.290 N 
ATOM      2  C   UNL     1       6.884   0.021  -2.672  0.00  0.00    +0.203 A 
ATOM      3  N   UNL     1       6.939  -0.889  -1.737  0.00  0.00    -0.230 NA
ATOM      4  C   UNL     1       5.910  -1.094  -0.919  0.00  0.00    +0.116 A 
ATOM      5  C   UNL     1       4.727  -0.342  -1.011  0.00  0.00    +0.080 A 
ATOM      6  C   UNL     1       4.705   0.654  -2.039  0.00  0.00    +0.263 A 
ATOM      7  O   UNL     1       3.723   1.361  -2.194  0.00  0.00    -0.267 OA
ATOM      8  C   UNL     1       3.698  -0.688  -0.038  0.00  0.00    +0.004 A 
ATOM      9  C   UNL     1       3.945  -1.684   0.846  0.00  0.00    +0.056 A 
ATOM     10  S   UNL     1       5.594  -2.212   0.422  0.00  0.00    -0.076 S 
ENDROOT
BRANCH   8  11
ATOM     11  C   UNL     1       2.403   0.033  -0.021  0.00  0.00    -0.017 A 
ATOM     12  C   UNL     1       1.205  -0.680  -0.013  0.00  0.00    +0.008 A 
ATOM     13  C   UNL     1       0.002  -0.004   0.002  0.00  0.00    +0.001 A 
ATOM     14  C   UNL     1      -0.017   1.379   0.010  0.00  0.00    +0.000 A 
ATOM     15  C   UNL     1       1.169   2.092   0.002  0.00  0.00    +0.001 A 
ATOM     16  C   UNL     1       2.377   1.427  -0.013  0.00  0.00    +0.008 A 
ENDBRANCH   8  11
BRANCH   1  17
ATOM     17  C   UNL     1       5.768   1.816  -3.885  0.00  0.00    +0.222 C 
BRANCH  17  28
ATOM     18  C   UNL     1       8.344   5.404  -3.269  0.00  0.00    +0.029 C 
ATOM     19  C   UNL     1       6.885   5.511  -3.718  0.00  0.00    +0.083 C 
ATOM     20  C   UNL     1       6.776   6.400  -4.968  0.00  0.00    +0.059 C 
ATOM     21  C   UNL     1       6.202   5.491  -6.032  0.00  0.00    -0.024 A 
ATOM     22  C   UNL     1       5.884   5.733  -7.355  0.00  0.00    +0.005 A 
ATOM     23  C   UNL     1       5.362   4.721  -8.139  0.00  0.00    +0.000 A 
ATOM     24  C   UNL     1       5.158   3.466  -7.597  0.00  0.00    +0.002 A 
ATOM     25  C   UNL     1       5.473   3.220  -6.278  0.00  0.00    +0.024 A 
ATOM     26  C   UNL     1       6.007   4.235  -5.481  0.00  0.00    +0.040 A 
ATOM     27  N   UNL     1       6.384   4.199  -4.134  0.00  0.00    -0.267 N 
ATOM     28  C   UNL     1       6.303   3.114  -3.338  0.00  0.00    +0.240 C 
ATOM     29  O   UNL     1       6.662   3.183  -2.182  0.00  0.00    -0.273 OA
ENDBRANCH  17  28
ENDBRANCH   1  17
TORSDOF 3
