REMARK  Name = ZINC67625329
REMARK  7 active torsions:
REMARK  status: ('A' for Active; 'I' for Inactive)
REMARK    1  A    between atoms: C_1  and  O_2
REMARK    2  A    between atoms: O_2  and  C_3
REMARK    3  A    between atoms: C_8  and  O_9
REMARK    4  A    between atoms: O_9  and  C_10
REMARK    5  A    between atoms: N_17  and  C_18
REMARK    6  A    between atoms: N_23  and  S_25
REMARK    7  A    between atoms: S_25  and  C_28
REMARK                            x       y       z     vdW  Elec       q    Type
REMARK                         _______ _______ _______ _____ _____    ______ ____
ROOT
ATOM      1  C   UNL     1      -1.203  -0.626   0.014  0.00  0.00    +0.162 A 
ATOM      2  C   UNL     1      -2.377   0.105   0.019  0.00  0.00    +0.053 A 
ATOM      3  C   UNL     1      -3.610  -0.536   0.025  0.00  0.00    -0.038 A 
ATOM      4  C   UNL     1      -3.662  -1.913   0.018  0.00  0.00    -0.023 A 
ATOM      5  C   UNL     1      -2.486  -2.651   0.019  0.00  0.00    +0.054 A 
ATOM      6  C   UNL     1      -1.258  -2.017   0.010  0.00  0.00    +0.162 A 
ATOM      7  C   UNL     1      -4.966  -2.670  -0.006  0.00  0.00    +0.144 C 
ATOM      8  N   UNL     1      -6.077  -1.751   0.262  0.00  0.00    -0.281 N 
ATOM      9  C   UNL     1      -6.064  -0.454  -0.436  0.00  0.00    +0.114 C 
ATOM     10  C   UNL     1      -4.844   0.327   0.047  0.00  0.00    +0.054 C 
ATOM     11  C   UNL     1      -7.069  -2.079   1.112  0.00  0.00    +0.303 C 
ATOM     12  O   UNL     1      -7.927  -1.263   1.390  0.00  0.00    -0.253 OA
ATOM     13  N   UNL     1      -7.111  -3.312   1.655  0.00  0.00    -0.295 N 
ATOM     14  H   UNL     1      -6.389  -3.939   1.492  0.00  0.00    +0.151 HD
ENDROOT
BRANCH  13  15
ATOM     15  C   UNL     1      -8.247  -3.705   2.493  0.00  0.00    +0.090 C 
ATOM     16  C   UNL     1      -9.382  -4.220   1.605  0.00  0.00    +0.025 C 
ATOM     17  C   UNL     1     -10.581  -4.600   2.476  0.00  0.00    +0.019 C 
ATOM     18  C   UNL     1     -10.174  -5.721   3.438  0.00  0.00    +0.109 C 
ATOM     19  N   UNL     1      -8.991  -5.288   4.194  0.00  0.00    -0.180 NA
ATOM     20  C   UNL     1      -7.813  -4.815   3.455  0.00  0.00    +0.131 C 
BRANCH  19  21
ATOM     21  S   UNL     1      -8.986  -5.332   5.850  0.00  0.00    +0.029 S 
ATOM     22  O   UNL     1      -8.048  -4.336   6.236  0.00  0.00    -0.158 OA
ATOM     23  O   UNL     1     -10.354  -5.220   6.220  0.00  0.00    -0.158 OA
ATOM     24  C   UNL     1      -8.357  -6.980   6.271  0.00  0.00    +0.215 C 
ENDBRANCH  19  21
ENDBRANCH  13  15
BRANCH   1  26
ATOM     25  C   UNL     1      -0.025   1.439   0.009  0.00  0.00    +0.277 C 
ATOM     26  O   UNL     1      -0.002   0.011   0.005  0.00  0.00    -0.491 OA
ENDBRANCH   1  26
BRANCH   6  27
ATOM     27  O   UNL     1      -0.110  -2.747   0.004  0.00  0.00    -0.491 OA
ATOM     28  C   UNL     1      -0.246  -4.169   0.001  0.00  0.00    +0.277 C 
ENDBRANCH   6  27
TORSDOF 4
