REMARK  Name = ZINC40757888
REMARK  5 active torsions:
REMARK  status: ('A' for Active; 'I' for Inactive)
REMARK    1  A    between atoms: C_1  and  N_2
REMARK    2  A    between atoms: N_2  and  C_3
REMARK    3  A    between atoms: C_10  and  N_28
REMARK    4  A    between atoms: C_11  and  N_15
REMARK    5  A    between atoms: N_18  and  C_21
REMARK                            x       y       z     vdW  Elec       q    Type
REMARK                         _______ _______ _______ _____ _____    ______ ____
ROOT
ATOM      1  C   UNL     1       1.267   0.394   0.638  0.00  0.00    +0.137 C 
ATOM      2  N   UNL     1       0.006   0.013  -0.003  0.00  0.00    -0.288 N 
ATOM      3  C   UNL     1       0.017  -0.591  -1.255  0.00  0.00    +0.128 A 
ATOM      4  C   UNL     1       0.072   0.182  -2.416  0.00  0.00    +0.104 A 
ATOM      5  C   UNL     1       0.081  -0.476  -3.647  0.00  0.00    +0.147 A 
ATOM      6  N   UNL     1       0.037  -1.806  -3.667  0.00  0.00    -0.221 NA
ATOM      7  C   UNL     1      -0.014  -2.499  -2.548  0.00  0.00    +0.200 A 
ATOM      8  N   UNL     1      -0.019  -1.917  -1.365  0.00  0.00    -0.333 N 
ATOM      9  H   UNL     1      -0.053  -2.463  -0.564  0.00  0.00    +0.168 HD
ENDROOT
BRANCH   2  10
ATOM     10  C   UNL     1      -1.209   0.259   0.644  0.00  0.00    +0.035 A 
ATOM     11  C   UNL     1      -2.398  -0.197   0.088  0.00  0.00    +0.023 A 
ATOM     12  C   UNL     1      -3.596   0.046   0.730  0.00  0.00    +0.002 A 
ATOM     13  C   UNL     1      -3.613   0.743   1.924  0.00  0.00    +0.000 A 
ATOM     14  C   UNL     1      -2.432   1.198   2.480  0.00  0.00    +0.002 A 
ATOM     15  C   UNL     1      -1.229   0.953   1.847  0.00  0.00    +0.023 A 
ENDBRANCH   2  10
BRANCH   5  16
ATOM     16  N   UNL     1       0.134   0.247  -4.833  0.00  0.00    -0.311 N 
ATOM     17  C   UNL     1       1.419   0.496  -5.500  0.00  0.00    +0.125 C 
ATOM     18  C   UNL     1       1.330  -0.015  -6.943  0.00  0.00    +0.124 C 
ATOM     19  N   UNL     1       0.101   0.513  -7.553  0.00  0.00    -0.325 N 
ATOM     20  C   UNL     1      -1.184   0.264  -6.886  0.00  0.00    +0.124 C 
ATOM     21  C   UNL     1      -1.095   0.770  -5.446  0.00  0.00    +0.125 C 
BRANCH  19  22
ATOM     22  C   UNL     1       0.155   1.240  -8.746  0.00  0.00    +0.065 A 
ATOM     23  C   UNL     1       0.048   0.585  -9.966  0.00  0.00    +0.026 A 
ATOM     24  C   UNL     1       0.101   1.306 -11.143  0.00  0.00    +0.002 A 
ATOM     25  C   UNL     1       0.260   2.679 -11.109  0.00  0.00    +0.003 A 
ATOM     26  C   UNL     1       0.367   3.336  -9.897  0.00  0.00    +0.040 A 
ATOM     27  C   UNL     1       0.309   2.622  -8.714  0.00  0.00    +0.144 A 
ATOM     28  F   UNL     1       0.407   3.265  -7.530  0.00  0.00    -0.204 F 
ENDBRANCH  19  22
ENDBRANCH   5  16
BRANCH   4  29
ATOM     29  N   UNL     1       0.116   1.584  -2.347  0.00  0.00    -0.353 N 
ATOM     30  H   UNL     1       0.035   2.030  -1.489  0.00  0.00    +0.143 HD
ATOM     31  H   UNL     1       0.227   2.107  -3.156  0.00  0.00    +0.143 HD
ENDBRANCH   4  29
TORSDOF 4
