REMARK  Name = ZINC49339934
REMARK  6 active torsions:
REMARK  status: ('A' for Active; 'I' for Inactive)
REMARK    1  A    between atoms: C_1  and  C_2
REMARK    2  A    between atoms: C_3  and  C_8
REMARK    3  A    between atoms: C_5  and  C_7
REMARK    4  A    between atoms: C_8  and  C_10
REMARK    5  A    between atoms: C_8  and  N_11
REMARK    6  A    between atoms: C_18  and  C_21
REMARK                            x       y       z     vdW  Elec       q    Type
REMARK                         _______ _______ _______ _____ _____    ______ ____
ROOT
ATOM      1  N   UNL     1      -0.975  -0.993  -3.362  0.00  0.00    -0.292 N 
ATOM      2  C   UNL     1      -1.540  -0.459  -4.462  0.00  0.00    +0.303 C 
ATOM      3  O   UNL     1      -1.315   0.699  -4.761  0.00  0.00    -0.253 OA
ATOM      4  N   UNL     1      -2.354  -1.207  -5.232  0.00  0.00    -0.281 N 
ATOM      5  C   UNL     1      -2.887  -0.686  -6.501  0.00  0.00    +0.137 C 
ATOM      6  C   UNL     1      -4.405  -0.899  -6.512  0.00  0.00    +0.179 C 
ATOM      7  O   UNL     1      -4.690  -2.269  -6.218  0.00  0.00    -0.374 OA
ATOM      8  C   UNL     1      -4.262  -2.691  -4.921  0.00  0.00    +0.133 C 
ATOM      9  C   UNL     1      -2.732  -2.572  -4.832  0.00  0.00    +0.140 C 
ATOM     10  C   UNL     1      -4.674  -4.147  -4.696  0.00  0.00    +0.039 C 
ATOM     11  H   UNL     1      -1.210  -1.891  -3.083  0.00  0.00    +0.151 HD
ENDROOT
BRANCH   1  12
ATOM     12  C   UNL     1      -0.005  -0.215  -2.586  0.00  0.00    +0.110 C 
ATOM     13  C   UNL     1       1.387  -0.377  -3.200  0.00  0.00    +0.033 C 
BRANCH  12  16
ATOM     14  C   UNL     1      -0.014   1.496   0.012  0.00  0.00    +0.066 C 
ATOM     15  C   UNL     1       0.010  -0.011   0.000  0.00  0.00    +0.051 A 
ATOM     16  C   UNL     1       0.013  -0.712  -1.163  0.00  0.00    +0.032 A 
ATOM     17  S   UNL     1       0.045  -2.385  -0.539  0.00  0.00    -0.075 S 
ATOM     18  C   UNL     1       0.051  -2.018   1.104  0.00  0.00    +0.076 A 
ATOM     19  N   UNL     1       0.034  -0.709   1.118  0.00  0.00    -0.249 NA
ATOM     20  C   UNL     1       0.074  -2.967   2.274  0.00  0.00    +0.073 C 
ENDBRANCH  12  16
ENDBRANCH   1  12
TORSDOF 2
