REMARK  Name = ZINC12914697
REMARK  6 active torsions:
REMARK  status: ('A' for Active; 'I' for Inactive)
REMARK    1  A    between atoms: C_1  and  C_2
REMARK    2  A    between atoms: C_3  and  C_28
REMARK    3  A    between atoms: C_4  and  C_13
REMARK    4  A    between atoms: N_5  and  C_7
REMARK    5  A    between atoms: C_13  and  N_14
REMARK    6  A    between atoms: C_22  and  C_24
REMARK                            x       y       z     vdW  Elec       q    Type
REMARK                         _______ _______ _______ _____ _____    ______ ____
ROOT
ATOM      1  C   UNL     1      -1.022   2.057   4.901  0.00  0.00    +0.174 C 
ENDROOT
BRANCH   1   2
ATOM      2  N   UNL     1      -1.226   0.718   5.461  0.00  0.00    -0.218 N 
ATOM      3  C   UNL     1      -2.435   0.193   5.748  0.00  0.00    +0.247 C 
ATOM      4  O   UNL     1      -3.518   0.717   5.597  0.00  0.00    -0.273 OA
ATOM      5  C   UNL     1      -2.156  -1.188   6.294  0.00  0.00    +0.115 C 
ATOM      6  C   UNL     1      -2.665  -1.303   7.726  0.00  0.00    +0.035 C 
ATOM      7  C   UNL     1      -2.340  -2.695   8.275  0.00  0.00    +0.003 C 
ATOM      8  C   UNL     1      -3.001  -3.756   7.394  0.00  0.00    +0.000 C 
ATOM      9  C   UNL     1      -2.465  -3.643   5.965  0.00  0.00    +0.006 C 
ATOM     10  C   UNL     1      -2.791  -2.255   5.408  0.00  0.00    +0.018 C 
ATOM     11  C   UNL     1      -2.238  -2.133   3.987  0.00  0.00    +0.010 C 
ATOM     12  N   UNL     1      -0.692  -1.296   6.258  0.00  0.00    -0.285 N 
ATOM     13  C   UNL     1      -0.236  -0.133   5.756  0.00  0.00    +0.310 C 
ATOM     14  O   UNL     1       0.942   0.117   5.590  0.00  0.00    -0.252 OA
ATOM     15  H   UNL     1      -0.158  -2.055   6.541  0.00  0.00    +0.151 HD
ENDBRANCH   1   2
BRANCH   1  19
ATOM     16  C   UNL     1      -2.111   1.744  -0.096  0.00  0.00    +0.069 C 
ATOM     17  C   UNL     1      -1.357   1.823   1.207  0.00  0.00    +0.078 A 
ATOM     18  C   UNL     1      -1.932   1.909   2.495  0.00  0.00    +0.097 A 
ATOM     19  C   UNL     1      -0.893   1.960   3.403  0.00  0.00    +0.080 A 
ATOM     20  N   UNL     1       0.256   1.907   2.702  0.00  0.00    -0.234 N 
ATOM     21  N   UNL     1      -0.059   1.817   1.342  0.00  0.00    -0.170 NA
BRANCH  20  22
ATOM     22  C   UNL     1       1.548   1.933   3.245  0.00  0.00    +0.066 A 
ATOM     23  C   UNL     1       1.864   2.840   4.247  0.00  0.00    +0.028 A 
ATOM     24  C   UNL     1       3.136   2.858   4.785  0.00  0.00    +0.002 A 
ATOM     25  C   UNL     1       4.098   1.982   4.316  0.00  0.00    +0.000 A 
ATOM     26  C   UNL     1       3.788   1.081   3.313  0.00  0.00    +0.002 A 
ATOM     27  C   UNL     1       2.516   1.054   2.777  0.00  0.00    +0.028 A 
ENDBRANCH  20  22
BRANCH  18  28
ATOM     28  C   UNL     1      -3.330   1.939   2.801  0.00  0.00    +0.103 C 
ATOM     29  N   UNL     1      -4.440   1.963   3.043  0.00  0.00    -0.191 NA
ENDBRANCH  18  28
ENDBRANCH   1  19
TORSDOF 4
