REMARK  Name = ZINC09135598
REMARK  8 active torsions:
REMARK  status: ('A' for Active; 'I' for Inactive)
REMARK    1  A    between atoms: C_1  and  N_2
REMARK    2  A    between atoms: C_10  and  C_12
REMARK    3  A    between atoms: C_12  and  C_14
REMARK    4  A    between atoms: C_12  and  N_61
REMARK    5  A    between atoms: C_14  and  N_15
REMARK    6  A    between atoms: C_16  and  C_18
REMARK    7  A    between atoms: N_20  and  C_21
REMARK    8  A    between atoms: C_26  and  C_27
REMARK                            x       y       z     vdW  Elec       q    Type
REMARK                         _______ _______ _______ _____ _____    ______ ____
ROOT
ATOM      1  C   UNL     1       5.482   9.066  -0.634  0.00  0.00    -0.020 C 
ENDROOT
BRANCH   1  11
ATOM      2  C   UNL     1      10.314  12.416   1.678  0.00  0.00    +0.129 C 
ATOM      3  N   UNL     1       9.450  12.929   0.607  0.00  0.00    -0.333 N 
ATOM      4  C   UNL     1      10.246  13.394  -0.532  0.00  0.00    +0.105 C 
ATOM      5  C   UNL     1       9.293  13.892  -1.626  0.00  0.00    +0.024 C 
ATOM      6  C   UNL     1       8.541  12.681  -2.182  0.00  0.00    +0.038 C 
ATOM      7  C   UNL     1       8.018  11.841  -1.044  0.00  0.00    -0.026 A 
ATOM      8  C   UNL     1       8.483  11.990   0.251  0.00  0.00    +0.033 A 
ATOM      9  C   UNL     1       7.968  11.177   1.262  0.00  0.00    +0.023 A 
ATOM     10  C   UNL     1       6.998  10.239   0.976  0.00  0.00    +0.004 A 
ATOM     11  C   UNL     1       6.539  10.092  -0.320  0.00  0.00    -0.059 A 
ATOM     12  C   UNL     1       7.047  10.893  -1.324  0.00  0.00    +0.007 A 
ENDBRANCH   1  11
BRANCH   1  17
ATOM     13  C   UNL     1       3.839  10.372   0.599  0.00  0.00    -0.078 C 
ATOM     14  C   UNL     1       2.523  10.042   1.347  0.00  0.00    -0.020 C 
ATOM     15  C   UNL     1       2.098   8.695   0.720  0.00  0.00    -0.020 C 
ATOM     16  C   UNL     1       3.390   8.098   0.134  0.00  0.00    -0.078 C 
ATOM     17  N   UNL     1       4.459   9.046   0.453  0.00  0.00    +0.385 N 
ATOM     18  H   UNL     1       4.910   8.775   1.335  0.00  0.00    -0.081 HD
ENDBRANCH   1  17
BRANCH   1  19
ATOM     19  C   UNL     1       6.132   7.686  -0.756  0.00  0.00    +0.094 C 
BRANCH  19  20
ATOM     20  N   UNL     1       7.034   7.671  -1.911  0.00  0.00    -0.309 N 
ATOM     21  C   UNL     1       7.655   6.529  -2.266  0.00  0.00    +0.299 C 
ATOM     22  O   UNL     1       7.467   5.512  -1.630  0.00  0.00    -0.265 OA
ATOM     23  H   UNL     1       7.184   8.483  -2.419  0.00  0.00    +0.149 HD
BRANCH  21  24
ATOM     24  C   UNL     1       8.574   6.514  -3.443  0.00  0.00    +0.303 C 
ATOM     25  O   UNL     1       8.762   7.530  -4.079  0.00  0.00    -0.265 OA
ATOM     26  N   UNL     1       9.195   5.371  -3.799  0.00  0.00    -0.277 N 
ATOM     27  H   UNL     1       8.986   4.543  -3.340  0.00  0.00    +0.155 HD
BRANCH  26  28
ATOM     28  C   UNL     1      10.136   5.381  -4.824  0.00  0.00    +0.053 A 
ATOM     29  C   UNL     1      10.748   6.569  -5.199  0.00  0.00    +0.044 A 
ATOM     30  C   UNL     1      11.681   6.576  -6.218  0.00  0.00    +0.043 A 
ATOM     31  C   UNL     1      12.018   5.399  -6.869  0.00  0.00    +0.021 A 
ATOM     32  C   UNL     1      11.416   4.211  -6.514  0.00  0.00    +0.022 A 
ATOM     33  C   UNL     1      10.471   4.188  -5.486  0.00  0.00    +0.073 A 
ATOM     34 CL   UNL     1      12.443   8.066  -6.681  0.00  0.00    -0.083 Cl
BRANCH  33  35
ATOM     35  C   UNL     1       9.847   2.956  -5.108  0.00  0.00    +0.101 C 
ATOM     36  N   UNL     1       9.352   1.978  -4.808  0.00  0.00    -0.191 NA
ENDBRANCH  33  35
ENDBRANCH  26  28
ENDBRANCH  21  24
ENDBRANCH  19  20
ENDBRANCH   1  19
TORSDOF 7
