REMARK  Name = ZINC36865391
REMARK  3 active torsions:
REMARK  status: ('A' for Active; 'I' for Inactive)
REMARK    1  A    between atoms: C_1  and  C_2
REMARK    2  A    between atoms: C_7  and  C_10
REMARK    3  A    between atoms: N_15  and  C_16
REMARK                            x       y       z     vdW  Elec       q    Type
REMARK                         _______ _______ _______ _____ _____    ______ ____
ROOT
ATOM      1  C   UNL     1      -1.780  -1.700   4.163  0.00  0.00    +0.039 C 
ATOM      2  C   UNL     1      -2.085  -1.366   2.701  0.00  0.00    +0.133 C 
ATOM      3  C   UNL     1      -1.501  -2.455   1.794  0.00  0.00    +0.139 C 
ATOM      4  N   UNL     1      -1.642  -2.019   0.396  0.00  0.00    -0.295 N 
ATOM      5  C   UNL     1      -1.166  -0.673   0.040  0.00  0.00    +0.139 C 
ATOM      6  C   UNL     1      -1.766   0.330   1.032  0.00  0.00    +0.133 C 
ATOM      7  O   UNL     1      -1.495  -0.107   2.366  0.00  0.00    -0.371 OA
ATOM      8  C   UNL     1      -3.279   0.416   0.820  0.00  0.00    +0.039 C 
ATOM      9  C   UNL     1      -2.205  -2.853  -0.559  0.00  0.00    +0.218 A 
ATOM     10  N   UNL     1      -2.974  -2.475  -1.538  0.00  0.00    -0.137 NA
ATOM     11  N   UNL     1      -3.332  -3.613  -2.274  0.00  0.00    -0.253 N 
ATOM     12  C   UNL     1      -2.740  -4.674  -1.687  0.00  0.00    +0.177 A 
ATOM     13  N   UNL     1      -2.038  -4.217  -0.632  0.00  0.00    -0.288 N 
ATOM     14  S   UNL     1      -2.856  -6.305  -2.195  0.00  0.00    -0.011 S 
ATOM     15  H   UNL     1      -3.899  -3.634  -3.060  0.00  0.00    +0.191 HD
ENDROOT
BRANCH  13  16
ATOM     16  C   UNL     1      -1.236  -5.032   0.283  0.00  0.00    +0.092 C 
ATOM     17  C   UNL     1      -2.145  -6.026   1.010  0.00  0.00    +0.025 C 
ATOM     18  C   UNL     1      -1.307  -6.878   1.966  0.00  0.00    +0.002 C 
ATOM     19  C   UNL     1      -0.247  -7.643   1.171  0.00  0.00    +0.000 C 
ATOM     20  C   UNL     1       0.662  -6.649   0.445  0.00  0.00    +0.002 C 
ATOM     21  C   UNL     1      -0.176  -5.797  -0.511  0.00  0.00    +0.025 C 
ENDBRANCH  13  16
TORSDOF 1
