REMARK  Name = ZINC13122167
REMARK  4 active torsions:
REMARK  status: ('A' for Active; 'I' for Inactive)
REMARK    1  A    between atoms: C_1  and  C_2
REMARK    2  A    between atoms: C_3  and  C_13
REMARK    3  A    between atoms: C_4  and  C_7
REMARK    4  A    between atoms: C_16  and  C_17
REMARK                            x       y       z     vdW  Elec       q    Type
REMARK                         _______ _______ _______ _____ _____    ______ ____
ROOT
ATOM      1  C   UNL     1      -2.401   0.246   0.052  0.00  0.00    +0.238 C 
ATOM      2  N   UNL     1      -3.130   0.268  -1.031  0.00  0.00    -0.205 NA
ATOM      3  C   UNL     1      -4.439   0.439  -0.683  0.00  0.00    +0.152 C 
ATOM      4  C   UNL     1      -5.524   0.515  -1.529  0.00  0.00    +0.046 C 
ATOM      5  C   UNL     1      -4.447   0.524   0.789  0.00  0.00    +0.364 C 
ATOM      6  O   UNL     1      -5.411   0.676   1.515  0.00  0.00    -0.243 OA
ATOM      7  O   UNL     1      -3.155   0.390   1.159  0.00  0.00    -0.402 OA
ENDROOT
BRANCH   4   8
ATOM      8  C   UNL     1      -5.320   0.568  -2.980  0.00  0.00    +0.012 A 
ATOM      9  C   UNL     1      -4.087   0.197  -3.532  0.00  0.00    +0.011 A 
ATOM     10  C   UNL     1      -3.904   0.249  -4.896  0.00  0.00    +0.001 A 
ATOM     11  C   UNL     1      -4.934   0.667  -5.723  0.00  0.00    +0.003 A 
ATOM     12  C   UNL     1      -6.155   1.036  -5.190  0.00  0.00    +0.039 A 
ATOM     13  C   UNL     1      -6.360   0.984  -3.824  0.00  0.00    +0.131 A 
ATOM     14  F   UNL     1      -7.556   1.339  -3.304  0.00  0.00    -0.205 F 
ENDBRANCH   4   8
BRANCH   1  17
ATOM     15  C   UNL     1      -0.291   2.549  -0.066  0.00  0.00    +0.090 C 
ATOM     16  C   UNL     1      -0.004   1.071   0.012  0.00  0.00    +0.147 A 
ATOM     17  C   UNL     1      -0.937   0.078   0.062  0.00  0.00    +0.106 A 
ATOM     18  C   UNL     1      -0.201  -1.193   0.130  0.00  0.00    +0.126 A 
ATOM     19  N   UNL     1       1.075  -0.896   0.116  0.00  0.00    -0.077 NA
ATOM     20  O   UNL     1       1.209   0.509   0.037  0.00  0.00    -0.359 OA
BRANCH  18  21
ATOM     21  C   UNL     1      -0.790  -2.552   0.201  0.00  0.00    +0.004 A 
ATOM     22  C   UNL     1      -1.978  -2.764   0.899  0.00  0.00    +0.010 A 
ATOM     23  C   UNL     1      -2.522  -4.031   0.962  0.00  0.00    +0.001 A 
ATOM     24  C   UNL     1      -1.890  -5.089   0.334  0.00  0.00    +0.000 A 
ATOM     25  C   UNL     1      -0.711  -4.885  -0.360  0.00  0.00    +0.001 A 
ATOM     26  C   UNL     1      -0.161  -3.621  -0.435  0.00  0.00    +0.010 A 
ENDBRANCH  18  21
ENDBRANCH   1  17
TORSDOF 3
