REMARK  Name = ZINC05374833
REMARK  5 active torsions:
REMARK  status: ('A' for Active; 'I' for Inactive)
REMARK    1  A    between atoms: C_3  and  C_6
REMARK    2  A    between atoms: C_6  and  N_7
REMARK    3  A    between atoms: C_8  and  C_10
REMARK    4  A    between atoms: N_12  and  C_13
REMARK    5  A    between atoms: C_23  and  C_25
REMARK                            x       y       z     vdW  Elec       q    Type
REMARK                         _______ _______ _______ _____ _____    ______ ____
ROOT
ATOM      1  C   UNL     1      -1.320   2.344   0.355  0.00  0.00    +0.034 A 
ATOM      2  C   UNL     1      -2.575   1.756   0.466  0.00  0.00    +0.025 A 
ATOM      3  C   UNL     1      -3.708   2.508   0.234  0.00  0.00    +0.025 A 
ATOM      4  C   UNL     1      -3.595   3.848  -0.119  0.00  0.00    +0.040 A 
ATOM      5  C   UNL     1      -2.345   4.437  -0.232  0.00  0.00    -0.024 A 
ATOM      6  C   UNL     1      -1.210   3.682   0.004  0.00  0.00    +0.028 A 
ATOM      7  C   UNL     1      -2.189   5.888  -0.603  0.00  0.00    +0.038 C 
ATOM      8  C   UNL     1      -3.448   6.401  -1.301  0.00  0.00    +0.024 C 
ATOM      9  C   UNL     1      -4.670   6.053  -0.440  0.00  0.00    +0.114 C 
ATOM     10  N   UNL     1      -4.761   4.588  -0.363  0.00  0.00    -0.267 N 
ATOM     11  C   UNL     1      -5.946   3.967  -0.525  0.00  0.00    +0.257 C 
ATOM     12  O   UNL     1      -6.002   2.751  -0.510  0.00  0.00    -0.269 OA
ENDROOT
BRANCH  11  13
ATOM     13  C   UNL     1      -7.167   4.754  -0.717  0.00  0.00    +0.074 A 
ATOM     14  C   UNL     1      -8.435   4.327  -1.077  0.00  0.00    +0.021 A 
ATOM     15  C   UNL     1      -9.411   5.286  -1.189  0.00  0.00    +0.008 A 
ATOM     16  C   UNL     1      -9.094   6.585  -0.945  0.00  0.00    +0.046 A 
ATOM     17  S   UNL     1      -7.410   6.513  -0.541  0.00  0.00    -0.092 S 
ENDBRANCH  11  13
BRANCH   1  20
ATOM     18  C   UNL     1       0.992   1.920  -0.002  0.00  0.00    +0.303 C 
ATOM     19  O   UNL     1       1.019   2.816  -0.820  0.00  0.00    -0.265 OA
ATOM     20  N   UNL     1      -0.170   1.585   0.593  0.00  0.00    -0.278 N 
ATOM     21  H   UNL     1      -0.207   0.821   1.190  0.00  0.00    +0.155 HD
BRANCH  18  23
ATOM     22  N   UNL     1       3.409   1.521  -0.251  0.00  0.00    -0.300 N 
ATOM     23  C   UNL     1       2.247   1.187   0.344  0.00  0.00    +0.300 C 
ATOM     24  O   UNL     1       2.220   0.291   1.162  0.00  0.00    -0.265 OA
ATOM     25  H   UNL     1       3.430   2.238  -0.904  0.00  0.00    +0.150 HD
BRANCH  22  26
ATOM     26  C   UNL     1       4.639   0.803   0.089  0.00  0.00    +0.179 C 
BRANCH  26  29
ATOM     27  C   UNL     1       7.520   2.576  -1.374  0.00  0.00    +0.041 A 
ATOM     28  C   UNL     1       6.586   2.379  -0.331  0.00  0.00    +0.046 A 
ATOM     29  C   UNL     1       5.787   1.365  -0.709  0.00  0.00    +0.122 A 
ATOM     30  O   UNL     1       6.188   0.937  -1.917  0.00  0.00    -0.466 OA
ATOM     31  C   UNL     1       7.235   1.671  -2.328  0.00  0.00    +0.195 A 
ENDBRANCH  26  29
ENDBRANCH  22  26
ENDBRANCH  18  23
ENDBRANCH   1  20
TORSDOF 5
