REMARK  Name = ZINC06046500
REMARK  5 active torsions:
REMARK  status: ('A' for Active; 'I' for Inactive)
REMARK    1  A    between atoms: C_1  and  C_2
REMARK    2  A    between atoms: C_5  and  C_7
REMARK    3  A    between atoms: C_9  and  C_16
REMARK    4  A    between atoms: C_10  and  C_15
REMARK    5  A    between atoms: C_16  and  C_18
REMARK                            x       y       z     vdW  Elec       q    Type
REMARK                         _______ _______ _______ _____ _____    ______ ____
ROOT
ATOM      1  C   UNL     1       0.527  -4.016   0.158  0.00  0.00    +0.147 C 
ATOM      2  C   UNL     1       1.301  -4.413   1.399  0.00  0.00    +0.042 C 
ATOM      3  C   UNL     1       2.629  -4.633   1.267  0.00  0.00    +0.018 C 
ATOM      4  N   UNL     1       3.248  -4.501   0.058  0.00  0.00    -0.273 N 
ATOM      5  C   UNL     1       2.613  -4.153  -1.068  0.00  0.00    +0.304 C 
ATOM      6  O   UNL     1       3.251  -4.061  -2.099  0.00  0.00    -0.252 OA
ATOM      7  N   UNL     1       1.290  -3.901  -1.096  0.00  0.00    -0.288 N 
ATOM      8  C   UNL     1       3.438  -5.030   2.475  0.00  0.00    +0.061 C 
ATOM      9  H   UNL     1       4.203  -4.669   0.012  0.00  0.00    +0.156 HD
ATOM     10  H   UNL     1       0.850  -3.649  -1.923  0.00  0.00    +0.151 HD
ENDROOT
BRANCH   1  15
ATOM     11  C   UNL     1      -1.076   1.371   0.874  0.00  0.00    +0.051 C 
ATOM     12  C   UNL     1      -0.892  -0.121   0.767  0.00  0.00    -0.013 A 
ATOM     13  C   UNL     1      -1.773  -1.112   1.050  0.00  0.00    +0.011 A 
ATOM     14  C   UNL     1      -1.382  -2.426   0.875  0.00  0.00    +0.013 A 
ATOM     15  C   UNL     1      -0.129  -2.686   0.427  0.00  0.00    +0.015 A 
ATOM     16  S   UNL     1       0.540  -1.042   0.230  0.00  0.00    -0.096 S 
ENDBRANCH   1  15
BRANCH   2  17
ATOM     17  C   UNL     1       0.657  -4.549   2.651  0.00  0.00    +0.193 C 
ATOM     18  O   UNL     1       0.939  -3.796   3.566  0.00  0.00    -0.287 OA
BRANCH  17  19
ATOM     19  C   UNL     1      -0.358  -5.606   2.850  0.00  0.00    +0.022 A 
ATOM     20  C   UNL     1      -0.593  -6.550   1.848  0.00  0.00    +0.013 A 
ATOM     21  C   UNL     1      -1.541  -7.533   2.039  0.00  0.00    +0.021 A 
ATOM     22  C   UNL     1      -2.260  -7.585   3.222  0.00  0.00    +0.041 A 
ATOM     23  C   UNL     1      -2.031  -6.651   4.220  0.00  0.00    +0.021 A 
ATOM     24  C   UNL     1      -1.082  -5.667   4.042  0.00  0.00    +0.013 A 
ATOM     25 CL   UNL     1      -3.453  -8.825   3.455  0.00  0.00    -0.084 Cl
ENDBRANCH  17  19
ENDBRANCH   2  17
TORSDOF 3
