REMARK  Name = ZINC46983521
REMARK  6 active torsions:
REMARK  status: ('A' for Active; 'I' for Inactive)
REMARK    1  A    between atoms: C_1  and  C_2
REMARK    2  A    between atoms: C_3  and  C_14
REMARK    3  A    between atoms: N_6  and  C_7
REMARK    4  A    between atoms: C_14  and  C_16
REMARK    5  A    between atoms: C_14  and  N_17
REMARK    6  A    between atoms: C_25  and  C_27
REMARK                            x       y       z     vdW  Elec       q    Type
REMARK                         _______ _______ _______ _____ _____    ______ ____
ROOT
ATOM      1  C   UNL     1       0.017   1.515   0.014  0.00  0.00    +0.066 C 
ATOM      2  C   UNL     1       0.042   0.009   0.011  0.00  0.00    +0.047 A 
ATOM      3  C   UNL     1       0.042  -0.787  -1.084  0.00  0.00    +0.013 A 
ATOM      4  C   UNL     1       0.070  -2.117  -0.650  0.00  0.00    +0.140 A 
ATOM      5  N   UNL     1       0.087  -2.121   0.658  0.00  0.00    -0.174 NA
ATOM      6  N   UNL     1       0.075  -0.791   1.100  0.00  0.00    -0.237 N 
ENDROOT
BRANCH   6   7
ATOM      7  C   UNL     1       0.092  -0.365   2.436  0.00  0.00    +0.066 A 
ATOM      8  C   UNL     1       0.764   0.798   2.787  0.00  0.00    +0.030 A 
ATOM      9  C   UNL     1       0.779   1.216   4.103  0.00  0.00    +0.040 A 
ATOM     10  C   UNL     1       0.126   0.475   5.073  0.00  0.00    +0.124 A 
ATOM     11  C   UNL     1      -0.545  -0.686   4.726  0.00  0.00    +0.040 A 
ATOM     12  C   UNL     1      -0.568  -1.104   3.410  0.00  0.00    +0.030 A 
ATOM     13  F   UNL     1       0.143   0.884   6.361  0.00  0.00    -0.205 F 
ENDBRANCH   6   7
BRANCH   3  14
ATOM     14  C   UNL     1       0.015  -0.323  -2.518  0.00  0.00    +0.105 C 
ATOM     15  C   UNL     1      -1.417   0.048  -2.907  0.00  0.00    +0.033 C 
BRANCH  14  16
ATOM     16  N   UNL     1       0.495  -1.398  -3.389  0.00  0.00    -0.293 N 
ATOM     17  C   UNL     1       1.035  -1.104  -4.588  0.00  0.00    +0.303 C 
ATOM     18  O   UNL     1       1.042   0.045  -4.986  0.00  0.00    -0.253 OA
ATOM     19  N   UNL     1       1.568  -2.083  -5.346  0.00  0.00    -0.283 N 
ATOM     20  C   UNL     1       1.458  -3.490  -4.936  0.00  0.00    +0.109 C 
ATOM     21  C   UNL     1       0.850  -4.293  -6.090  0.00  0.00    +0.019 C 
ATOM     22  C   UNL     1       1.680  -4.070  -7.356  0.00  0.00    +0.003 C 
ATOM     23  C   UNL     1       1.651  -2.587  -7.732  0.00  0.00    +0.022 C 
ATOM     24  C   UNL     1       2.263  -1.765  -6.600  0.00  0.00    +0.074 C 
ATOM     25  C   UNL     1       2.107  -0.274  -6.909  0.00  0.00    +0.028 C 
ATOM     26  H   UNL     1       0.425  -2.322  -3.102  0.00  0.00    +0.151 HD
ENDBRANCH  14  16
ENDBRANCH   3  14
TORSDOF 3
