REMARK  Name = ZINC36939036
REMARK  5 active torsions:
REMARK  status: ('A' for Active; 'I' for Inactive)
REMARK    1  A    between atoms: C_1  and  C_2
REMARK    2  A    between atoms: C_3  and  C_21
REMARK    3  A    between atoms: N_4  and  C_13
REMARK    4  A    between atoms: C_7  and  N_12
REMARK    5  A    between atoms: C_9  and  C_11
REMARK                            x       y       z     vdW  Elec       q    Type
REMARK                         _______ _______ _______ _____ _____    ______ ____
ROOT
ATOM      1  C   UNL     1      -0.018   1.503   0.010  0.00  0.00    +0.046 C 
ATOM      2  C   UNL     1       0.002  -0.004   0.002  0.00  0.00    -0.017 A 
ATOM      3  C   UNL     1       0.008  -0.798  -1.081  0.00  0.00    +0.026 A 
ATOM      4  N   UNL     1       0.028  -2.115  -0.692  0.00  0.00    -0.298 N 
ATOM      5  C   UNL     1       0.035  -2.198   0.675  0.00  0.00    +0.151 A 
ATOM      6  C   UNL     1       0.026  -0.881   1.171  0.00  0.00    +0.062 A 
ATOM      7  C   UNL     1       0.036  -0.685   2.561  0.00  0.00    +0.129 A 
ATOM      8  N   UNL     1       0.058  -1.757   3.349  0.00  0.00    -0.217 NA
ATOM      9  C   UNL     1       0.070  -2.976   2.841  0.00  0.00    +0.130 A 
ATOM     10  N   UNL     1       0.052  -3.206   1.545  0.00  0.00    -0.214 NA
ATOM     11  C   UNL     1       0.095  -4.151   3.783  0.00  0.00    +0.088 C 
ATOM     12  C   UNL     1      -0.006  -0.317  -2.509  0.00  0.00    +0.064 C 
ENDROOT
BRANCH   4  13
ATOM     13  C   UNL     1       0.039  -3.211  -1.565  0.00  0.00    +0.051 A 
ATOM     14  C   UNL     1      -1.049  -3.450  -2.394  0.00  0.00    +0.046 A 
ATOM     15  C   UNL     1      -1.035  -4.532  -3.255  0.00  0.00    +0.044 A 
ATOM     16  C   UNL     1       0.061  -5.376  -3.290  0.00  0.00    +0.040 A 
ATOM     17  C   UNL     1       1.145  -5.140  -2.464  0.00  0.00    +0.044 A 
ATOM     18  C   UNL     1       1.139  -4.056  -1.605  0.00  0.00    +0.046 A 
ATOM     19 CL   UNL     1       2.518  -6.202  -2.510  0.00  0.00    -0.083 Cl
ATOM     20 CL   UNL     1      -2.394  -4.832  -4.292  0.00  0.00    -0.083 Cl
ENDBRANCH   4  13
BRANCH   7  21
ATOM     21  N   UNL     1       0.025   0.589   3.097  0.00  0.00    -0.343 N 
ATOM     22  H   UNL     1       0.009   1.362   2.511  0.00  0.00    +0.144 HD
ATOM     23  H   UNL     1       0.032   0.711   4.059  0.00  0.00    +0.144 HD
ENDBRANCH   7  21
TORSDOF 2
