REMARK  Name = ZINC05669573
REMARK  7 active torsions:
REMARK  status: ('A' for Active; 'I' for Inactive)
REMARK    1  A    between atoms: C_1  and  O_2
REMARK    2  A    between atoms: O_2  and  C_3
REMARK    3  A    between atoms: N_5  and  N_6
REMARK    4  A    between atoms: C_7  and  C_8
REMARK    5  A    between atoms: C_7  and  C_20
REMARK    6  A    between atoms: C_8  and  C_9
REMARK    7  A    between atoms: C_9  and  O_19
REMARK                            x       y       z     vdW  Elec       q    Type
REMARK                         _______ _______ _______ _____ _____    ______ ____
ROOT
ATOM      1  N   UNL     1       1.860  -1.277  -0.910  0.00  0.00    -0.181 NA
ATOM      2  C   UNL     1       0.830  -0.529  -1.159  0.00  0.00    +0.071 C 
ENDROOT
BRANCH   2   3
ATOM      3  C   UNL     1       0.366  -0.352  -2.548  0.00  0.00    +0.016 A 
ATOM      4  C   UNL     1      -0.159  -1.436  -3.256  0.00  0.00    +0.012 A 
ATOM      5  C   UNL     1      -0.597  -1.263  -4.552  0.00  0.00    +0.021 A 
ATOM      6  C   UNL     1      -0.506  -0.020  -5.157  0.00  0.00    +0.042 A 
ATOM      7  C   UNL     1       0.019   1.057  -4.464  0.00  0.00    +0.040 A 
ATOM      8  C   UNL     1       0.455   0.899  -3.164  0.00  0.00    +0.051 A 
ATOM      9 CL   UNL     1       1.113   2.251  -2.296  0.00  0.00    -0.083 Cl
ATOM     10 CL   UNL     1      -1.052   0.187  -6.792  0.00  0.00    -0.083 Cl
ENDBRANCH   2   3
BRANCH   1  13
ATOM     11  C   UNL     1       3.528  -2.787  -1.690  0.00  0.00    +0.420 C 
ATOM     12  O   UNL     1       4.163  -3.281  -2.600  0.00  0.00    -0.225 OA
ATOM     13  N   UNL     1       2.520  -1.933  -1.958  0.00  0.00    -0.172 N 
ATOM     14  H   UNL     1       2.252  -1.772  -2.876  0.00  0.00    +0.181 HD
BRANCH  11  16
ATOM     15  C   UNL     1       4.928  -4.019  -0.200  0.00  0.00    +0.282 C 
ATOM     16  O   UNL     1       3.830  -3.092  -0.413  0.00  0.00    -0.453 OA
ENDBRANCH  11  16
ENDBRANCH   1  13
BRANCH   2  17
ATOM     17  C   UNL     1       0.106   0.158  -0.030  0.00  0.00    +0.107 C 
BRANCH  17  18
ATOM     18  C   UNL     1      -0.945  -0.788   0.553  0.00  0.00    +0.174 C 
ATOM     19  C   UNL     1      -1.681  -0.124   1.694  0.00  0.00    +0.014 A 
ATOM     20  C   UNL     1      -2.469   1.002   1.771  0.00  0.00    +0.009 A 
ATOM     21  C   UNL     1      -3.023   1.375   2.983  0.00  0.00    +0.000 A 
ATOM     22  C   UNL     1      -2.783   0.615   4.112  0.00  0.00    +0.002 A 
ATOM     23  C   UNL     1      -1.993  -0.514   4.038  0.00  0.00    +0.024 A 
ATOM     24  C   UNL     1      -1.431  -0.896   2.821  0.00  0.00    +0.040 A 
ATOM     25  N   UNL     1      -0.612  -1.977   2.494  0.00  0.00    -0.282 N 
ATOM     26  C   UNL     1      -0.282  -1.992   1.188  0.00  0.00    +0.254 C 
ATOM     27  O   UNL     1       0.413  -2.811   0.627  0.00  0.00    -0.272 OA
ATOM     28  H   UNL     1      -0.315  -2.643   3.134  0.00  0.00    +0.155 HD
BRANCH  18  29
ATOM     29  O   UNL     1      -1.863  -1.200  -0.462  0.00  0.00    -0.374 OA
ATOM     30  H   UNL     1      -2.553  -1.802  -0.148  0.00  0.00    +0.211 HD
ENDBRANCH  18  29
ENDBRANCH  17  18
ENDBRANCH   2  17
TORSDOF 6
