REMARK  Name = ZINC67372586
REMARK  1 active torsions:
REMARK  status: ('A' for Active; 'I' for Inactive)
REMARK    1  A    between atoms: C_12  and  N_15
REMARK                            x       y       z     vdW  Elec       q    Type
REMARK                         _______ _______ _______ _____ _____    ______ ____
ROOT
ATOM      1  C   UNL     1      -0.016   1.319   0.009  0.00  0.00    +0.131 A 
ATOM      2  C   UNL     1       1.185   2.011   0.002  0.00  0.00    +0.054 A 
ATOM      3  C   UNL     1       2.368   1.287  -0.014  0.00  0.00    +0.131 A 
ATOM      4  N   UNL     1       2.315  -0.035  -0.020  0.00  0.00    -0.222 NA
ATOM      5  C   UNL     1       1.150  -0.666  -0.013  0.00  0.00    +0.218 A 
ATOM      6  N   UNL     1       0.002  -0.004   0.002  0.00  0.00    -0.222 NA
ATOM      7  N   UNL     1       1.131  -2.050  -0.020  0.00  0.00    -0.301 N 
ATOM      8  C   UNL     1       2.417  -2.775  -0.030  0.00  0.00    +0.108 C 
ATOM      9  C   UNL     1       2.398  -3.976  -0.992  0.00  0.00    +0.019 C 
ATOM     10  C   UNL     1       1.675  -3.610  -2.264  0.00  0.00    +0.000 C 
ATOM     11  C   UNL     1       0.199  -3.975  -2.130  0.00  0.00    -0.014 C 
ATOM     12  C   UNL     1      -0.622  -2.946  -1.474  0.00  0.00    -0.051 C 
ATOM     13  C   UNL     1      -0.147  -2.726  -0.011  0.00  0.00    +0.093 C 
ATOM     14 BR   UNL     1       1.211   3.902   0.011  0.00  0.00    -0.047 Br
ENDROOT
BRANCH  12  15
ATOM     15  N   UNL     1      -2.026  -3.377  -1.464  0.00  0.00    +0.383 N 
ATOM     16  C   UNL     1      -2.885  -2.313  -0.885  0.00  0.00    -0.078 C 
ATOM     17  C   UNL     1      -4.290  -2.647  -1.446  0.00  0.00    -0.020 C 
ATOM     18  C   UNL     1      -3.983  -3.133  -2.881  0.00  0.00    -0.020 C 
ATOM     19  C   UNL     1      -2.508  -3.575  -2.849  0.00  0.00    -0.078 C 
ATOM     20  H   UNL     1      -2.124  -4.231  -0.936  0.00  0.00    -0.081 HD
ENDBRANCH  12  15
TORSDOF 1
