REMARK  Name = ZINC19496121
REMARK  6 active torsions:
REMARK  status: ('A' for Active; 'I' for Inactive)
REMARK    1  A    between atoms: C_1  and  C_2
REMARK    2  A    between atoms: N_11  and  C_15
REMARK    3  A    between atoms: C_15  and  C_16
REMARK    4  A    between atoms: N_18  and  C_19
REMARK    5  A    between atoms: C_19  and  C_21
REMARK    6  A    between atoms: C_19  and  C_22
REMARK                            x       y       z     vdW  Elec       q    Type
REMARK                         _______ _______ _______ _____ _____    ______ ____
ROOT
ATOM      1  C   UNL     1       0.194   9.836  -2.478  0.00  0.00    +0.213 C 
ENDROOT
BRANCH   1  11
ATOM      2  C   UNL     1      -0.434  13.697  -4.565  0.00  0.00    +0.010 C 
ATOM      3  C   UNL     1       0.672  14.331  -3.718  0.00  0.00    +0.018 C 
ATOM      4  C   UNL     1       0.043  15.163  -2.598  0.00  0.00    +0.006 C 
ATOM      5  C   UNL     1       1.150  15.780  -1.740  0.00  0.00    +0.000 C 
ATOM      6  C   UNL     1       1.997  14.666  -1.121  0.00  0.00    +0.003 C 
ATOM      7  C   UNL     1       2.634  13.832  -2.235  0.00  0.00    +0.035 C 
ATOM      8  C   UNL     1       1.540  13.233  -3.114  0.00  0.00    +0.115 C 
ATOM      9  C   UNL     1       0.689  12.269  -2.320  0.00  0.00    +0.247 C 
ATOM     10  O   UNL     1       0.010  12.519  -1.347  0.00  0.00    -0.273 OA
ATOM     11  N   UNL     1       0.845  11.071  -2.922  0.00  0.00    -0.215 N 
ATOM     12  C   UNL     1       1.664  11.153  -3.977  0.00  0.00    +0.310 C 
ATOM     13  O   UNL     1       1.956  10.206  -4.681  0.00  0.00    -0.252 OA
ATOM     14  N   UNL     1       2.129  12.402  -4.171  0.00  0.00    -0.285 N 
ATOM     15  H   UNL     1       2.805  12.853  -4.913  0.00  0.00    +0.151 HD
ENDBRANCH   1  11
BRANCH   1  16
ATOM     16  C   UNL     1       1.081   9.129  -1.486  0.00  0.00    +0.231 C 
ATOM     17  O   UNL     1       2.152   9.610  -1.179  0.00  0.00    -0.274 OA
ATOM     18  N   UNL     1       0.685   7.963  -0.939  0.00  0.00    -0.305 N 
ATOM     19  H   UNL     1      -0.286   7.527  -1.217  0.00  0.00    +0.149 HD
BRANCH  18  20
ATOM     20  C   UNL     1       1.548   7.276   0.026  0.00  0.00    +0.126 C 
ATOM     21  C   UNL     1       1.304   7.846   1.425  0.00  0.00    +0.035 C 
BRANCH  20  22
ATOM     22  C   UNL     1       1.232   5.802   0.022  0.00  0.00    +0.099 A 
ATOM     23  N   UNL     1       0.063   5.226   0.030  0.00  0.00    -0.242 NA
ATOM     24  C   UNL     1      -0.084   3.885   0.024  0.00  0.00    +0.079 A 
ATOM     25  C   UNL     1      -1.271   3.119   0.031  0.00  0.00    +0.029 A 
ATOM     26  C   UNL     1      -1.220   1.760   0.017  0.00  0.00    +0.002 A 
ATOM     27  C   UNL     1      -0.013   1.076   0.008  0.00  0.00    +0.001 A 
ATOM     28  C   UNL     1       1.171   1.789   0.001  0.00  0.00    +0.017 A 
ATOM     29  C   UNL     1       1.131   3.162   0.008  0.00  0.00    +0.039 A 
ATOM     30  S   UNL     1       2.338   4.464   0.004  0.00  0.00    -0.070 S 
ENDBRANCH  20  22
ENDBRANCH  18  20
ENDBRANCH   1  16
TORSDOF 4
