REMARK  Name = ZINC55156448
REMARK  6 active torsions:
REMARK  status: ('A' for Active; 'I' for Inactive)
REMARK    1  A    between atoms: C_1  and  C_2
REMARK    2  A    between atoms: C_2  and  C_4
REMARK    3  A    between atoms: C_2  and  N_16
REMARK    4  A    between atoms: N_9  and  C_10
REMARK    5  A    between atoms: C_10  and  C_11
REMARK    6  A    between atoms: N_16  and  C_17
REMARK                            x       y       z     vdW  Elec       q    Type
REMARK                         _______ _______ _______ _____ _____    ______ ____
ROOT
ATOM      1  C   UNL     1      -0.019   1.526   0.010  0.00  0.00    +0.038 C 
ATOM      2  C   UNL     1       0.002  -0.004   0.002  0.00  0.00    +0.154 C 
ENDROOT
BRANCH   2   3
ATOM      3  C   UNL     1       0.731  -0.503   1.223  0.00  0.00    +0.240 C 
ATOM      4  O   UNL     1       1.725  -1.186   1.099  0.00  0.00    -0.273 OA
ATOM      5  N   UNL     1       0.278  -0.191   2.453  0.00  0.00    -0.239 N 
ATOM      6  C   UNL     1       0.930  -0.637   3.545  0.00  0.00    +0.306 C 
ATOM      7  O   UNL     1       1.926  -1.322   3.420  0.00  0.00    -0.252 OA
ATOM      8  N   UNL     1       0.476  -0.324   4.775  0.00  0.00    -0.294 N 
ATOM      9  H   UNL     1      -0.517   0.356   2.553  0.00  0.00    +0.159 HD
ATOM     10  H   UNL     1      -0.319   0.222   4.875  0.00  0.00    +0.151 HD
BRANCH   8  11
ATOM     11  C   UNL     1       1.185  -0.810   5.962  0.00  0.00    +0.148 C 
BRANCH  11  12
ATOM     12  C   UNL     1       0.480  -0.324   7.202  0.00  0.00    +0.007 A 
ATOM     13  C   UNL     1      -0.512  -0.919   7.908  0.00  0.00    +0.013 A 
ATOM     14  C   UNL     1      -1.014  -0.281   9.028  0.00  0.00    +0.008 A 
ATOM     15  C   UNL     1      -0.498   0.920   9.386  0.00  0.00    +0.045 A 
ATOM     16  S   UNL     1       0.739   1.182   8.126  0.00  0.00    -0.100 S 
ENDBRANCH  11  12
ENDBRANCH   8  11
ENDBRANCH   2   3
BRANCH   2  17
ATOM     17  N   UNL     1       0.688  -0.476  -1.203  0.00  0.00    -0.330 N 
ATOM     18  H   UNL     1       1.632  -0.695  -1.170  0.00  0.00    +0.147 HD
BRANCH  17  19
ATOM     19  C   UNL     1      -0.020  -0.613  -2.403  0.00  0.00    +0.074 A 
ATOM     20  C   UNL     1      -1.370  -0.296  -2.453  0.00  0.00    +0.027 A 
ATOM     21  C   UNL     1      -2.070  -0.432  -3.637  0.00  0.00    +0.006 A 
ATOM     22  C   UNL     1      -1.428  -0.884  -4.774  0.00  0.00    +0.049 A 
ATOM     23  C   UNL     1      -0.077  -1.204  -4.734  0.00  0.00    +0.164 A 
ATOM     24  C   UNL     1       0.631  -1.062  -3.549  0.00  0.00    +0.183 A 
ATOM     25  O   UNL     1       1.959  -1.359  -3.491  0.00  0.00    -0.483 OA
ATOM     26  C   UNL     1       2.488  -2.156  -4.556  0.00  0.00    +0.270 C 
ATOM     27  C   UNL     1       1.970  -1.587  -5.884  0.00  0.00    +0.270 C 
ATOM     28  O   UNL     1       0.537  -1.652  -5.863  0.00  0.00    -0.485 OA
ENDBRANCH  17  19
ENDBRANCH   2  17
TORSDOF 5
