REMARK  Name = ZINC16320999
REMARK  8 active torsions:
REMARK  status: ('A' for Active; 'I' for Inactive)
REMARK    1  A    between atoms: C_1  and  C_2
REMARK    2  A    between atoms: C_5  and  C_35
REMARK    3  A    between atoms: C_6  and  N_8
REMARK    4  A    between atoms: C_9  and  C_11
REMARK    5  A    between atoms: C_11  and  C_13
REMARK    6  A    between atoms: C_11  and  S_19
REMARK    7  A    between atoms: S_19  and  C_20
REMARK    8  A    between atoms: N_33  and  C_34
REMARK                            x       y       z     vdW  Elec       q    Type
REMARK                         _______ _______ _______ _____ _____    ______ ____
ROOT
ATOM      1  C   UNL     1       0.280  -2.900   4.854  0.00  0.00    +0.170 C 
ENDROOT
BRANCH   1   2
ATOM      2  C   UNL     1       1.729  -3.242   5.091  0.00  0.00    -0.025 A 
ATOM      3  C   UNL     1       2.666  -2.233   5.211  0.00  0.00    +0.005 A 
ATOM      4  C   UNL     1       3.995  -2.546   5.429  0.00  0.00    +0.000 A 
ATOM      5  C   UNL     1       4.386  -3.868   5.528  0.00  0.00    +0.000 A 
ATOM      6  C   UNL     1       3.448  -4.877   5.410  0.00  0.00    +0.000 A 
ATOM      7  C   UNL     1       2.119  -4.564   5.196  0.00  0.00    +0.005 A 
ENDBRANCH   1   2
BRANCH   1   9
ATOM      8  N   UNL     1       0.052  -2.797   2.393  0.00  0.00    -0.284 N 
ATOM      9  C   UNL     1       0.150  -2.135   3.562  0.00  0.00    +0.235 C 
ATOM     10  O   UNL     1       0.134  -0.922   3.575  0.00  0.00    -0.274 OA
ATOM     11  H   UNL     1      -0.016  -3.765   2.388  0.00  0.00    +0.155 HD
BRANCH   8  17
ATOM     12  C   UNL     1       1.264   1.227  -0.158  0.00  0.00    +0.044 C 
ATOM     13  C   UNL     1       0.628  -0.137  -0.079  0.00  0.00    -0.049 A 
ATOM     14  C   UNL     1       0.039  -0.690  -1.201  0.00  0.00    +0.004 A 
ATOM     15  C   UNL     1      -0.546  -1.941  -1.133  0.00  0.00    +0.005 A 
ATOM     16  C   UNL     1      -0.543  -2.643   0.057  0.00  0.00    -0.029 A 
ATOM     17  C   UNL     1       0.048  -2.090   1.185  0.00  0.00    +0.037 A 
ATOM     18  C   UNL     1       0.639  -0.835   1.112  0.00  0.00    +0.027 A 
ATOM     19  C   UNL     1      -1.181  -4.006   0.131  0.00  0.00    +0.045 C 
ENDBRANCH   8  17
ENDBRANCH   1   9
BRANCH   1  20
ATOM     20  S   UNL     1      -0.334  -1.883   6.224  0.00  0.00    -0.068 S 
BRANCH  20  21
ATOM     21  C   UNL     1      -0.255  -2.955   7.620  0.00  0.00    +0.199 A 
ATOM     22  N   UNL     1       0.166  -4.196   7.615  0.00  0.00    -0.120 NA
ATOM     23  N   UNL     1       0.068  -4.693   8.920  0.00  0.00    -0.109 NA
ATOM     24  C   UNL     1      -0.411  -3.738   9.686  0.00  0.00    +0.240 A 
ATOM     25  N   UNL     1      -0.618  -2.637   8.901  0.00  0.00    -0.256 N 
ATOM     26  C   UNL     1      -1.122  -1.460   9.450  0.00  0.00    +0.064 A 
ATOM     27  C   UNL     1      -1.339  -0.340   8.663  0.00  0.00    +0.027 A 
ATOM     28  C   UNL     1      -1.839   0.815   9.232  0.00  0.00    +0.002 A 
ATOM     29  C   UNL     1      -2.126   0.865  10.587  0.00  0.00    +0.001 A 
ATOM     30  C   UNL     1      -1.917  -0.240  11.386  0.00  0.00    +0.015 A 
ATOM     31  C   UNL     1      -1.413  -1.411  10.822  0.00  0.00    +0.064 A 
ATOM     32  C   UNL     1      -1.175  -2.614  11.641  0.00  0.00    +0.263 A 
ATOM     33  O   UNL     1      -1.416  -2.608  12.833  0.00  0.00    -0.267 OA
ATOM     34  N   UNL     1      -0.694  -3.723  11.043  0.00  0.00    -0.280 N 
ATOM     35  C   UNL     1      -0.451  -4.926  11.844  0.00  0.00    +0.155 C 
ENDBRANCH  20  21
ENDBRANCH   1  20
TORSDOF 5
