REMARK  Name = ZINC67029113
REMARK  5 active torsions:
REMARK  status: ('A' for Active; 'I' for Inactive)
REMARK    1  A    between atoms: C_4  and  C_7
REMARK    2  A    between atoms: C_7  and  C_9
REMARK    3  A    between atoms: C_11  and  C_23
REMARK    4  A    between atoms: C_17  and  C_18
REMARK    5  A    between atoms: C_17  and  O_22
REMARK                            x       y       z     vdW  Elec       q    Type
REMARK                         _______ _______ _______ _____ _____    ______ ____
ROOT
ATOM      1  C   UNL     1       3.844  -2.045  -0.013  0.00  0.00    +0.145 C 
ATOM      2  C   UNL     1       3.867  -2.775  -1.360  0.00  0.00    +0.136 C 
ATOM      3  N   UNL     1       3.986  -4.215  -1.123  0.00  0.00    -0.317 N 
ATOM      4  C   UNL     1       4.610  -4.694  -0.037  0.00  0.00    +0.133 C 
ATOM      5  S   UNL     1       4.724  -6.390   0.165  0.00  0.00    -0.019 S 
ATOM      6  N   UNL     1       5.149  -3.897   0.897  0.00  0.00    -0.291 N 
ATOM      7  C   UNL     1       5.095  -2.438   0.781  0.00  0.00    +0.241 C 
ATOM      8  H   UNL     1       3.606  -4.835  -1.765  0.00  0.00    +0.148 HD
ATOM      9  H   UNL     1       5.583  -4.294   1.669  0.00  0.00    +0.151 HD
ENDROOT
BRANCH   2  10
ATOM     10  C   UNL     1       2.590  -2.491  -2.109  0.00  0.00    +0.069 A 
ATOM     11  C   UNL     1       2.603  -1.957  -3.357  0.00  0.00    +0.071 A 
ATOM     12  S   UNL     1       0.852  -1.863  -3.693  0.00  0.00    -0.084 S 
ATOM     13  C   UNL     1       0.303  -2.501  -2.236  0.00  0.00    +0.156 A 
ATOM     14  N   UNL     1       1.410  -2.754  -1.584  0.00  0.00    -0.250 NA
ENDBRANCH   2  10
BRANCH   7  15
ATOM     15  C   UNL     1       5.033  -1.811   2.175  0.00  0.00    +0.436 C 
ATOM     16  F   UNL     1       3.893  -2.271   2.843  0.00  0.00    -0.166 F 
ATOM     17  F   UNL     1       6.175  -2.172   2.899  0.00  0.00    -0.166 F 
ATOM     18  F   UNL     1       4.975  -0.418   2.058  0.00  0.00    -0.166 F 
ENDBRANCH   7  15
BRANCH   1  19
ATOM     19  C   UNL     1       3.841  -0.555  -0.245  0.00  0.00    +0.173 C 
ATOM     20  O   UNL     1       4.708  -0.045  -0.921  0.00  0.00    -0.292 OA
BRANCH  19  24
ATOM     21  C   UNL     1       0.793   1.850   1.463  0.00  0.00    +0.000 A 
ATOM     22  C   UNL     1       1.851   2.447   0.800  0.00  0.00    +0.001 A 
ATOM     23  C   UNL     1       2.845   1.672   0.241  0.00  0.00    +0.011 A 
ATOM     24  C   UNL     1       2.783   0.279   0.348  0.00  0.00    +0.018 A 
ATOM     25  C   UNL     1       1.712  -0.317   1.020  0.00  0.00    +0.011 A 
ATOM     26  C   UNL     1       0.725   0.472   1.573  0.00  0.00    +0.001 A 
ENDBRANCH  19  24
ENDBRANCH   1  19
BRANCH   7  27
ATOM     27  O   UNL     1       6.260  -1.973   0.098  0.00  0.00    -0.364 OA
ATOM     28  H   UNL     1       7.090  -2.188   0.545  0.00  0.00    +0.212 HD
ENDBRANCH   7  27
TORSDOF 5
