REMARK  Name = ZINC00488819
REMARK  5 active torsions:
REMARK  status: ('A' for Active; 'I' for Inactive)
REMARK    1  A    between atoms: C_1  and  C_2
REMARK    2  A    between atoms: C_6  and  N_8
REMARK    3  A    between atoms: C_16  and  C_22
REMARK    4  A    between atoms: C_22  and  O_24
REMARK    5  A    between atoms: O_24  and  C_25
REMARK                            x       y       z     vdW  Elec       q    Type
REMARK                         _______ _______ _______ _____ _____    ______ ____
ROOT
ATOM      1  N   UNL     1       2.748  -1.498   0.829  0.00  0.00    -0.268 N 
ATOM      2  C   UNL     1       1.548  -1.437   1.683  0.00  0.00    +0.153 C 
ATOM      3  C   UNL     1       0.910  -0.129   1.336  0.00  0.00    +0.116 C 
ATOM      4  C   UNL     1       0.059   0.669   2.258  0.00  0.00    +0.008 C 
ATOM      5  C   UNL     1      -0.484   1.600   1.464  0.00  0.00    +0.004 C 
ATOM      6  C   UNL     1       0.015   1.332   0.039  0.00  0.00    +0.157 C 
ATOM      7  O   UNL     1       0.170  -0.133   0.085  0.00  0.00    -0.359 OA
ATOM      8  C   UNL     1       1.518   1.759  -0.003  0.00  0.00    +0.145 C 
ATOM      9  C   UNL     1       2.159   0.755   0.972  0.00  0.00    +0.129 C 
ATOM     10  C   UNL     1       3.060  -0.270   0.344  0.00  0.00    +0.227 C 
ATOM     11  O   UNL     1       3.930  -0.037  -0.469  0.00  0.00    -0.275 OA
ENDROOT
BRANCH   1  17
ATOM     12  C   UNL     1       6.482  -3.731  -1.462  0.00  0.00    +0.044 C 
ATOM     13  C   UNL     1       5.275  -3.780  -0.561  0.00  0.00    -0.049 A 
ATOM     14  C   UNL     1       4.870  -4.983  -0.012  0.00  0.00    +0.003 A 
ATOM     15  C   UNL     1       3.763  -5.032   0.814  0.00  0.00    +0.002 A 
ATOM     16  C   UNL     1       3.057  -3.879   1.095  0.00  0.00    +0.023 A 
ATOM     17  C   UNL     1       3.461  -2.669   0.546  0.00  0.00    +0.037 A 
ATOM     18  C   UNL     1       4.570  -2.624  -0.289  0.00  0.00    +0.027 A 
ENDBRANCH   1  17
BRANCH   8  19
ATOM     19  C   UNL     1       2.084   1.601  -1.390  0.00  0.00    +0.314 C 
ATOM     20  O   UNL     1       1.643   0.753  -2.130  0.00  0.00    -0.250 OA
BRANCH  19  21
ATOM     21  O   UNL     1       3.079   2.402  -1.804  0.00  0.00    -0.468 OA
ATOM     22  C   UNL     1       3.576   2.192  -3.153  0.00  0.00    +0.280 C 
ENDBRANCH  19  21
ENDBRANCH   8  19
TORSDOF 3
