REMARK  Name = ZINC63182750
REMARK  8 active torsions:
REMARK  status: ('A' for Active; 'I' for Inactive)
REMARK    1  A    between atoms: C_1  and  C_2
REMARK    2  A    between atoms: C_2  and  C_3
REMARK    3  A    between atoms: C_2  and  N_4
REMARK    4  A    between atoms: C_5  and  N_6
REMARK    5  A    between atoms: C_7  and  C_9
REMARK    6  A    between atoms: C_9  and  C_10
REMARK    7  A    between atoms: C_10  and  C_11
REMARK    8  A    between atoms: C_19  and  C_21
REMARK                            x       y       z     vdW  Elec       q    Type
REMARK                         _______ _______ _______ _____ _____    ______ ____
ROOT
ATOM      1  C   UNL     1       6.303  -4.371   1.600  0.00  0.00    -0.034 C 
ATOM      2  C   UNL     1       6.003  -4.173   2.904  0.00  0.00    +0.002 A 
ATOM      3  C   UNL     1       4.925  -3.436   3.574  0.00  0.00    +0.048 A 
ATOM      4  C   UNL     1       4.886  -3.417   4.928  0.00  0.00    +0.124 A 
ATOM      5  C   UNL     1       5.850  -4.082   5.702  0.00  0.00    +0.040 A 
ATOM      6  C   UNL     1       6.869  -4.779   5.157  0.00  0.00    +0.029 A 
ATOM      7  C   UNL     1       7.005  -4.866   3.744  0.00  0.00    +0.043 A 
ATOM      8  N   UNL     1       7.891  -5.469   2.988  0.00  0.00    -0.374 N 
ATOM      9  C   UNL     1       7.545  -5.233   1.582  0.00  0.00    +0.137 C 
ATOM     10  F   UNL     1       3.896  -2.739   5.549  0.00  0.00    -0.205 F 
ATOM     11  H   UNL     1       8.646  -5.989   3.306  0.00  0.00    +0.161 HD
ENDROOT
BRANCH   9  12
ATOM     12  C   UNL     1       8.670  -4.507   0.889  0.00  0.00    -0.021 A 
ATOM     13  C   UNL     1       9.400  -3.552   1.572  0.00  0.00    +0.009 A 
ATOM     14  C   UNL     1      10.432  -2.887   0.938  0.00  0.00    +0.039 A 
ATOM     15  C   UNL     1      10.735  -3.177  -0.382  0.00  0.00    +0.123 A 
ATOM     16  C   UNL     1      10.003  -4.134  -1.064  0.00  0.00    +0.039 A 
ATOM     17  C   UNL     1       8.975  -4.802  -0.426  0.00  0.00    +0.009 A 
ATOM     18  F   UNL     1      11.743  -2.527  -1.003  0.00  0.00    -0.205 F 
ENDBRANCH   9  12
BRANCH   1  19
ATOM     19  C   UNL     1       5.547  -3.846   0.406  0.00  0.00    +0.043 C 
BRANCH  19  20
ATOM     20  C   UNL     1       4.352  -3.019   0.883  0.00  0.00    +0.100 C 
BRANCH  20  22
ATOM     21  N   UNL     1       2.498  -1.733  -0.132  0.00  0.00    -0.271 N 
ATOM     22  C   UNL     1       3.596  -2.493  -0.311  0.00  0.00    +0.219 C 
ATOM     23  O   UNL     1       3.977  -2.755  -1.432  0.00  0.00    -0.275 OA
ATOM     24  H   UNL     1       2.194  -1.523   0.765  0.00  0.00    +0.156 HD
BRANCH  21  26
ATOM     25  N   UNL     1       0.688  -0.476  -1.203  0.00  0.00    -0.248 N 
ATOM     26  C   UNL     1       1.799  -1.247  -1.236  0.00  0.00    +0.123 A 
ATOM     27  C   UNL     1       2.111  -1.461  -2.544  0.00  0.00    +0.065 A 
ATOM     28  C   UNL     1       1.160  -0.800  -3.325  0.00  0.00    +0.136 A 
ATOM     29  N   UNL     1       0.305  -0.216  -2.525  0.00  0.00    -0.178 NA
BRANCH  25  31
ATOM     30  C   UNL     1      -0.019   1.526   0.010  0.00  0.00    +0.032 C 
ATOM     31  C   UNL     1       0.002  -0.004   0.002  0.00  0.00    +0.103 C 
ATOM     32  C   UNL     1      -1.433  -0.534   0.013  0.00  0.00    +0.032 C 
ENDBRANCH  25  31
ENDBRANCH  21  26
ENDBRANCH  20  22
ENDBRANCH  19  20
ENDBRANCH   1  19
TORSDOF 6
