REMARK  Name = ZINC67437819
REMARK  10 active torsions:
REMARK  status: ('A' for Active; 'I' for Inactive)
REMARK    1  A    between atoms: C_1  and  C_2
REMARK    2  A    between atoms: C_5  and  C_30
REMARK    3  A    between atoms: N_8  and  C_10
REMARK    4  A    between atoms: C_10  and  C_11
REMARK    5  A    between atoms: C_11  and  C_13
REMARK    6  A    between atoms: C_11  and  N_14
REMARK    7  A    between atoms: C_15  and  C_17
REMARK    8  A    between atoms: N_19  and  C_20
REMARK    9  A    between atoms: C_23  and  O_27
REMARK   10  A    between atoms: O_27  and  C_28
REMARK                            x       y       z     vdW  Elec       q    Type
REMARK                         _______ _______ _______ _____ _____    ______ ____
ROOT
ATOM      1  N   UNL     1       3.508  -2.492   0.949  0.00  0.00    -0.307 N 
ATOM      2  C   UNL     1       4.536  -1.847   0.362  0.00  0.00    +0.299 C 
ATOM      3  O   UNL     1       5.029  -0.876   0.898  0.00  0.00    -0.265 OA
ATOM      4  H   UNL     1       3.114  -3.268   0.520  0.00  0.00    +0.149 HD
ENDROOT
BRANCH   2   5
ATOM      5  C   UNL     1       5.069  -2.329  -0.948  0.00  0.00    +0.303 C 
ATOM      6  O   UNL     1       4.575  -3.300  -1.484  0.00  0.00    -0.265 OA
ATOM      7  N   UNL     1       6.097  -1.684  -1.534  0.00  0.00    -0.278 N 
ATOM      8  H   UNL     1       6.447  -0.870  -1.141  0.00  0.00    +0.155 HD
BRANCH   7   9
ATOM      9  C   UNL     1       6.659  -2.190  -2.711  0.00  0.00    +0.039 A 
ATOM     10  C   UNL     1       8.024  -2.071  -2.936  0.00  0.00    +0.065 A 
ATOM     11  C   UNL     1       8.580  -2.571  -4.099  0.00  0.00    +0.169 A 
ATOM     12  C   UNL     1       7.772  -3.193  -5.042  0.00  0.00    +0.190 A 
ATOM     13  C   UNL     1       6.407  -3.313  -4.818  0.00  0.00    +0.169 A 
ATOM     14  C   UNL     1       5.852  -2.817  -3.652  0.00  0.00    +0.065 A 
ATOM     15  F   UNL     1       5.622  -3.918  -5.736  0.00  0.00    -0.201 F 
ATOM     16  F   UNL     1       9.908  -2.455  -4.318  0.00  0.00    -0.201 F 
BRANCH  12  17
ATOM     17  O   UNL     1       8.319  -3.686  -6.187  0.00  0.00    -0.490 OA
ATOM     18  C   UNL     1       8.773  -5.040  -6.159  0.00  0.00    +0.277 C 
ENDBRANCH  12  17
ENDBRANCH   7   9
ENDBRANCH   2   5
BRANCH   1  19
ATOM     19  C   UNL     1       2.985  -2.020   2.233  0.00  0.00    +0.054 C 
ATOM     20  C   UNL     1       3.816  -2.615   3.372  0.00  0.00    +0.026 C 
BRANCH  19  21
ATOM     21  C   UNL     1       1.527  -2.458   2.383  0.00  0.00    -0.057 C 
BRANCH  21  27
ATOM     22  C   UNL     1      -0.037   1.507  -0.024  0.00  0.00    +0.005 C 
ATOM     23  C   UNL     1      -0.009  -0.022  -0.023  0.00  0.00    -0.031 C 
ATOM     24  C   UNL     1      -1.443  -0.560  -0.011  0.00  0.00    +0.003 C 
ATOM     25  C   UNL     1      -1.404  -2.089   0.069  0.00  0.00    -0.031 C 
ATOM     26  C   UNL     1      -0.617  -2.509   1.311  0.00  0.00    -0.076 C 
ATOM     27  N   UNL     1       0.753  -1.987   1.227  0.00  0.00    +0.381 N 
ATOM     28  C   UNL     1       0.728  -0.520   1.222  0.00  0.00    -0.076 C 
ATOM     29  C   UNL     1      -2.832  -2.632   0.160  0.00  0.00    +0.005 C 
ATOM     30  H   UNL     1       1.186  -2.317   0.378  0.00  0.00    -0.082 HD
ENDBRANCH  21  27
ENDBRANCH  19  21
ENDBRANCH   1  19
TORSDOF 6
