REMARK  Name = ZINC63329884
REMARK  3 active torsions:
REMARK  status: ('A' for Active; 'I' for Inactive)
REMARK    1  A    between atoms: C_1  and  N_2
REMARK    2  A    between atoms: C_3  and  C_5
REMARK    3  A    between atoms: C_8  and  N_11
REMARK                            x       y       z     vdW  Elec       q    Type
REMARK                         _______ _______ _______ _____ _____    ______ ____
ROOT
ATOM      1  N   UNL     1      -0.737  -4.277   3.442  0.00  0.00    -0.296 N 
ATOM      2  C   UNL     1      -0.613  -4.958   4.599  0.00  0.00    +0.303 C 
ATOM      3  O   UNL     1      -0.007  -6.012   4.622  0.00  0.00    -0.253 OA
ATOM      4  N   UNL     1      -1.159  -4.470   5.730  0.00  0.00    -0.281 N 
ATOM      5  C   UNL     1      -0.934  -5.144   7.018  0.00  0.00    +0.115 C 
ATOM      6  C   UNL     1      -0.135  -4.196   7.925  0.00  0.00    +0.062 C 
ATOM      7  C   UNL     1      -0.702  -2.819   7.796  0.00  0.00    -0.004 A 
ATOM      8  C   UNL     1      -1.525  -2.341   6.825  0.00  0.00    -0.020 A 
ATOM      9  C   UNL     1      -1.908  -1.005   6.930  0.00  0.00    +0.013 A 
ATOM     10  C   UNL     1      -1.467  -0.254   7.965  0.00  0.00    +0.046 A 
ATOM     11  S   UNL     1      -0.462  -1.425   8.866  0.00  0.00    -0.101 S 
ATOM     12  C   UNL     1      -1.984  -3.254   5.695  0.00  0.00    +0.145 C 
ATOM     13  H   UNL     1      -1.282  -3.475   3.408  0.00  0.00    +0.151 HD
ENDROOT
BRANCH   1  17
ATOM     14  C   UNL     1       0.619  -2.180   0.995  0.00  0.00    +0.075 C 
ATOM     15  C   UNL     1      -0.815  -2.714   1.005  0.00  0.00    +0.014 C 
ATOM     16  C   UNL     1      -0.790  -4.243   0.997  0.00  0.00    +0.023 C 
ATOM     17  C   UNL     1      -0.049  -4.748   2.237  0.00  0.00    +0.074 C 
ATOM     18  C   UNL     1       1.385  -4.214   2.227  0.00  0.00    +0.023 C 
ATOM     19  C   UNL     1       1.360  -2.684   2.235  0.00  0.00    +0.014 C 
BRANCH  14  22
ATOM     20  C   UNL     1      -0.033   1.461   0.008  0.00  0.00    +0.128 C 
ATOM     21  N   UNL     1      -0.009  -0.004   0.001  0.00  0.00    -0.318 N 
ATOM     22  C   UNL     1       0.594  -0.673   1.003  0.00  0.00    +0.216 C 
ATOM     23  O   UNL     1       1.118  -0.063   1.911  0.00  0.00    -0.276 OA
ATOM     24  H   UNL     1      -0.428  -0.492  -0.726  0.00  0.00    +0.148 HD
ENDBRANCH  14  22
ENDBRANCH   1  17
TORSDOF 2
