REMARK  Name = ZINC08343612
REMARK  10 active torsions:
REMARK  status: ('A' for Active; 'I' for Inactive)
REMARK    1  A    between atoms: C_1  and  C_2
REMARK    2  A    between atoms: C_2  and  C_3
REMARK    3  A    between atoms: C_3  and  N_4
REMARK    4  A    between atoms: C_13  and  C_15
REMARK    5  A    between atoms: N_17  and  N_18
REMARK    6  A    between atoms: C_19  and  C_20
REMARK    7  A    between atoms: C_23  and  C_26
REMARK    8  A    between atoms: C_26  and  C_27
REMARK    9  A    between atoms: C_26  and  C_28
REMARK   10  A    between atoms: C_26  and  C_29
REMARK                            x       y       z     vdW  Elec       q    Type
REMARK                         _______ _______ _______ _____ _____    ______ ____
ROOT
ATOM      1  C   UNL     1       1.482   6.026   2.574  0.00  0.00    +0.284 C 
ATOM      2  O   UNL     1       1.569   7.237   2.639  0.00  0.00    -0.267 OA
ATOM      3  N   UNL     1       2.446   5.251   3.109  0.00  0.00    -0.202 N 
ATOM      4  H   UNL     1       2.377   4.285   3.057  0.00  0.00    +0.178 HD
ENDROOT
BRANCH   1  14
ATOM      5  N   UNL     1      -0.755   3.484   1.277  0.00  0.00    -0.228 N 
ATOM      6  C   UNL     1      -1.795   4.112   0.692  0.00  0.00    +0.275 A 
ATOM      7  O   UNL     1      -2.693   3.475   0.171  0.00  0.00    -0.266 OA
ATOM      8  C   UNL     1      -1.823   5.581   0.702  0.00  0.00    +0.050 A 
ATOM      9  C   UNL     1      -2.852   6.321   0.130  0.00  0.00    +0.014 A 
ATOM     10  C   UNL     1      -2.800   7.698   0.176  0.00  0.00    +0.001 A 
ATOM     11  C   UNL     1      -1.736   8.348   0.786  0.00  0.00    +0.001 A 
ATOM     12  C   UNL     1      -0.706   7.632   1.359  0.00  0.00    +0.011 A 
ATOM     13  C   UNL     1      -0.738   6.242   1.323  0.00  0.00    +0.020 A 
ATOM     14  C   UNL     1       0.320   5.405   1.909  0.00  0.00    +0.155 A 
ATOM     15  N   UNL     1       0.218   4.100   1.835  0.00  0.00    -0.163 NA
BRANCH   5  16
ATOM     16  C   UNL     1      -0.735   2.019   1.269  0.00  0.00    +0.147 C 
BRANCH  16  18
ATOM     17  C   UNL     1       0.002  -0.004   0.002  0.00  0.00    +0.005 C 
ATOM     18  C   UNL     1      -0.019   1.526   0.010  0.00  0.00    +0.020 C 
ENDBRANCH  16  18
ENDBRANCH   5  16
ENDBRANCH   1  14
BRANCH   3  19
ATOM     19  N   UNL     1       3.549   5.841   3.740  0.00  0.00    -0.187 NA
ATOM     20  C   UNL     1       4.478   5.095   4.255  0.00  0.00    +0.138 C 
BRANCH  20  21
ATOM     21  C   UNL     1       5.639   5.716   4.920  0.00  0.00    -0.005 A 
ATOM     22  C   UNL     1       5.745   7.107   4.991  0.00  0.00    +0.010 A 
ATOM     23  C   UNL     1       6.832   7.681   5.618  0.00  0.00    +0.005 A 
ATOM     24  C   UNL     1       7.820   6.883   6.166  0.00  0.00    -0.042 A 
ATOM     25  C   UNL     1       7.724   5.504   6.095  0.00  0.00    +0.005 A 
ATOM     26  C   UNL     1       6.640   4.916   5.475  0.00  0.00    +0.010 A 
BRANCH  24  27
ATOM     27  C   UNL     1       9.007   7.517   6.843  0.00  0.00    -0.013 C 
ATOM     28  C   UNL     1      10.291   7.091   6.128  0.00  0.00    +0.015 C 
ATOM     29  C   UNL     1       8.873   9.040   6.787  0.00  0.00    +0.015 C 
ATOM     30  C   UNL     1       9.063   7.064   8.304  0.00  0.00    +0.015 C 
ENDBRANCH  24  27
ENDBRANCH  20  21
ENDBRANCH   3  19
TORSDOF 6
