REMARK  Name = ZINC46629633
REMARK  9 active torsions:
REMARK  status: ('A' for Active; 'I' for Inactive)
REMARK    1  A    between atoms: C_1  and  C_2
REMARK    2  A    between atoms: C_2  and  C_3
REMARK    3  A    between atoms: C_2  and  C_4
REMARK    4  A    between atoms: C_2  and  C_5
REMARK    5  A    between atoms: N_13  and  C_17
REMARK    6  A    between atoms: C_17  and  C_18
REMARK    7  A    between atoms: N_20  and  C_21
REMARK    8  A    between atoms: N_25  and  C_27
REMARK    9  A    between atoms: C_27  and  C_28
REMARK                            x       y       z     vdW  Elec       q    Type
REMARK                         _______ _______ _______ _____ _____    ______ ____
ROOT
ATOM      1  C   UNL     1       3.912   0.711  -6.937  0.00  0.00    +0.213 C 
ENDROOT
BRANCH   1  10
ATOM      2  C   UNL     1       0.718  -0.497  -1.257  0.00  0.00    -0.005 C 
ATOM      3  C   UNL     1      -0.024   0.007  -2.496  0.00  0.00    +0.006 C 
ATOM      4  C   UNL     1       0.688  -0.495  -3.755  0.00  0.00    +0.035 C 
ATOM      5  C   UNL     1       2.127   0.008  -3.763  0.00  0.00    +0.113 C 
ATOM      6  C   UNL     1       2.873  -0.471  -2.522  0.00  0.00    +0.035 C 
ATOM      7  C   UNL     1       2.154   0.032  -1.267  0.00  0.00    +0.006 C 
ATOM      8  C   UNL     1       2.839  -0.449  -5.015  0.00  0.00    +0.247 C 
ATOM      9  O   UNL     1       3.049  -1.590  -5.365  0.00  0.00    -0.273 OA
ATOM     10  N   UNL     1       3.191   0.682  -5.662  0.00  0.00    -0.215 N 
ATOM     11  C   UNL     1       2.801   1.774  -4.993  0.00  0.00    +0.310 C 
ATOM     12  O   UNL     1       3.005   2.909  -5.376  0.00  0.00    -0.252 OA
ATOM     13  N   UNL     1       2.159   1.473  -3.848  0.00  0.00    -0.285 N 
ATOM     14  H   UNL     1       1.789   2.101  -3.207  0.00  0.00    +0.151 HD
BRANCH   2  16
ATOM     15  C   UNL     1      -0.019   1.526   0.010  0.00  0.00    +0.011 C 
ATOM     16  C   UNL     1       0.002  -0.004   0.002  0.00  0.00    -0.035 C 
ATOM     17  C   UNL     1       0.742  -0.511   1.242  0.00  0.00    +0.011 C 
ATOM     18  C   UNL     1      -1.433  -0.534   0.013  0.00  0.00    +0.011 C 
ENDBRANCH   2  16
ENDBRANCH   1  10
BRANCH   1  19
ATOM     19  C   UNL     1       2.922   0.706  -8.073  0.00  0.00    +0.231 C 
ATOM     20  O   UNL     1       1.732   0.681  -7.841  0.00  0.00    -0.274 OA
ATOM     21  N   UNL     1       3.359   0.730  -9.348  0.00  0.00    -0.313 N 
ATOM     22  H   UNL     1       4.311   0.750  -9.534  0.00  0.00    +0.149 HD
BRANCH  21  23
ATOM     23  C   UNL     1       2.397   0.725 -10.453  0.00  0.00    +0.055 C 
ATOM     24  C   UNL     1       2.029  -0.726 -10.838  0.00  0.00    +0.002 C 
ATOM     25  C   UNL     1       1.948  -0.664 -12.384  0.00  0.00    -0.077 C 
ATOM     26  N   UNL     1       3.050   0.264 -12.745  0.00  0.00    +0.384 N 
ATOM     27  C   UNL     1       3.032   1.331 -11.718  0.00  0.00    -0.056 C 
ATOM     28  H   UNL     1       3.934  -0.222 -12.729  0.00  0.00    -0.081 HD
BRANCH  26  29
ATOM     29  C   UNL     1       2.811   0.840 -14.075  0.00  0.00    -0.043 C 
BRANCH  29  30
ATOM     30  C   UNL     1       2.900  -0.246 -15.116  0.00  0.00    -0.064 A 
ATOM     31  C   UNL     1       4.114  -0.539 -15.709  0.00  0.00    +0.002 A 
ATOM     32  C   UNL     1       4.195  -1.535 -16.664  0.00  0.00    +0.000 A 
ATOM     33  C   UNL     1       3.061  -2.239 -17.025  0.00  0.00    +0.000 A 
ATOM     34  C   UNL     1       1.847  -1.948 -16.432  0.00  0.00    +0.000 A 
ATOM     35  C   UNL     1       1.767  -0.954 -15.474  0.00  0.00    +0.002 A 
ENDBRANCH  29  30
ENDBRANCH  26  29
ENDBRANCH  21  23
ENDBRANCH   1  19
TORSDOF 6
