REMARK  Name = ZINC28066522
REMARK  4 active torsions:
REMARK  status: ('A' for Active; 'I' for Inactive)
REMARK    1  A    between atoms: C_1  and  C_2
REMARK    2  A    between atoms: C_5  and  C_8
REMARK    3  A    between atoms: N_13  and  C_15
REMARK    4  A    between atoms: C_15  and  N_16
REMARK                            x       y       z     vdW  Elec       q    Type
REMARK                         _______ _______ _______ _____ _____    ______ ____
ROOT
ATOM      1  C   UNL     1       0.059  -4.252  -0.021  0.00  0.00    +0.160 A 
ATOM      2  N   UNL     1       0.070  -5.065   1.095  0.00  0.00    -0.317 N 
ATOM      3  H   UNL     1       0.066  -4.764   2.017  0.00  0.00    +0.169 HD
ATOM      4  C   UNL     1       0.086  -6.348   0.684  0.00  0.00    +0.174 A 
ATOM      5  S   UNL     1       0.104  -7.732   1.691  0.00  0.00    -0.012 S 
ATOM      6  N   UNL     1       0.086  -6.345  -0.665  0.00  0.00    -0.257 N 
ATOM      7  N   UNL     1       0.064  -5.008  -1.084  0.00  0.00    -0.153 NA
ENDROOT
BRANCH   1  12
ATOM      8  C   UNL     1      -0.018   1.503   0.010  0.00  0.00    +0.044 C 
ATOM      9  C   UNL     1       0.002  -0.004   0.002  0.00  0.00    -0.050 A 
ATOM     10  C   UNL     1       0.006  -0.686  -1.202  0.00  0.00    +0.004 A 
ATOM     11  C   UNL     1       0.024  -2.066  -1.216  0.00  0.00    +0.012 A 
ATOM     12  C   UNL     1       0.040  -2.773  -0.013  0.00  0.00    +0.019 A 
ATOM     13  C   UNL     1       0.036  -2.079   1.197  0.00  0.00    +0.012 A 
ATOM     14  C   UNL     1       0.023  -0.699   1.198  0.00  0.00    +0.004 A 
ENDBRANCH   1  12
BRANCH   6  15
ATOM     15  C   UNL     1       0.101  -7.525  -1.534  0.00  0.00    +0.072 C 
BRANCH  15  16
ATOM     16  N   UNL     1      -1.234  -7.723  -2.113  0.00  0.00    +0.393 N 
ATOM     17  C   UNL     1      -2.189  -8.031  -1.042  0.00  0.00    -0.071 C 
ATOM     18  C   UNL     1      -3.597  -8.155  -1.628  0.00  0.00    +0.046 C 
ATOM     19  C   UNL     1      -3.611  -9.274  -2.672  0.00  0.00    +0.167 C 
ATOM     20  C   UNL     1      -2.557  -8.988  -3.743  0.00  0.00    +0.046 C 
ATOM     21  C   UNL     1      -1.189  -8.832  -3.074  0.00  0.00    -0.071 C 
ATOM     22  O   UNL     1      -3.318 -10.528  -2.034  0.00  0.00    -0.346 OA
ATOM     23  C   UNL     1      -4.613 -11.115  -1.760  0.00  0.00    +0.191 C 
ATOM     24  C   UNL     1      -5.430 -10.668  -2.999  0.00  0.00    +0.191 C 
ATOM     25  O   UNL     1      -4.907  -9.353  -3.278  0.00  0.00    -0.346 OA
ATOM     26  H   UNL     1      -1.523  -6.881  -2.586  0.00  0.00    -0.079 HD
ENDBRANCH  15  16
ENDBRANCH   6  15
TORSDOF 3
