REMARK  Name = ZINC59370324
REMARK  2 active torsions:
REMARK  status: ('A' for Active; 'I' for Inactive)
REMARK    1  A    between atoms: C_9  and  C_12
REMARK    2  A    between atoms: C_15  and  N_18
REMARK                            x       y       z     vdW  Elec       q    Type
REMARK                         _______ _______ _______ _____ _____    ______ ____
ROOT
ATOM      1  C   UNL     1      -0.017   1.377   0.010  0.00  0.00    +0.001 A 
ATOM      2  C   UNL     1       1.167   2.094   0.002  0.00  0.00    +0.001 A 
ATOM      3  C   UNL     1       2.382   1.437  -0.013  0.00  0.00    +0.012 A 
ATOM      4  C   UNL     1       2.424   0.041  -0.022  0.00  0.00    +0.030 A 
ATOM      5  C   UNL     1       1.220  -0.688  -0.014  0.00  0.00    +0.030 A 
ATOM      6  C   UNL     1       0.002  -0.004   0.002  0.00  0.00    +0.012 A 
ATOM      7  C   UNL     1       1.510  -2.133  -0.026  0.00  0.00    +0.192 C 
ATOM      8  O   UNL     1       0.695  -3.030  -0.023  0.00  0.00    -0.290 OA
ATOM      9  C   UNL     1       3.013  -2.290  -0.042  0.00  0.00    +0.175 C 
ATOM     10  C   UNL     1       3.570  -0.886  -0.039  0.00  0.00    +0.192 C 
ATOM     11  O   UNL     1       4.743  -0.579  -0.050  0.00  0.00    -0.290 OA
ATOM     12 BR   UNL     1       3.578  -3.241  -1.667  0.00  0.00    -0.062 Br
ENDROOT
BRANCH   9  13
ATOM     13  C   UNL     1       3.472  -3.034   1.185  0.00  0.00    -0.016 A 
ATOM     14  C   UNL     1       2.614  -3.195   2.257  0.00  0.00    +0.008 A 
ATOM     15  C   UNL     1       3.035  -3.878   3.383  0.00  0.00    +0.033 A 
ATOM     16  C   UNL     1       4.314  -4.401   3.436  0.00  0.00    +0.126 A 
ATOM     17  C   UNL     1       5.171  -4.241   2.363  0.00  0.00    +0.033 A 
ATOM     18  C   UNL     1       4.749  -3.562   1.236  0.00  0.00    +0.008 A 
BRANCH  16  19
ATOM     19  N   UNL     1       4.766  -5.132   4.641  0.00  0.00    +0.056 N 
ATOM     20  O   UNL     1       4.016  -5.271   5.579  0.00  0.00    -0.126 OA
ATOM     21  O   UNL     1       5.884  -5.589   4.688  0.00  0.00    -0.126 OA
ENDBRANCH  16  19
ENDBRANCH   9  13
TORSDOF 2
