REMARK  Name = ZINC05343905
REMARK  9 active torsions:
REMARK  status: ('A' for Active; 'I' for Inactive)
REMARK    1  A    between atoms: C_1  and  C_2
REMARK    2  A    between atoms: C_2  and  O_3
REMARK    3  A    between atoms: O_3  and  C_4
REMARK    4  A    between atoms: C_6  and  C_12
REMARK    5  A    between atoms: C_9  and  O_10
REMARK    6  A    between atoms: O_10  and  C_11
REMARK    7  A    between atoms: C_15  and  C_26
REMARK    8  A    between atoms: C_21  and  N_25
REMARK    9  A    between atoms: C_22  and  C_23
REMARK                            x       y       z     vdW  Elec       q    Type
REMARK                         _______ _______ _______ _____ _____    ______ ____
ROOT
ATOM      1  C   UNL     1      -0.217  -4.963  -0.535  0.00  0.00    +0.097 C 
ATOM      2  C   UNL     1       0.892  -5.761  -1.151  0.00  0.00    +0.027 A 
ATOM      3  C   UNL     1       1.821  -5.324  -2.115  0.00  0.00    +0.133 A 
ATOM      4  N   UNL     1       2.637  -6.325  -2.387  0.00  0.00    -0.169 NA
ATOM      5  N   UNL     1       2.255  -7.429  -1.610  0.00  0.00    -0.270 N 
ATOM      6  H   UNL     1       2.682  -8.300  -1.606  0.00  0.00    +0.190 HD
ATOM      7  C   UNL     1       1.186  -7.063  -0.871  0.00  0.00    +0.102 A 
ATOM      8  S   UNL     1       0.266  -8.039   0.274  0.00  0.00    -0.054 S 
ATOM      9  C   UNL     1      -1.194  -7.077   0.502  0.00  0.00    +0.079 C 
ATOM     10  C   UNL     1      -1.268  -5.793   0.110  0.00  0.00    +0.069 C 
ENDROOT
BRANCH   1  13
ATOM     11  C   UNL     1       0.802  -1.825   1.306  0.00  0.00    +0.162 A 
ATOM     12  C   UNL     1       0.261  -2.673   0.353  0.00  0.00    +0.054 A 
ATOM     13  C   UNL     1       0.372  -4.043   0.502  0.00  0.00    -0.031 A 
ATOM     14  C   UNL     1       1.024  -4.570   1.602  0.00  0.00    +0.008 A 
ATOM     15  C   UNL     1       1.566  -3.730   2.557  0.00  0.00    +0.050 A 
ATOM     16  C   UNL     1       1.462  -2.356   2.410  0.00  0.00    +0.162 A 
BRANCH  16  17
ATOM     17  O   UNL     1       2.000  -1.528   3.345  0.00  0.00    -0.491 OA
ATOM     18  C   UNL     1       2.664  -2.143   4.451  0.00  0.00    +0.277 C 
ENDBRANCH  16  17
BRANCH  11  19
ATOM     19  O   UNL     1       0.693  -0.477   1.160  0.00  0.00    -0.489 OA
BRANCH  19  21
ATOM     20  C   UNL     1      -0.019   1.526   0.010  0.00  0.00    +0.048 C 
ATOM     21  C   UNL     1       0.002  -0.004   0.002  0.00  0.00    +0.226 C 
ENDBRANCH  19  21
ENDBRANCH  11  19
ENDBRANCH   1  13
BRANCH   3  22
ATOM     22  C   UNL     1       1.874  -3.975  -2.718  0.00  0.00    +0.155 A 
ATOM     23  C   UNL     1       3.001  -3.308  -3.083  0.00  0.00    +0.051 A 
ATOM     24  C   UNL     1       2.586  -2.069  -3.611  0.00  0.00    +0.042 A 
ATOM     25  C   UNL     1       1.241  -2.041  -3.542  0.00  0.00    +0.196 A 
ATOM     26  O   UNL     1       0.814  -3.196  -3.006  0.00  0.00    -0.461 OA
ENDBRANCH   3  22
BRANCH   9  27
ATOM     27  N   UNL     1      -2.289  -7.658   1.098  0.00  0.00    -0.352 N 
ATOM     28  H   UNL     1      -2.250  -8.583   1.386  0.00  0.00    +0.143 HD
ATOM     29  H   UNL     1      -3.100  -7.142   1.230  0.00  0.00    +0.143 HD
ENDBRANCH   9  27
BRANCH  10  30
ATOM     30  C   UNL     1      -2.522  -5.144   0.346  0.00  0.00    +0.098 C 
ATOM     31  N   UNL     1      -3.517  -4.628   0.533  0.00  0.00    -0.191 NA
ENDBRANCH  10  30
TORSDOF 7
