REMARK  Name = ZINC12458502
REMARK  9 active torsions:
REMARK  status: ('A' for Active; 'I' for Inactive)
REMARK    1  A    between atoms: C_1  and  O_2
REMARK    2  A    between atoms: O_2  and  C_3
REMARK    3  A    between atoms: C_6  and  C_11
REMARK    4  A    between atoms: C_7  and  O_9
REMARK    5  A    between atoms: O_9  and  C_10
REMARK    6  A    between atoms: C_11  and  N_60
REMARK    7  A    between atoms: C_17  and  C_19
REMARK    8  A    between atoms: C_19  and  C_20
REMARK    9  A    between atoms: N_22  and  C_23
REMARK                            x       y       z     vdW  Elec       q    Type
REMARK                         _______ _______ _______ _____ _____    ______ ____
ROOT
ATOM      1  C   UNL     1      -1.232   3.274  -1.913  0.00  0.00    -0.058 C 
ATOM      2  C   UNL     1      -1.825   3.520  -3.302  0.00  0.00    +0.085 C 
ATOM      3  N   UNL     1      -0.976   2.913  -4.323  0.00  0.00    -0.318 N 
ATOM      4  C   UNL     1      -0.070   1.968  -4.048  0.00  0.00    +0.200 C 
ATOM      5  O   UNL     1       0.572   1.495  -4.961  0.00  0.00    -0.278 OA
ATOM      6  C   UNL     1       0.185   1.469  -2.654  0.00  0.00    +0.028 C 
ATOM      7  H   UNL     1      -1.074   3.207  -5.242  0.00  0.00    +0.149 HD
ATOM      8  N   UNL     1      -0.951   1.830  -1.786  0.00  0.00    +0.391 N 
ATOM      9  H   UNL     1      -1.779   1.299  -2.079  0.00  0.00    -0.080 HD
ENDROOT
BRANCH   8  10
ATOM     10  C   UNL     1      -0.639   1.495  -0.377  0.00  0.00    -0.038 C 
BRANCH  10  14
ATOM     11  C   UNL     1      -3.814   2.884   2.129  0.00  0.00    +0.124 A 
ATOM     12  C   UNL     1      -2.638   3.614   2.024  0.00  0.00    +0.046 A 
ATOM     13  C   UNL     1      -1.612   3.160   1.218  0.00  0.00    +0.009 A 
ATOM     14  C   UNL     1      -1.758   1.985   0.506  0.00  0.00    -0.022 A 
ATOM     15  C   UNL     1      -2.931   1.252   0.608  0.00  0.00    +0.125 A 
ATOM     16  C   UNL     1      -3.960   1.702   1.420  0.00  0.00    +0.091 A 
BRANCH  11  18
ATOM     17  C   UNL     1      -4.601   4.554   3.628  0.00  0.00    +0.277 C 
ATOM     18  O   UNL     1      -4.821   3.328   2.927  0.00  0.00    -0.495 OA
ENDBRANCH  11  18
BRANCH  15  19
ATOM     19  O   UNL     1      -3.072   0.093  -0.089  0.00  0.00    -0.495 OA
ATOM     20  C   UNL     1      -4.307  -0.610   0.064  0.00  0.00    +0.277 C 
ENDBRANCH  15  19
ENDBRANCH  10  14
ENDBRANCH   8  10
BRANCH   6  21
ATOM     21  C   UNL     1       0.329  -0.054  -2.678  0.00  0.00    +0.089 C 
BRANCH  21  22
ATOM     22  C   UNL     1      -0.964  -0.673  -3.142  0.00  0.00    +0.212 C 
ATOM     23  O   UNL     1      -1.942   0.023  -3.317  0.00  0.00    -0.276 OA
ATOM     24  N   UNL     1      -1.035  -2.001  -3.362  0.00  0.00    -0.312 N 
ATOM     25  H   UNL     1      -0.253  -2.558  -3.223  0.00  0.00    +0.149 HD
BRANCH  24  26
ATOM     26  C   UNL     1      -2.292  -2.603  -3.813  0.00  0.00    +0.082 C 
ATOM     27  C   UNL     1      -3.134  -3.081  -2.611  0.00  0.00    +0.058 C 
ATOM     28  C   UNL     1      -3.820  -4.344  -3.085  0.00  0.00    -0.042 A 
ATOM     29  C   UNL     1      -4.913  -5.020  -2.569  0.00  0.00    +0.004 A 
ATOM     30  C   UNL     1      -5.370  -6.171  -3.179  0.00  0.00    +0.000 A 
ATOM     31  C   UNL     1      -4.735  -6.652  -4.309  0.00  0.00    +0.000 A 
ATOM     32  C   UNL     1      -3.644  -5.981  -4.825  0.00  0.00    +0.004 A 
ATOM     33  C   UNL     1      -3.184  -4.825  -4.215  0.00  0.00    -0.042 A 
ATOM     34  C   UNL     1      -2.028  -3.918  -4.577  0.00  0.00    +0.058 C 
ENDBRANCH  24  26
ENDBRANCH  21  22
ENDBRANCH   6  21
TORSDOF 7
