REMARK  Name = ZINC58864692
REMARK  7 active torsions:
REMARK  status: ('A' for Active; 'I' for Inactive)
REMARK    1  A    between atoms: C_1  and  C_2
REMARK    2  A    between atoms: C_7  and  N_8
REMARK    3  A    between atoms: N_11  and  N_12
REMARK    4  A    between atoms: C_13  and  C_15
REMARK    5  A    between atoms: N_19  and  C_21
REMARK    6  A    between atoms: C_25  and  C_28
REMARK    7  A    between atoms: C_26  and  C_27
REMARK                            x       y       z     vdW  Elec       q    Type
REMARK                         _______ _______ _______ _____ _____    ______ ____
ROOT
ATOM      1  N   UNL     1      -0.175   1.375   4.750  0.00  0.00    -0.233 N 
ATOM      2  C   UNL     1      -0.274   2.042   5.917  0.00  0.00    +0.234 C 
ATOM      3  O   UNL     1      -0.347   1.431   6.961  0.00  0.00    -0.274 OA
ATOM      4  H   UNL     1      -0.116   1.864   3.915  0.00  0.00    +0.173 HD
ENDROOT
BRANCH   1   8
ATOM      5  N   UNL     1       0.025  -0.015   2.417  0.00  0.00    -0.268 N 
ATOM      6  C   UNL     1      -0.056  -0.694   3.578  0.00  0.00    +0.320 C 
ATOM      7  O   UNL     1      -0.040  -1.910   3.573  0.00  0.00    -0.251 OA
ATOM      8  N   UNL     1      -0.156  -0.026   4.745  0.00  0.00    -0.218 N 
ATOM      9  H   UNL     1       0.078   0.954   2.425  0.00  0.00    +0.156 HD
ATOM     10  H   UNL     1      -0.214  -0.515   5.580  0.00  0.00    +0.174 HD
BRANCH   5  17
ATOM     11  C   UNL     1      -1.267   1.183   0.182  0.00  0.00    +0.045 C 
ATOM     12  C   UNL     1      -0.585  -0.158   0.085  0.00  0.00    -0.029 A 
ATOM     13  C   UNL     1      -0.571  -0.841  -1.116  0.00  0.00    +0.005 A 
ATOM     14  C   UNL     1       0.054  -2.071  -1.206  0.00  0.00    +0.000 A 
ATOM     15  C   UNL     1       0.666  -2.622  -0.095  0.00  0.00    +0.002 A 
ATOM     16  C   UNL     1       0.654  -1.945   1.108  0.00  0.00    +0.023 A 
ATOM     17  C   UNL     1       0.033  -0.706   1.200  0.00  0.00    +0.038 A 
ENDBRANCH   5  17
ENDBRANCH   1   8
BRANCH   2  18
ATOM     18  C   UNL     1      -0.294   3.549   5.923  0.00  0.00    +0.103 C 
ATOM     19  C   UNL     1       1.072   4.123   5.480  0.00  0.00    +0.110 C 
ATOM     20  C   UNL     1       1.259   5.347   6.349  0.00  0.00    +0.221 C 
ATOM     21  O   UNL     1       2.057   6.235   6.135  0.00  0.00    -0.275 OA
ATOM     22  N   UNL     1       0.412   5.308   7.392  0.00  0.00    -0.270 N 
ATOM     23  C   UNL     1      -0.413   4.095   7.363  0.00  0.00    +0.127 C 
BRANCH  22  24
ATOM     24  C   UNL     1       0.327   6.297   8.378  0.00  0.00    +0.039 A 
ATOM     25  C   UNL     1      -0.547   7.364   8.220  0.00  0.00    +0.024 A 
ATOM     26  C   UNL     1      -0.628   8.339   9.195  0.00  0.00    +0.002 A 
ATOM     27  C   UNL     1       0.161   8.253  10.328  0.00  0.00    +0.004 A 
ATOM     28  C   UNL     1       1.032   7.192  10.488  0.00  0.00    -0.046 A 
ATOM     29  C   UNL     1       1.113   6.211   9.519  0.00  0.00    -0.026 A 
ATOM     30  C   UNL     1       2.059   5.051   9.698  0.00  0.00    +0.046 C 
ATOM     31  C   UNL     1       1.891   7.103  11.723  0.00  0.00    +0.044 C 
ENDBRANCH  22  24
ENDBRANCH   2  18
TORSDOF 4
