REMARK  Name = ZINC57498796
REMARK  11 active torsions:
REMARK  status: ('A' for Active; 'I' for Inactive)
REMARK    1  A    between atoms: C_1  and  C_2
REMARK    2  A    between atoms: C_2  and  N_3
REMARK    3  A    between atoms: N_3  and  C_4
REMARK    4  A    between atoms: N_3  and  C_6
REMARK    5  A    between atoms: C_4  and  C_5
REMARK    6  A    between atoms: C_6  and  C_7
REMARK    7  A    between atoms: C_7  and  N_8
REMARK    8  A    between atoms: N_17  and  C_18
REMARK    9  A    between atoms: C_18  and  C_20
REMARK   10  A    between atoms: C_20  and  C_21
REMARK   11  A    between atoms: C_26  and  C_27
REMARK                            x       y       z     vdW  Elec       q    Type
REMARK                         _______ _______ _______ _____ _____    ______ ____
ROOT
ATOM      1  N   UNL     1       1.751  -3.957   1.750  0.00  0.00    -0.314 N 
ATOM      2  C   UNL     1       0.819  -4.904   2.163  0.00  0.00    +0.068 A 
ATOM      3  C   UNL     1      -0.365  -4.818   2.882  0.00  0.00    +0.028 A 
ATOM      4  C   UNL     1      -1.094  -5.960   3.145  0.00  0.00    +0.002 A 
ATOM      5  C   UNL     1      -0.649  -7.192   2.695  0.00  0.00    +0.002 A 
ATOM      6  C   UNL     1       0.527  -7.288   1.979  0.00  0.00    +0.028 A 
ATOM      7  C   UNL     1       1.268  -6.146   1.708  0.00  0.00    +0.066 A 
ATOM      8  N   UNL     1       2.462  -5.927   1.030  0.00  0.00    -0.326 N 
ATOM      9  C   UNL     1       2.732  -4.596   1.062  0.00  0.00    +0.201 A 
ATOM     10  N   UNL     1       3.793  -4.012   0.510  0.00  0.00    -0.146 NA
ATOM     11  H   UNL     1       3.006  -6.608   0.603  0.00  0.00    +0.169 HD
ENDROOT
BRANCH  10  12
ATOM     12  C   UNL     1       4.626  -4.722  -0.244  0.00  0.00    +0.243 C 
ATOM     13  O   UNL     1       4.371  -5.882  -0.505  0.00  0.00    -0.273 OA
BRANCH  12  14
ATOM     14  C   UNL     1       5.886  -4.089  -0.777  0.00  0.00    +0.133 C 
BRANCH  14  15
ATOM     15  C   UNL     1       6.647  -5.099  -1.595  0.00  0.00    -0.036 A 
ATOM     16  C   UNL     1       7.655  -5.844  -1.011  0.00  0.00    +0.004 A 
ATOM     17  C   UNL     1       8.354  -6.770  -1.762  0.00  0.00    +0.000 A 
ATOM     18  C   UNL     1       8.045  -6.952  -3.098  0.00  0.00    +0.000 A 
ATOM     19  C   UNL     1       7.037  -6.208  -3.682  0.00  0.00    +0.003 A 
ATOM     20  C   UNL     1       6.335  -5.284  -2.929  0.00  0.00    -0.047 A 
ATOM     21  C   UNL     1       5.233  -4.477  -3.564  0.00  0.00    +0.044 C 
ENDBRANCH  14  15
ENDBRANCH  12  14
ENDBRANCH  10  12
BRANCH   1  22
ATOM     22  C   UNL     1       1.682  -2.516   2.009  0.00  0.00    +0.106 C 
BRANCH  22  23
ATOM     23  C   UNL     1       0.919  -1.831   0.873  0.00  0.00    -0.057 C 
BRANCH  23  24
ATOM     24  N   UNL     1       0.741  -0.408   1.192  0.00  0.00    +0.380 N 
ATOM     25  H   UNL     1       0.277  -0.318   2.084  0.00  0.00    -0.082 HD
BRANCH  24  27
ATOM     26  C   UNL     1       1.879   1.698   1.710  0.00  0.00    -0.017 C 
ATOM     27  C   UNL     1       2.054   0.248   1.256  0.00  0.00    -0.082 C 
ENDBRANCH  24  27
BRANCH  24  28
ATOM     28  C   UNL     1      -0.074   0.230   0.150  0.00  0.00    -0.082 C 
ATOM     29  C   UNL     1      -1.481  -0.372   0.163  0.00  0.00    -0.017 C 
ENDBRANCH  24  28
ENDBRANCH  23  24
ENDBRANCH  22  23
ENDBRANCH   1  22
TORSDOF 8
