REMARK  Name = ZINC66345314
REMARK  4 active torsions:
REMARK  status: ('A' for Active; 'I' for Inactive)
REMARK    1  A    between atoms: C_3  and  N_12
REMARK    2  A    between atoms: N_15  and  C_16
REMARK    3  A    between atoms: C_16  and  C_17
REMARK    4  A    between atoms: N_21  and  C_23
REMARK                            x       y       z     vdW  Elec       q    Type
REMARK                         _______ _______ _______ _____ _____    ______ ____
ROOT
ATOM      1  N   UNL     1       3.589   2.022  -0.007  0.00  0.00    -0.267 N 
ATOM      2  C   UNL     1       3.623   3.367  -0.096  0.00  0.00    +0.304 C 
ATOM      3  O   UNL     1       2.587   4.003  -0.082  0.00  0.00    -0.253 OA
ATOM      4  N   UNL     1       4.805   4.006  -0.199  0.00  0.00    -0.299 N 
ATOM      5  H   UNL     1       4.416   1.519   0.044  0.00  0.00    +0.156 HD
ATOM      6  H   UNL     1       5.631   3.498  -0.210  0.00  0.00    +0.150 HD
ENDROOT
BRANCH   1   9
ATOM      7  C   UNL     1       0.053   1.224   0.614  0.00  0.00    +0.019 A 
ATOM      8  C   UNL     1       1.251   1.926   0.622  0.00  0.00    +0.028 A 
ATOM      9  C   UNL     1       2.358   1.352   0.011  0.00  0.00    +0.073 A 
ATOM     10  C   UNL     1       2.225   0.096  -0.587  0.00  0.00    +0.121 A 
ATOM     11  N   UNL     1       1.063  -0.536  -0.570  0.00  0.00    -0.348 N 
ATOM     12  C   UNL     1      -0.004  -0.012   0.004  0.00  0.00    +0.084 A 
ATOM     13  N   UNL     1       3.324  -0.495  -1.204  0.00  0.00    -0.315 N 
ATOM     14  C   UNL     1       3.765  -0.252  -2.585  0.00  0.00    +0.106 C 
ATOM     15  C   UNL     1       5.002  -1.140  -2.835  0.00  0.00    +0.020 C 
ATOM     16  C   UNL     1       4.850  -2.255  -1.767  0.00  0.00    +0.020 C 
ATOM     17  C   UNL     1       4.243  -1.464  -0.579  0.00  0.00    +0.106 C 
ATOM     18  H   UNL     1       0.994  -1.407  -0.992  0.00  0.00    +0.167 HD
ENDBRANCH   1   9
BRANCH   4  19
ATOM     19  C   UNL     1       4.842   5.467  -0.295  0.00  0.00    +0.110 C 
BRANCH  19  20
ATOM     20  C   UNL     1       6.295   5.935  -0.401  0.00  0.00    +0.025 C 
ATOM     21  C   UNL     1       6.907   5.518  -1.765  0.00  0.00    +0.025 C 
ATOM     22  C   UNL     1       8.004   6.595  -1.955  0.00  0.00    +0.105 C 
ATOM     23  N   UNL     1       7.415   7.834  -1.416  0.00  0.00    -0.330 N 
ATOM     24  C   UNL     1       6.371   7.476  -0.440  0.00  0.00    +0.110 C 
BRANCH  23  25
ATOM     25  C   UNL     1       7.787   9.134  -1.769  0.00  0.00    +0.030 A 
ATOM     26  C   UNL     1       7.155  10.223  -1.181  0.00  0.00    +0.026 A 
ATOM     27  C   UNL     1       7.525  11.506  -1.531  0.00  0.00    +0.040 A 
ATOM     28  C   UNL     1       8.525  11.709  -2.467  0.00  0.00    +0.124 A 
ATOM     29  C   UNL     1       9.157  10.626  -3.054  0.00  0.00    +0.040 A 
ATOM     30  C   UNL     1       8.794   9.340  -2.704  0.00  0.00    +0.026 A 
ATOM     31  F   UNL     1       8.885  12.966  -2.809  0.00  0.00    -0.205 F 
ENDBRANCH  23  25
ENDBRANCH  19  20
ENDBRANCH   4  19
TORSDOF 4
