REMARK  Name = ZINC20898360
REMARK  7 active torsions:
REMARK  status: ('A' for Active; 'I' for Inactive)
REMARK    1  A    between atoms: C_1  and  C_2
REMARK    2  A    between atoms: C_5  and  C_24
REMARK    3  A    between atoms: C_10  and  C_12
REMARK    4  A    between atoms: C_14  and  N_21
REMARK    5  A    between atoms: C_17  and  N_18
REMARK    6  A    between atoms: N_18  and  C_19
REMARK    7  A    between atoms: N_18  and  C_20
REMARK                            x       y       z     vdW  Elec       q    Type
REMARK                         _______ _______ _______ _____ _____    ______ ____
ROOT
ATOM      1  C   UNL     1      -1.233   1.760  -0.001  0.00  0.00    +0.060 A 
ATOM      2  C   UNL     1      -0.329   1.585  -1.052  0.00  0.00    +0.047 A 
ATOM      3  C   UNL     1       0.852   2.294  -1.067  0.00  0.00    +0.127 A 
ATOM      4  C   UNL     1       1.153   3.177  -0.042  0.00  0.00    +0.034 A 
ATOM      5  C   UNL     1       0.274   3.357   1.006  0.00  0.00    +0.026 A 
ATOM      6  C   UNL     1      -0.922   2.651   1.039  0.00  0.00    +0.042 A 
ENDROOT
BRANCH   1  14
ATOM      7  C   UNL     1      -1.347  -1.500   2.359  0.00  0.00    +0.009 C 
ATOM      8  C   UNL     1      -1.274  -2.158   0.980  0.00  0.00    +0.004 C 
ATOM      9  C   UNL     1      -2.513  -3.030   0.764  0.00  0.00    +0.009 C 
ATOM     10  C   UNL     1      -3.773  -2.168   0.883  0.00  0.00    +0.004 C 
ATOM     11  C   UNL     1      -3.750  -1.085  -0.199  0.00  0.00    +0.111 C 
ATOM     12  N   UNL     1      -2.492  -0.334  -0.090  0.00  0.00    -0.297 N 
ATOM     13  C   UNL     1      -1.223  -1.074  -0.107  0.00  0.00    +0.111 C 
ATOM     14  C   UNL     1      -2.502   1.010   0.019  0.00  0.00    +0.248 C 
ATOM     15  O   UNL     1      -3.557   1.603   0.134  0.00  0.00    -0.270 OA
ATOM     16  C   UNL     1      -5.012  -3.047   0.701  0.00  0.00    +0.009 C 
ENDBRANCH   1  14
BRANCH   6  17
ATOM     17  N   UNL     1      -1.809   2.830   2.093  0.00  0.00    -0.335 N 
ATOM     18  C   UNL     1      -1.183   2.476   3.374  0.00  0.00    +0.129 C 
ATOM     19  C   UNL     1      -2.323   4.206   2.120  0.00  0.00    +0.129 C 
ENDBRANCH   6  17
BRANCH   3  20
ATOM     20  N   UNL     1       1.805   2.112  -2.185  0.00  0.00    +0.056 N 
ATOM     21  O   UNL     1       1.544   1.337  -3.088  0.00  0.00    -0.126 OA
ATOM     22  O   UNL     1       2.851   2.736  -2.203  0.00  0.00    -0.126 OA
ENDBRANCH   3  20
TORSDOF 3
