REMARK  Name = ZINC09659544
REMARK  5 active torsions:
REMARK  status: ('A' for Active; 'I' for Inactive)
REMARK    1  A    between atoms: C_1  and  N_2
REMARK    2  A    between atoms: C_4  and  C_20
REMARK    3  A    between atoms: N_9  and  C_14
REMARK    4  A    between atoms: N_22  and  C_23
REMARK    5  A    between atoms: C_23  and  C_24
REMARK                            x       y       z     vdW  Elec       q    Type
REMARK                         _______ _______ _______ _____ _____    ______ ____
ROOT
ATOM      1  C   UNL     1       2.677   0.780  -2.088  0.00  0.00    +0.149 C 
ATOM      2  N   UNL     1       2.316   1.929  -1.254  0.00  0.00    -0.344 N 
ATOM      3  C   UNL     1       3.133   2.948  -0.938  0.00  0.00    +0.101 A 
ATOM      4  C   UNL     1       2.448   3.841  -0.138  0.00  0.00    +0.078 A 
ATOM      5  C   UNL     1       1.141   3.327   0.037  0.00  0.00    +0.086 A 
ATOM      6  C   UNL     1       1.083   2.134  -0.668  0.00  0.00    +0.132 A 
ATOM      7  C   UNL     1      -0.127   1.400  -0.663  0.00  0.00    +0.285 A 
ATOM      8  O   UNL     1      -0.211   0.348  -1.272  0.00  0.00    -0.265 OA
ATOM      9  N   UNL     1      -1.187   1.879   0.018  0.00  0.00    -0.227 N 
ATOM     10  C   UNL     1      -1.110   3.034   0.700  0.00  0.00    +0.334 A 
ATOM     11  O   UNL     1      -2.086   3.433   1.307  0.00  0.00    -0.246 OA
ATOM     12  N   UNL     1       0.022   3.764   0.722  0.00  0.00    -0.305 N 
ATOM     13  H   UNL     1       0.052   4.597   1.218  0.00  0.00    +0.170 HD
ENDROOT
BRANCH   9  14
ATOM     14  C   UNL     1      -2.388   1.157   0.019  0.00  0.00    +0.054 A 
ATOM     15  C   UNL     1      -2.623   0.198   0.996  0.00  0.00    +0.026 A 
ATOM     16  C   UNL     1      -3.810  -0.507   0.998  0.00  0.00    +0.002 A 
ATOM     17  C   UNL     1      -4.760  -0.268   0.021  0.00  0.00    +0.000 A 
ATOM     18  C   UNL     1      -4.527   0.682  -0.956  0.00  0.00    +0.002 A 
ATOM     19  C   UNL     1      -3.344   1.395  -0.960  0.00  0.00    +0.026 A 
ENDBRANCH   9  14
BRANCH   4  20
ATOM     20  C   UNL     1       2.977   5.093   0.426  0.00  0.00    +0.248 C 
ATOM     21  O   UNL     1       2.267   5.796   1.119  0.00  0.00    -0.270 OA
ATOM     22  N   UNL     1       4.249   5.461   0.175  0.00  0.00    -0.307 N 
ATOM     23  H   UNL     1       4.816   4.901  -0.378  0.00  0.00    +0.149 HD
BRANCH  22  24
ATOM     24  C   UNL     1       4.776   6.707   0.737  0.00  0.00    +0.139 C 
BRANCH  24  25
ATOM     25  C   UNL     1       6.210   6.885   0.309  0.00  0.00    -0.030 A 
ATOM     26  C   UNL     1       7.232   6.378   1.090  0.00  0.00    +0.006 A 
ATOM     27  C   UNL     1       8.547   6.535   0.696  0.00  0.00    +0.020 A 
ATOM     28  C   UNL     1       8.842   7.210  -0.476  0.00  0.00    +0.041 A 
ATOM     29  C   UNL     1       7.819   7.722  -1.254  0.00  0.00    +0.020 A 
ATOM     30  C   UNL     1       6.504   7.559  -0.862  0.00  0.00    +0.006 A 
ATOM     31 CL   UNL     1      10.494   7.413  -0.969  0.00  0.00    -0.084 Cl
ENDBRANCH  24  25
ENDBRANCH  22  24
ENDBRANCH   4  20
TORSDOF 4
