REMARK  Name = ZINC54821145
REMARK  6 active torsions:
REMARK  status: ('A' for Active; 'I' for Inactive)
REMARK    1  A    between atoms: C_1  and  C_2
REMARK    2  A    between atoms: C_2  and  C_3
REMARK    3  A    between atoms: C_3  and  C_4
REMARK    4  A    between atoms: C_10  and  C_13
REMARK    5  A    between atoms: N_15  and  N_16
REMARK    6  A    between atoms: C_17  and  C_19
REMARK                            x       y       z     vdW  Elec       q    Type
REMARK                         _______ _______ _______ _____ _____    ______ ____
ROOT
ATOM      1  C   UNL     1       0.987  -6.159   3.647  0.00  0.00    +0.234 C 
ATOM      2  O   UNL     1       1.488  -6.766   2.724  0.00  0.00    -0.274 OA
ATOM      3  N   UNL     1       0.562  -6.824   4.739  0.00  0.00    -0.234 N 
ATOM      4  H   UNL     1       0.161  -6.339   5.477  0.00  0.00    +0.173 HD
ENDROOT
BRANCH   1  11
ATOM      5  C   UNL     1       0.762  -2.018   1.233  0.00  0.00    +0.216 C 
ATOM      6  O   UNL     1       0.237  -2.626   0.325  0.00  0.00    -0.276 OA
ATOM      7  N   UNL     1       1.365  -2.689   2.235  0.00  0.00    -0.301 N 
ATOM      8  C   UNL     1       2.001  -1.966   3.345  0.00  0.00    +0.108 C 
ATOM      9  C   UNL     1       1.434  -2.494   4.666  0.00  0.00    +0.020 C 
ATOM     10  C   UNL     1       1.611  -4.013   4.722  0.00  0.00    +0.016 C 
ATOM     11  C   UNL     1       0.838  -4.661   3.571  0.00  0.00    +0.094 C 
ATOM     12  C   UNL     1       1.393  -4.158   2.241  0.00  0.00    +0.120 C 
BRANCH   5  13
ATOM     13  C   UNL     1       0.742  -0.511   1.242  0.00  0.00    +0.096 C 
BRANCH  13  15
ATOM     14  C   UNL     1      -0.019   1.526   0.010  0.00  0.00    +0.004 C 
ATOM     15  C   UNL     1       0.002  -0.004   0.002  0.00  0.00    +0.006 C 
ENDBRANCH  13  15
ENDBRANCH   5  13
ENDBRANCH   1  11
BRANCH   3  16
ATOM     16  N   UNL     1       0.700  -8.217   4.810  0.00  0.00    -0.230 N 
ATOM     17  C   UNL     1       0.275  -8.882   5.902  0.00  0.00    +0.267 C 
ATOM     18  O   UNL     1      -0.228  -8.273   6.828  0.00  0.00    -0.268 OA
ATOM     19  H   UNL     1       1.101  -8.702   4.072  0.00  0.00    +0.173 HD
BRANCH  17  20
ATOM     20  C   UNL     1       0.420 -10.339   5.976  0.00  0.00    +0.076 A 
ATOM     21  C   UNL     1       0.050 -11.201   6.989  0.00  0.00    +0.024 A 
ATOM     22  C   UNL     1       0.309 -12.555   6.792  0.00  0.00    -0.036 A 
ATOM     23  C   UNL     1       0.904 -12.894   5.619  0.00  0.00    -0.006 A 
ATOM     24  S   UNL     1       1.111 -11.462   4.777  0.00  0.00    -0.088 S 
ATOM     25  C   UNL     1       1.301 -14.263   5.151  0.00  0.00    +0.043 C 
ATOM     26  C   UNL     1       0.371 -15.307   5.780  0.00  0.00    +0.005 C 
ATOM     27  C   UNL     1       0.966 -15.748   7.114  0.00  0.00    +0.001 C 
ATOM     28  C   UNL     1       1.085 -14.562   8.067  0.00  0.00    +0.005 C 
ATOM     29  C   UNL     1      -0.067 -13.586   7.851  0.00  0.00    +0.036 C 
ENDBRANCH  17  20
ENDBRANCH   3  16
TORSDOF 5
