REMARK  Name = ZINC62616246
REMARK  2 active torsions:
REMARK  status: ('A' for Active; 'I' for Inactive)
REMARK    1  A    between atoms: N_8  and  S_10
REMARK    2  A    between atoms: S_10  and  C_13
REMARK                            x       y       z     vdW  Elec       q    Type
REMARK                         _______ _______ _______ _____ _____    ______ ____
ROOT
ATOM      1  S   UNL     1       5.238  -1.134   1.243  0.00  0.00    +0.061 S 
ATOM      2  O   UNL     1       5.369  -0.036   2.135  0.00  0.00    -0.153 OA
ATOM      3  O   UNL     1       5.004  -2.461   1.697  0.00  0.00    -0.153 OA
ENDROOT
BRANCH   1  11
ATOM      4  C   UNL     1      -0.016   1.345   0.009  0.00  0.00    +0.019 A 
ATOM      5  C   UNL     1       1.323   1.787  -0.001  0.00  0.00    +0.024 A 
ATOM      6  C   UNL     1       2.103   0.695  -0.016  0.00  0.00    +0.035 A 
ATOM      7  N   UNL     1       1.300  -0.413  -0.009  0.00  0.00    -0.348 N 
ATOM      8  C   UNL     1       0.002  -0.004   0.002  0.00  0.00    +0.086 A 
ATOM      9  C   UNL     1       1.788  -1.796  -0.007  0.00  0.00    +0.138 C 
ATOM     10  C   UNL     1       3.245  -1.818  -0.481  0.00  0.00    +0.131 C 
ATOM     11  N   UNL     1       3.997  -0.761   0.212  0.00  0.00    -0.169 NA
ATOM     12  C   UNL     1       3.613   0.640  -0.038  0.00  0.00    +0.162 C 
ENDBRANCH   1  11
BRANCH   1  13
ATOM     13  C   UNL     1       6.716  -1.184   0.284  0.00  0.00    +0.106 A 
ATOM     14  C   UNL     1       7.117  -2.367  -0.307  0.00  0.00    +0.030 A 
ATOM     15  C   UNL     1       8.275  -2.407  -1.059  0.00  0.00    +0.022 A 
ATOM     16  C   UNL     1       9.034  -1.261  -1.221  0.00  0.00    +0.041 A 
ATOM     17  C   UNL     1       8.632  -0.077  -0.629  0.00  0.00    +0.022 A 
ATOM     18  C   UNL     1       7.470  -0.037   0.118  0.00  0.00    +0.030 A 
ATOM     19 CL   UNL     1      10.490  -1.310  -2.165  0.00  0.00    -0.084 Cl
ENDBRANCH   1  13
TORSDOF 2
