REMARK  Name = ZINC00918429
REMARK  4 active torsions:
REMARK  status: ('A' for Active; 'I' for Inactive)
REMARK    1  A    between atoms: C_1  and  C_2
REMARK    2  A    between atoms: C_9  and  C_11
REMARK    3  A    between atoms: C_15  and  C_26
REMARK    4  A    between atoms: C_18  and  C_22
REMARK                            x       y       z     vdW  Elec       q    Type
REMARK                         _______ _______ _______ _____ _____    ______ ____
ROOT
ATOM      1  C   UNL     1       2.395  -0.145   2.962  0.00  0.00    +0.110 C 
ATOM      2  C   UNL     1       2.676  -1.452   3.188  0.00  0.00    +0.072 C 
ATOM      3  C   UNL     1       3.596  -1.507   4.323  0.00  0.00    +0.114 C 
ATOM      4  N   UNL     1       4.152  -2.535   4.899  0.00  0.00    -0.362 N 
ATOM      5  C   UNL     1       5.081  -2.312   6.014  0.00  0.00    +0.149 C 
ATOM      6  C   UNL     1       4.677  -1.070   6.810  0.00  0.00    +0.065 C 
ATOM      7  C   UNL     1       4.645   0.153   5.881  0.00  0.00    +0.202 C 
ATOM      8  N   UNL     1       3.800  -0.195   4.733  0.00  0.00    -0.226 N 
ATOM      9  N   UNL     1       3.081   0.634   3.880  0.00  0.00    -0.258 N 
ATOM     10  H   UNL     1       3.062   1.603   3.921  0.00  0.00    +0.170 HD
ATOM     11  H   UNL     1       3.955  -3.435   4.596  0.00  0.00    +0.162 HD
ENDROOT
BRANCH   1  19
ATOM     12  C   UNL     1       0.085   1.474  -0.098  0.00  0.00    +0.028 C 
ATOM     13  C   UNL     1      -0.226   0.006   0.205  0.00  0.00    +0.073 C 
ATOM     14  C   UNL     1      -1.714  -0.146   0.534  0.00  0.00    +0.022 C 
ATOM     15  C   UNL     1      -1.991  -1.587   0.970  0.00  0.00    +0.003 C 
ATOM     16  C   UNL     1      -1.183  -1.904   2.230  0.00  0.00    +0.019 C 
ATOM     17  C   UNL     1       0.311  -1.772   1.920  0.00  0.00    +0.108 C 
ATOM     18  N   UNL     1       0.565  -0.436   1.361  0.00  0.00    -0.294 N 
ATOM     19  C   UNL     1       1.502   0.368   1.901  0.00  0.00    +0.262 C 
ATOM     20  O   UNL     1       1.612   1.516   1.516  0.00  0.00    -0.269 OA
ENDBRANCH   1  19
BRANCH   5  21
ATOM     21  C   UNL     1       5.062  -3.513   6.924  0.00  0.00    +0.127 A 
ATOM     22  C   UNL     1       6.133  -4.060   7.526  0.00  0.00    +0.047 A 
ATOM     23  C   UNL     1       5.662  -5.159   8.280  0.00  0.00    +0.041 A 
ATOM     24  C   UNL     1       4.331  -5.218   8.094  0.00  0.00    +0.195 A 
ATOM     25  O   UNL     1       3.973  -4.215   7.276  0.00  0.00    -0.466 OA
ENDBRANCH   5  21
BRANCH   7  26
ATOM     26  C   UNL     1       4.051   1.354   6.621  0.00  0.00    +0.410 C 
ATOM     27  F   UNL     1       4.837   1.646   7.741  0.00  0.00    -0.169 F 
ATOM     28  F   UNL     1       4.026   2.462   5.767  0.00  0.00    -0.169 F 
ATOM     29  F   UNL     1       2.749   1.051   7.031  0.00  0.00    -0.169 F 
ENDBRANCH   7  26
TORSDOF 3
