REMARK  Name = ZINC10372086
REMARK  2 active torsions:
REMARK  status: ('A' for Active; 'I' for Inactive)
REMARK    1  A    between atoms: C_10  and  C_11
REMARK    2  A    between atoms: C_12  and  C_13
REMARK                            x       y       z     vdW  Elec       q    Type
REMARK                         _______ _______ _______ _____ _____    ______ ____
ROOT
ATOM      1  C   UNL     1       7.418   0.147  -0.067  0.00  0.00    +0.244 C 
ATOM      2  O   UNL     1       7.417   1.364  -0.060  0.00  0.00    -0.270 OA
ATOM      3  N   UNL     1       8.586  -0.525  -0.081  0.00  0.00    -0.257 N 
ATOM      4  C   UNL     1       8.615  -1.996  -0.095  0.00  0.00    +0.210 C 
ATOM      5  C   UNL     1       9.690  -2.475   0.847  0.00  0.00    +0.235 C 
ATOM      6  O   UNL     1       9.571  -3.550   1.395  0.00  0.00    -0.274 OA
ATOM      7  N   UNL     1      10.782  -1.724   1.086  0.00  0.00    -0.283 N 
ATOM      8  C   UNL     1      10.921  -0.459   0.505  0.00  0.00    +0.055 A 
ATOM      9  C   UNL     1       9.813   0.155  -0.089  0.00  0.00    +0.058 A 
ATOM     10  C   UNL     1       9.932   1.406  -0.667  0.00  0.00    +0.025 A 
ATOM     11  C   UNL     1      11.157   2.049  -0.662  0.00  0.00    +0.002 A 
ATOM     12  C   UNL     1      12.258   1.445  -0.084  0.00  0.00    +0.002 A 
ATOM     13  C   UNL     1      12.144   0.192   0.509  0.00  0.00    +0.025 A 
ATOM     14  H   UNL     1      11.480  -2.064   1.668  0.00  0.00    +0.155 HD
ENDROOT
BRANCH   1  16
ATOM     15  C   UNL     1       4.982   0.088  -0.044  0.00  0.00    +0.013 C 
ATOM     16  C   UNL     1       6.153  -0.586  -0.059  0.00  0.00    +0.068 C 
BRANCH  15  26
ATOM     17  C   UNL     1      -0.016   1.357   0.009  0.00  0.00    +0.001 A 
ATOM     18  C   UNL     1       1.168   2.091   0.002  0.00  0.00    +0.001 A 
ATOM     19  C   UNL     1       2.379   1.465  -0.013  0.00  0.00    +0.009 A 
ATOM     20  C   UNL     1       2.435   0.067  -0.021  0.00  0.00    -0.011 A 
ATOM     21  C   UNL     1       1.233  -0.682  -0.013  0.00  0.00    -0.017 A 
ATOM     22  C   UNL     1       0.002  -0.004   0.002  0.00  0.00    +0.008 A 
ATOM     23  C   UNL     1       1.294  -2.086  -0.020  0.00  0.00    +0.008 A 
ATOM     24  C   UNL     1       2.494  -2.730  -0.034  0.00  0.00    +0.001 A 
ATOM     25  C   UNL     1       3.696  -2.039  -0.042  0.00  0.00    +0.008 A 
ATOM     26  C   UNL     1       3.712  -0.647  -0.036  0.00  0.00    -0.017 A 
ENDBRANCH  15  26
ENDBRANCH   1  16
TORSDOF 2
