REMARK  Name = ZINC39959666
REMARK  7 active torsions:
REMARK  status: ('A' for Active; 'I' for Inactive)
REMARK    1  A    between atoms: C_1  and  C_2
REMARK    2  A    between atoms: C_2  and  C_3
REMARK    3  A    between atoms: C_2  and  C_4
REMARK    4  A    between atoms: C_7  and  C_10
REMARK    5  A    between atoms: N_11  and  N_12
REMARK    6  A    between atoms: C_13  and  C_15
REMARK    7  A    between atoms: N_25  and  C_26
REMARK                            x       y       z     vdW  Elec       q    Type
REMARK                         _______ _______ _______ _____ _____    ______ ____
ROOT
ATOM      1  C   UNL     1      -1.238  -4.446   5.927  0.00  0.00    +0.206 A 
ATOM      2  N   UNL     1      -1.810  -4.117   4.801  0.00  0.00    -0.224 NA
ATOM      3  C   UNL     1      -3.146  -3.976   4.700  0.00  0.00    +0.079 A 
ATOM      4  C   UNL     1      -3.753  -3.624   3.491  0.00  0.00    +0.028 A 
ATOM      5  C   UNL     1      -5.122  -3.490   3.429  0.00  0.00    +0.002 A 
ATOM      6  C   UNL     1      -5.909  -3.701   4.554  0.00  0.00    +0.001 A 
ATOM      7  C   UNL     1      -5.333  -4.049   5.758  0.00  0.00    +0.015 A 
ATOM      8  C   UNL     1      -3.951  -4.190   5.843  0.00  0.00    +0.065 A 
ATOM      9  C   UNL     1      -3.285  -4.560   7.102  0.00  0.00    +0.267 A 
ATOM     10  O   UNL     1      -3.922  -4.758   8.120  0.00  0.00    -0.267 OA
ATOM     11  N   UNL     1      -1.937  -4.678   7.082  0.00  0.00    -0.257 N 
ENDROOT
BRANCH  11  12
ATOM     12  C   UNL     1      -1.252  -5.032   8.250  0.00  0.00    +0.052 A 
ATOM     13  C   UNL     1      -0.825  -4.048   9.133  0.00  0.00    +0.026 A 
ATOM     14  C   UNL     1      -0.150  -4.402  10.285  0.00  0.00    +0.002 A 
ATOM     15  C   UNL     1       0.101  -5.734  10.559  0.00  0.00    +0.000 A 
ATOM     16  C   UNL     1      -0.322  -6.716   9.682  0.00  0.00    +0.002 A 
ATOM     17  C   UNL     1      -1.004  -6.370   8.532  0.00  0.00    +0.026 A 
ENDBRANCH  11  12
BRANCH   1  19
ATOM     18  N   UNL     1       0.965  -4.256   4.868  0.00  0.00    -0.200 N 
ATOM     19  C   UNL     1       0.237  -4.580   5.955  0.00  0.00    +0.299 C 
ATOM     20  O   UNL     1       0.792  -4.984   6.959  0.00  0.00    -0.265 OA
ATOM     21  H   UNL     1       0.523  -3.934   4.067  0.00  0.00    +0.178 HD
BRANCH  18  23
ATOM     22  C   UNL     1       3.071  -3.953   3.898  0.00  0.00    +0.138 C 
ATOM     23  N   UNL     1       2.360  -4.383   4.895  0.00  0.00    -0.187 NA
BRANCH  22  27
ATOM     24  C   UNL     1       1.652  -0.742   1.511  0.00  0.00    -0.045 A 
ATOM     25  C   UNL     1       2.772  -1.452   1.116  0.00  0.00    +0.004 A 
ATOM     26  C   UNL     1       3.239  -2.496   1.886  0.00  0.00    +0.010 A 
ATOM     27  C   UNL     1       2.578  -2.837   3.069  0.00  0.00    -0.005 A 
ATOM     28  C   UNL     1       1.447  -2.116   3.462  0.00  0.00    +0.010 A 
ATOM     29  C   UNL     1       0.995  -1.071   2.684  0.00  0.00    +0.004 A 
BRANCH  24  31
ATOM     30  C   UNL     1       2.241   1.460   0.536  0.00  0.00    +0.012 C 
ATOM     31  C   UNL     1       1.148   0.397   0.664  0.00  0.00    +0.013 C 
ATOM     32  C   UNL     1       0.780  -0.125  -0.726  0.00  0.00    +0.012 C 
ENDBRANCH  24  31
ENDBRANCH  22  27
ENDBRANCH  18  23
ENDBRANCH   1  19
TORSDOF 5
