REMARK  Name = ZINC20078578
REMARK  4 active torsions:
REMARK  status: ('A' for Active; 'I' for Inactive)
REMARK    1  A    between atoms: C_1  and  C_2
REMARK    2  A    between atoms: C_2  and  C_4
REMARK    3  A    between atoms: C_2  and  N_12
REMARK    4  A    between atoms: C_13  and  N_21
REMARK                            x       y       z     vdW  Elec       q    Type
REMARK                         _______ _______ _______ _____ _____    ______ ____
ROOT
ATOM      1  N   UNL     1       1.134   4.952   0.703  0.00  0.00    -0.275 N 
ATOM      2  C   UNL     1       0.897   4.909   2.056  0.00  0.00    +0.106 A 
ATOM      3  C   UNL     1       0.316   5.983   2.671  0.00  0.00    +0.111 A 
ATOM      4  C   UNL     1      -0.034   7.103   1.900  0.00  0.00    +0.256 A 
ATOM      5  O   UNL     1      -0.557   8.070   2.426  0.00  0.00    -0.268 OA
ATOM      6  N   UNL     1       0.212   7.101   0.575  0.00  0.00    -0.275 N 
ATOM      7  H   UNL     1      -0.059   7.975  -0.035  0.00  0.00    +0.173 HD
ATOM      8  C   UNL     1       0.789   6.038  -0.013  0.00  0.00    +0.331 A 
ATOM      9  O   UNL     1       1.002   6.058  -1.210  0.00  0.00    -0.246 OA
ENDROOT
BRANCH   2  10
ATOM     10  N   UNL     1       1.245   3.799   2.783  0.00  0.00    -0.344 N 
ATOM     11  H   UNL     1       1.053   3.769   3.866  0.00  0.00    +0.144 HD
ATOM     12  H   UNL     1       1.716   2.940   2.284  0.00  0.00    +0.144 HD
ENDBRANCH   2  10
BRANCH   1  14
ATOM     13  C   UNL     1       2.832   4.308  -0.934  0.00  0.00    +0.036 C 
ATOM     14  C   UNL     1       1.760   3.808   0.036  0.00  0.00    +0.122 C 
BRANCH  14  15
ATOM     15  C   UNL     1       0.714   3.036  -0.725  0.00  0.00    -0.006 A 
ATOM     16  C   UNL     1      -0.493   3.632  -1.039  0.00  0.00    +0.008 A 
ATOM     17  C   UNL     1      -1.453   2.924  -1.737  0.00  0.00    +0.020 A 
ATOM     18  C   UNL     1      -1.207   1.618  -2.122  0.00  0.00    +0.042 A 
ATOM     19  C   UNL     1       0.001   1.021  -1.808  0.00  0.00    +0.040 A 
ATOM     20  C   UNL     1       0.962   1.730  -1.110  0.00  0.00    +0.047 A 
ATOM     21 CL   UNL     1       2.477   0.981  -0.715  0.00  0.00    -0.083 Cl
ATOM     22 CL   UNL     1      -2.413   0.729  -2.999  0.00  0.00    -0.083 Cl
ENDBRANCH  14  15
ENDBRANCH   1  14
TORSDOF 3
