REMARK  Name = ZINC39927021
REMARK  5 active torsions:
REMARK  status: ('A' for Active; 'I' for Inactive)
REMARK    1  A    between atoms: C_4  and  C_7
REMARK    2  A    between atoms: C_11  and  C_13
REMARK    3  A    between atoms: C_14  and  C_15
REMARK    4  A    between atoms: C_14  and  C_17
REMARK    5  A    between atoms: N_19  and  C_20
REMARK                            x       y       z     vdW  Elec       q    Type
REMARK                         _______ _______ _______ _____ _____    ______ ____
ROOT
ATOM      1  C   UNL     1       3.383  -2.868  -1.286  0.00  0.00    +0.012 C 
ATOM      2  C   UNL     1       2.481  -3.862  -1.172  0.00  0.00    +0.111 C 
ENDROOT
BRANCH   1   7
ATOM      3  C   UNL     1       4.278  -0.681  -0.514  0.00  0.00    +0.083 C 
ATOM      4  N   UNL     1       5.496  -0.622  -0.052  0.00  0.00    -0.153 NA
ATOM      5  N   UNL     1       5.853  -1.775   0.638  0.00  0.00    -0.161 NA
ATOM      6  C   UNL     1       4.900  -2.649   0.669  0.00  0.00    +0.121 C 
ATOM      7  C   UNL     1       3.739  -2.031  -0.084  0.00  0.00    +0.107 C 
BRANCH   3  11
ATOM      8  C   UNL     1       2.238   2.295  -2.744  0.00  0.00    +0.000 A 
ATOM      9  C   UNL     1       3.541   2.516  -2.331  0.00  0.00    +0.001 A 
ATOM     10  C   UNL     1       4.210   1.553  -1.606  0.00  0.00    +0.010 A 
ATOM     11  C   UNL     1       3.570   0.352  -1.287  0.00  0.00    -0.001 A 
ATOM     12  C   UNL     1       2.254   0.136  -1.708  0.00  0.00    +0.010 A 
ATOM     13  C   UNL     1       1.598   1.109  -2.433  0.00  0.00    +0.001 A 
ENDBRANCH   3  11
ENDBRANCH   1   7
BRANCH   2  14
ATOM     14  C   UNL     1       1.974  -4.249   0.161  0.00  0.00    +0.258 C 
ATOM     15  O   UNL     1       2.333  -3.639   1.149  0.00  0.00    -0.269 OA
ATOM     16  N   UNL     1       1.113  -5.279   0.281  0.00  0.00    -0.280 N 
ATOM     17  H   UNL     1       0.746  -5.699  -0.513  0.00  0.00    +0.155 HD
BRANCH  16  18
ATOM     18  C   UNL     1       0.748  -5.741   1.550  0.00  0.00    +0.054 A 
ATOM     19  C   UNL     1       1.568  -5.494   2.643  0.00  0.00    +0.025 A 
ATOM     20  C   UNL     1       1.206  -5.952   3.894  0.00  0.00    +0.003 A 
ATOM     21  C   UNL     1       0.027  -6.656   4.061  0.00  0.00    +0.021 A 
ATOM     22  C   UNL     1      -0.794  -6.904   2.975  0.00  0.00    +0.061 A 
ATOM     23  C   UNL     1      -0.439  -6.443   1.720  0.00  0.00    +0.080 A 
ATOM     24 CL   UNL     1      -1.472  -6.748   0.358  0.00  0.00    -0.080 Cl
ATOM     25 CL   UNL     1      -2.273  -7.788   3.189  0.00  0.00    -0.082 Cl
ENDBRANCH  16  18
ENDBRANCH   2  14
BRANCH   2  26
ATOM     26  C   UNL     1       2.014  -4.543  -2.341  0.00  0.00    +0.104 C 
ATOM     27  N   UNL     1       1.643  -5.083  -3.269  0.00  0.00    -0.191 NA
ENDBRANCH   2  26
TORSDOF 5
