REMARK  Name = ZINC43741663
REMARK  8 active torsions:
REMARK  status: ('A' for Active; 'I' for Inactive)
REMARK    1  A    between atoms: C_1  and  C_2
REMARK    2  A    between atoms: C_2  and  O_3
REMARK    3  A    between atoms: O_3  and  C_4
REMARK    4  A    between atoms: N_9  and  C_12
REMARK    5  A    between atoms: C_12  and  C_13
REMARK    6  A    between atoms: C_24  and  C_31
REMARK    7  A    between atoms: C_26  and  C_30
REMARK    8  A    between atoms: C_27  and  O_29
REMARK                            x       y       z     vdW  Elec       q    Type
REMARK                         _______ _______ _______ _____ _____    ______ ____
ROOT
ATOM      1  C   UNL     1       2.041  -5.050  -6.659  0.00  0.00    +0.121 C 
ATOM      2  C   UNL     1       1.885  -5.433  -8.164  0.00  0.00    +0.074 C 
ATOM      3  C   UNL     1       0.630  -6.321  -8.062  0.00  0.00    +0.187 C 
ATOM      4  C   UNL     1       0.415  -7.218  -9.255  0.00  0.00    +0.076 C 
ATOM      5  C   UNL     1       1.705  -7.916  -9.642  0.00  0.00    -0.061 C 
ATOM      6  C   UNL     1       1.693  -9.203  -9.819  0.00  0.00    -0.027 C 
ATOM      7  C   UNL     1       2.918  -9.981 -10.211  0.00  0.00    +0.027 C 
ATOM      8  C   UNL     1       3.855  -9.054 -10.993  0.00  0.00    +0.008 C 
ATOM      9  C   UNL     1       4.178  -7.846 -10.116  0.00  0.00    -0.001 C 
ATOM     10  C   UNL     1       2.923  -7.050  -9.798  0.00  0.00    +0.018 C 
ATOM     11  C   UNL     1       3.129  -6.248  -8.522  0.00  0.00    +0.132 C 
ATOM     12  C   UNL     1       2.675  -6.046 -10.926  0.00  0.00    +0.018 C 
ATOM     13  C   UNL     1       5.171  -6.943 -10.851  0.00  0.00    +0.008 C 
ATOM     14  O   UNL     1       0.813  -7.033  -6.835  0.00  0.00    -0.460 OA
ATOM     15  C   UNL     1       1.294  -6.149  -5.925  0.00  0.00    +0.312 C 
ATOM     16  O   UNL     1       1.151  -6.222  -4.728  0.00  0.00    -0.250 OA
ENDROOT
BRANCH  11  17
ATOM     17  O   UNL     1       4.242  -5.363  -8.669  0.00  0.00    -0.391 OA
ATOM     18  H   UNL     1       4.449  -4.855  -7.872  0.00  0.00    +0.210 HD
ENDBRANCH  11  17
BRANCH   1  19
ATOM     19  C   UNL     1       1.401  -3.687  -6.382  0.00  0.00    +0.099 C 
BRANCH  19  25
ATOM     20  C   UNL     1       2.354  -0.793  -1.893  0.00  0.00    +0.403 C 
ATOM     21  O   UNL     1       1.472  -0.061  -1.490  0.00  0.00    -0.226 OA
ATOM     22  N   UNL     1       2.049  -1.857  -2.662  0.00  0.00    -0.265 N 
ATOM     23  C   UNL     1       3.101  -2.759  -3.155  0.00  0.00    +0.126 C 
ATOM     24  C   UNL     1       2.932  -2.923  -4.669  0.00  0.00    +0.103 C 
ATOM     25  N   UNL     1       1.558  -3.353  -4.960  0.00  0.00    -0.299 NA
ATOM     26  C   UNL     1       0.582  -2.335  -4.549  0.00  0.00    +0.103 C 
ATOM     27  C   UNL     1       0.654  -2.151  -3.025  0.00  0.00    +0.126 C 
BRANCH  20  28
ATOM     28  O   UNL     1       3.637  -0.540  -1.571  0.00  0.00    -0.451 OA
BRANCH  28  30
ATOM     29  C   UNL     1       5.391   0.728  -0.496  0.00  0.00    +0.048 C 
ATOM     30  C   UNL     1       3.888   0.604  -0.753  0.00  0.00    +0.230 C 
ENDBRANCH  28  30
ENDBRANCH  20  28
ENDBRANCH  19  25
ENDBRANCH   1  19
TORSDOF 5
