REMARK  Name = ZINC28577659
REMARK  8 active torsions:
REMARK  status: ('A' for Active; 'I' for Inactive)
REMARK    1  A    between atoms: C_1  and  C_2
REMARK    2  A    between atoms: C_5  and  C_18
REMARK    3  A    between atoms: C_7  and  S_8
REMARK    4  A    between atoms: S_8  and  N_11
REMARK    5  A    between atoms: C_14  and  C_17
REMARK    6  A    between atoms: C_18  and  C_19
REMARK    7  A    between atoms: C_18  and  C_20
REMARK    8  A    between atoms: C_18  and  C_21
REMARK                            x       y       z     vdW  Elec       q    Type
REMARK                         _______ _______ _______ _____ _____    ______ ____
ROOT
ATOM      1  C   UNL     1       0.399   1.284   0.033  0.00  0.00    +0.046 C 
ATOM      2  C   UNL     1       0.238  -0.211  -0.058  0.00  0.00    -0.024 A 
ATOM      3  C   UNL     1       0.394  -0.994   1.071  0.00  0.00    +0.005 A 
ATOM      4  C   UNL     1       0.245  -2.365   0.987  0.00  0.00    +0.004 A 
ATOM      5  C   UNL     1      -0.059  -2.955  -0.226  0.00  0.00    -0.040 A 
ATOM      6  C   UNL     1      -0.214  -2.173  -1.355  0.00  0.00    +0.033 A 
ATOM      7  C   UNL     1      -0.071  -0.800  -1.270  0.00  0.00    +0.116 A 
ENDROOT
BRANCH   5   8
ATOM      8  C   UNL     1      -0.220  -4.450  -0.317  0.00  0.00    -0.013 C 
ATOM      9  C   UNL     1       0.002  -5.072   1.063  0.00  0.00    +0.015 C 
ATOM     10  C   UNL     1      -1.632  -4.782  -0.804  0.00  0.00    +0.015 C 
ATOM     11  C   UNL     1       0.805  -5.015  -1.302  0.00  0.00    +0.015 C 
ENDBRANCH   5   8
BRANCH   7  12
ATOM     12  S   UNL     1      -0.277   0.197  -2.708  0.00  0.00    +0.101 S 
ATOM     13  O   UNL     1      -0.505  -0.694  -3.791  0.00  0.00    -0.146 OA
ATOM     14  O   UNL     1      -1.194   1.225  -2.361  0.00  0.00    -0.146 OA
BRANCH  12  15
ATOM     15  N   UNL     1       1.175   0.938  -3.002  0.00  0.00    -0.103 NA
ATOM     16  C   UNL     1       2.281   0.179  -3.350  0.00  0.00    +0.192 A 
ATOM     17  N   UNL     1       3.483   0.585  -3.713  0.00  0.00    -0.336 N 
ATOM     18  C   UNL     1       4.435  -0.280  -4.011  0.00  0.00    +0.022 A 
ATOM     19  C   UNL     1       4.148  -1.603  -3.948  0.00  0.00    +0.069 A 
ATOM     20  S   UNL     1       2.439  -1.548  -3.429  0.00  0.00    -0.057 S 
ATOM     21  C   UNL     1       5.806   0.193  -4.418  0.00  0.00    +0.064 C 
ATOM     22  H   UNL     1       3.707   1.660  -3.771  0.00  0.00    +0.168 HD
ENDBRANCH  12  15
ENDBRANCH   7  12
TORSDOF 3
