REMARK  Name = ZINC46425755
REMARK  7 active torsions:
REMARK  status: ('A' for Active; 'I' for Inactive)
REMARK    1  A    between atoms: C_1  and  C_2
REMARK    2  A    between atoms: C_5  and  C_29
REMARK    3  A    between atoms: N_8  and  C_10
REMARK    4  A    between atoms: C_10  and  C_11
REMARK    5  A    between atoms: C_11  and  C_12
REMARK    6  A    between atoms: C_12  and  N_13
REMARK    7  A    between atoms: N_19  and  C_22
REMARK                            x       y       z     vdW  Elec       q    Type
REMARK                         _______ _______ _______ _____ _____    ______ ____
ROOT
ATOM      1  N   UNL     1       2.231   0.411   6.113  0.00  0.00    -0.299 N 
ATOM      2  C   UNL     1       2.679   0.148   7.356  0.00  0.00    +0.302 C 
ATOM      3  O   UNL     1       3.557  -0.676   7.525  0.00  0.00    -0.253 OA
ATOM      4  N   UNL     1       2.154   0.799   8.413  0.00  0.00    -0.283 N 
ATOM      5  C   UNL     1       1.009   1.705   8.241  0.00  0.00    +0.128 C 
ATOM      6  C   UNL     1      -0.115   1.259   9.184  0.00  0.00    +0.124 C 
ATOM      7  N   UNL     1       0.446   1.075  10.529  0.00  0.00    -0.327 N 
ATOM      8  C   UNL     1       1.590   0.169  10.702  0.00  0.00    +0.124 C 
ATOM      9  C   UNL     1       2.711   0.611   9.760  0.00  0.00    +0.128 C 
ATOM     10  H   UNL     1       1.482   1.014   5.984  0.00  0.00    +0.150 HD
ENDROOT
BRANCH   7  11
ATOM     11  C   UNL     1      -0.099   1.750  11.626  0.00  0.00    +0.030 A 
ATOM     12  C   UNL     1       0.513   1.665  12.869  0.00  0.00    +0.026 A 
ATOM     13  C   UNL     1      -0.026   2.333  13.951  0.00  0.00    +0.040 A 
ATOM     14  C   UNL     1      -1.178   3.087  13.796  0.00  0.00    +0.124 A 
ATOM     15  C   UNL     1      -1.790   3.173  12.558  0.00  0.00    +0.040 A 
ATOM     16  C   UNL     1      -1.251   2.511  11.472  0.00  0.00    +0.026 A 
ATOM     17  F   UNL     1      -1.704   3.739  14.856  0.00  0.00    -0.205 F 
ENDBRANCH   7  11
BRANCH   1  18
ATOM     18  C   UNL     1       2.875  -0.214   4.955  0.00  0.00    +0.104 C 
BRANCH  18  19
ATOM     19  C   UNL     1       2.180   0.249   3.673  0.00  0.00    +0.000 C 
BRANCH  19  20
ATOM     20  C   UNL     1       2.852  -0.404   2.464  0.00  0.00    -0.077 C 
BRANCH  20  26
ATOM     21  C   UNL     1       0.078   1.612   0.005  0.00  0.00    +0.005 C 
ATOM     22  C   UNL     1       0.076   0.082  -0.014  0.00  0.00    -0.031 C 
ATOM     23  C   UNL     1       0.798  -0.414  -1.270  0.00  0.00    +0.003 C 
ATOM     24  C   UNL     1       2.261   0.035  -1.216  0.00  0.00    -0.031 C 
ATOM     25  C   UNL     1       2.904  -0.491   0.069  0.00  0.00    -0.076 C 
ATOM     26  N   UNL     1       2.185   0.040   1.233  0.00  0.00    +0.380 N 
ATOM     27  C   UNL     1       0.799  -0.445   1.227  0.00  0.00    -0.076 C 
ATOM     28  C   UNL     1       3.011  -0.521  -2.429  0.00  0.00    +0.005 C 
ATOM     29  H   UNL     1       2.187   1.049   1.197  0.00  0.00    -0.082 HD
ENDBRANCH  20  26
ENDBRANCH  19  20
ENDBRANCH  18  19
ENDBRANCH   1  18
TORSDOF 5
