REMARK  Name = ZINC64227705
REMARK  8 active torsions:
REMARK  status: ('A' for Active; 'I' for Inactive)
REMARK    1  A    between atoms: C_1  and  O_2
REMARK    2  A    between atoms: O_2  and  C_3
REMARK    3  A    between atoms: C_7  and  C_12
REMARK    4  A    between atoms: C_12  and  C_13
REMARK    5  A    between atoms: C_13  and  N_14
REMARK    6  A    between atoms: C_15  and  C_17
REMARK    7  A    between atoms: C_18  and  C_19
REMARK    8  A    between atoms: C_23  and  N_25
REMARK                            x       y       z     vdW  Elec       q    Type
REMARK                         _______ _______ _______ _____ _____    ______ ____
ROOT
ATOM      1  N   UNL     1       5.313  -1.753  -6.427  0.00  0.00    -0.312 N 
ATOM      2  C   UNL     1       6.657  -1.657  -6.441  0.00  0.00    +0.237 C 
ATOM      3  O   UNL     1       7.296  -1.909  -5.436  0.00  0.00    -0.271 OA
ATOM      4  H   UNL     1       4.804  -1.552  -7.228  0.00  0.00    +0.149 HD
ENDROOT
BRANCH   2   5
ATOM      5  C   UNL     1       7.349  -1.249  -7.665  0.00  0.00    +0.068 C 
ATOM      6  C   UNL     1       8.694  -1.152  -7.679  0.00  0.00    +0.013 C 
BRANCH   6   7
ATOM      7  C   UNL     1       9.389  -0.742  -8.909  0.00  0.00    -0.023 A 
ATOM      8  C   UNL     1       8.659  -0.446 -10.065  0.00  0.00    +0.008 A 
ATOM      9  C   UNL     1       9.318  -0.062 -11.213  0.00  0.00    +0.003 A 
ATOM     10  C   UNL     1      10.699   0.030 -11.225  0.00  0.00    +0.033 A 
ATOM     11  C   UNL     1      11.429  -0.262 -10.086  0.00  0.00    +0.127 A 
ATOM     12  C   UNL     1      10.784  -0.641  -8.928  0.00  0.00    +0.040 A 
BRANCH  11  13
ATOM     13  N   UNL     1      12.905  -0.161 -10.110  0.00  0.00    +0.056 N 
ATOM     14  O   UNL     1      13.472   0.176 -11.124  0.00  0.00    -0.126 OA
ATOM     15  O   UNL     1      13.545  -0.416  -9.116  0.00  0.00    -0.126 OA
ENDBRANCH  11  13
ENDBRANCH   6   7
ENDBRANCH   2   5
BRANCH   1  16
ATOM     16  C   UNL     1       4.620  -2.161  -5.202  0.00  0.00    +0.109 C 
BRANCH  16  17
ATOM     17  C   UNL     1       3.112  -2.190  -5.455  0.00  0.00    +0.052 C 
BRANCH  17  22
ATOM     18  C   UNL     1       0.605  -0.606  -1.053  0.00  0.00    +0.122 A 
ATOM     19  C   UNL     1       1.171   0.200  -2.059  0.00  0.00    +0.046 A 
ATOM     20  C   UNL     1       1.785  -0.338  -3.135  0.00  0.00    +0.013 A 
ATOM     21  C   UNL     1       1.862  -1.799  -3.257  0.00  0.00    -0.001 A 
ATOM     22  C   UNL     1       2.399  -2.610  -4.195  0.00  0.00    -0.040 C 
ATOM     23  C   UNL     1       2.142  -4.025  -3.725  0.00  0.00    +0.144 C 
ATOM     24  N   UNL     1       1.419  -3.902  -2.454  0.00  0.00    -0.380 N 
ATOM     25  C   UNL     1       1.260  -2.626  -2.186  0.00  0.00    +0.046 A 
ATOM     26  C   UNL     1       0.643  -1.962  -1.097  0.00  0.00    +0.071 A 
ATOM     27  H   UNL     1       1.112  -4.639  -1.904  0.00  0.00    +0.160 HD
BRANCH  18  29
ATOM     28  C   UNL     1      -0.017   1.425   0.010  0.00  0.00    +0.277 C 
ATOM     29  O   UNL     1       0.002  -0.004   0.002  0.00  0.00    -0.495 OA
ENDBRANCH  18  29
ENDBRANCH  17  22
ENDBRANCH  16  17
ENDBRANCH   1  16
TORSDOF 7
