REMARK  Name = ZINC51037010
REMARK  2 active torsions:
REMARK  status: ('A' for Active; 'I' for Inactive)
REMARK    1  A    between atoms: C_3  and  S_8
REMARK    2  A    between atoms: S_8  and  C_9
REMARK                            x       y       z     vdW  Elec       q    Type
REMARK                         _______ _______ _______ _____ _____    ______ ____
ROOT
ATOM      1  C   UNL     1       5.115   0.883  -0.042  0.00  0.00    +0.132 A 
ATOM      2  C   UNL     1       6.481   1.172  -0.048  0.00  0.00    +0.118 A 
ATOM      3  C   UNL     1       7.394   0.105  -0.062  0.00  0.00    +0.182 A 
ATOM      4  N   UNL     1       8.627   0.647  -0.066  0.00  0.00    -0.216 NA
ATOM      5  H   UNL     1       6.902   3.234  -0.035  0.00  0.00    +0.167 HD
ATOM      6  C   UNL     1       8.537   1.948  -0.055  0.00  0.00    +0.199 A 
ATOM      7  N   UNL     1       7.238   2.324  -0.044  0.00  0.00    -0.341 N 
ATOM      8  N   UNL     1       6.920  -1.145  -0.069  0.00  0.00    -0.214 NA
ATOM      9  C   UNL     1       5.625  -1.369  -0.063  0.00  0.00    +0.224 A 
ATOM     10  N   UNL     1       4.735  -0.392  -0.045  0.00  0.00    -0.227 NA
ENDROOT
BRANCH   1  11
ATOM     11  S   UNL     1       3.920   2.178  -0.024  0.00  0.00    -0.048 S 
BRANCH  11  14
ATOM     12  C   UNL     1      -0.017   1.385   0.010  0.00  0.00    +0.019 A 
ATOM     13  C   UNL     1       1.190   2.062   0.002  0.00  0.00    +0.036 A 
ATOM     14  C   UNL     1       2.374   1.332  -0.013  0.00  0.00    +0.103 A 
ATOM     15  N   UNL     1       2.351   0.008  -0.020  0.00  0.00    -0.247 NA
ATOM     16  C   UNL     1       1.216  -0.664  -0.013  0.00  0.00    +0.127 A 
ATOM     17  C   UNL     1       0.002  -0.004   0.002  0.00  0.00    +0.036 A 
ATOM     18 BR   UNL     1      -1.617  -0.982   0.013  0.00  0.00    -0.049 Br
ENDBRANCH  11  14
ENDBRANCH   1  11
TORSDOF 2
