REMARK  Name = ZINC14647801
REMARK  11 active torsions:
REMARK  status: ('A' for Active; 'I' for Inactive)
REMARK    1  A    between atoms: C_1  and  C_2
REMARK    2  A    between atoms: C_2  and  C_3
REMARK    3  A    between atoms: C_3  and  O_4
REMARK    4  A    between atoms: O_4  and  C_5
REMARK    5  A    between atoms: C_8  and  C_12
REMARK    6  A    between atoms: N_14  and  C_15
REMARK    7  A    between atoms: C_15  and  N_17
REMARK    8  A    between atoms: N_17  and  N_18
REMARK    9  A    between atoms: C_19  and  C_28
REMARK   10  A    between atoms: C_21  and  C_27
REMARK   11  A    between atoms: C_22  and  C_25
REMARK                            x       y       z     vdW  Elec       q    Type
REMARK                         _______ _______ _______ _____ _____    ______ ____
ROOT
ATOM      1  C   UNL     1      -2.519   3.867   0.047  0.00  0.00    +0.250 C 
ATOM      2  O   UNL     1      -2.533   5.083   0.054  0.00  0.00    -0.270 OA
ATOM      3  N   UNL     1      -3.678   3.180   0.054  0.00  0.00    -0.263 N 
ATOM      4  H   UNL     1      -3.667   2.210   0.049  0.00  0.00    +0.157 HD
ENDROOT
BRANCH   1   8
ATOM      5  C   UNL     1       1.182   1.786   0.000  0.00  0.00    +0.134 A 
ATOM      6  C   UNL     1      -0.013   1.076   0.008  0.00  0.00    +0.047 A 
ATOM      7  C   UNL     1      -1.215   1.747   0.017  0.00  0.00    +0.017 A 
ATOM      8  C   UNL     1      -1.233   3.145   0.030  0.00  0.00    +0.038 A 
ATOM      9  C   UNL     1      -0.030   3.856   0.023  0.00  0.00    +0.032 A 
ATOM     10  C   UNL     1       1.169   3.177   0.007  0.00  0.00    +0.060 A 
ATOM     11 BR   UNL     1       2.798   4.137  -0.003  0.00  0.00    -0.046 Br
BRANCH   5  12
ATOM     12  O   UNL     1       2.365   1.121  -0.015  0.00  0.00    -0.491 OA
BRANCH  12  13
ATOM     13  C   UNL     1       2.306  -0.307  -0.022  0.00  0.00    +0.229 C 
BRANCH  13  15
ATOM     14  C   UNL     1       3.663  -2.405  -0.046  0.00  0.00    +0.007 C 
ATOM     15  C   UNL     1       3.726  -0.876  -0.038  0.00  0.00    +0.038 C 
ENDBRANCH  13  15
ENDBRANCH  12  13
ENDBRANCH   5  12
ENDBRANCH   1   8
BRANCH   3  16
ATOM     16  C   UNL     1      -4.853   3.840   0.070  0.00  0.00    +0.155 C 
ATOM     17  S   UNL     1      -4.873   5.552   0.080  0.00  0.00    -0.017 S 
BRANCH  16  18
ATOM     18  N   UNL     1      -6.013   3.153   0.077  0.00  0.00    -0.231 N 
ATOM     19  H   UNL     1      -6.858   3.628   0.088  0.00  0.00    +0.175 HD
BRANCH  18  20
ATOM     20  N   UNL     1      -5.996   1.752   0.069  0.00  0.00    -0.228 N 
ATOM     21  C   UNL     1      -6.310   1.088  -1.070  0.00  0.00    +0.040 A 
ATOM     22  C   UNL     1      -6.301  -0.268  -1.119  0.00  0.00    +0.027 A 
ATOM     23  C   UNL     1      -5.975  -1.008   0.018  0.00  0.00    -0.026 A 
ATOM     24  C   UNL     1      -5.656  -0.333   1.194  0.00  0.00    +0.121 A 
ATOM     25  C   UNL     1      -5.674   1.086   1.194  0.00  0.00    +0.286 A 
ATOM     26  O   UNL     1      -5.399   1.701   2.210  0.00  0.00    -0.265 OA
ATOM     27  C   UNL     1      -5.968  -2.515  -0.025  0.00  0.00    +0.045 C 
ATOM     28  C   UNL     1      -6.671   1.870  -2.307  0.00  0.00    +0.065 C 
BRANCH  24  29
ATOM     29  C   UNL     1      -5.316  -1.058   2.381  0.00  0.00    +0.105 C 
ATOM     30  N   UNL     1      -5.047  -1.633   3.323  0.00  0.00    -0.191 NA
ENDBRANCH  24  29
ENDBRANCH  18  20
ENDBRANCH  16  18
ENDBRANCH   3  16
TORSDOF 8
