REMARK  Name = ZINC20907993
REMARK  8 active torsions:
REMARK  status: ('A' for Active; 'I' for Inactive)
REMARK    1  A    between atoms: C_1  and  N_2
REMARK    2  A    between atoms: C_6  and  C_7
REMARK    3  A    between atoms: C_7  and  N_8
REMARK    4  A    between atoms: N_8  and  C_9
REMARK    5  A    between atoms: N_8  and  C_10
REMARK    6  A    between atoms: N_21  and  C_24
REMARK    7  A    between atoms: C_24  and  C_25
REMARK    8  A    between atoms: C_25  and  C_26
REMARK                            x       y       z     vdW  Elec       q    Type
REMARK                         _______ _______ _______ _____ _____    ______ ____
ROOT
ATOM      1  C   UNL     1      11.849  -0.233  -1.187  0.00  0.00    +0.062 C 
ATOM      2  C   UNL     1      10.878   0.618  -2.010  0.00  0.00    +0.024 C 
ATOM      3  C   UNL     1       9.445   0.378  -1.534  0.00  0.00    +0.038 C 
ATOM      4  C   UNL     1       9.170  -1.124  -1.539  0.00  0.00    -0.023 A 
ATOM      5  C   UNL     1      10.188  -2.011  -1.554  0.00  0.00    -0.003 A 
ATOM      6  S   UNL     1       9.409  -3.603  -1.555  0.00  0.00    -0.073 S 
ATOM      7  C   UNL     1       7.716  -3.071  -1.535  0.00  0.00    +0.116 A 
ATOM      8  C   UNL     1       7.814  -1.671  -1.528  0.00  0.00    +0.076 A 
ATOM      9  C   UNL     1       6.569  -0.961  -1.517  0.00  0.00    +0.262 A 
ATOM     10  O   UNL     1       6.550   0.258  -1.515  0.00  0.00    -0.267 OA
ATOM     11  N   UNL     1       5.420  -1.663  -1.504  0.00  0.00    -0.298 N 
ATOM     12  C   UNL     1       5.423  -3.021  -1.511  0.00  0.00    +0.203 A 
ATOM     13  N   UNL     1       6.542  -3.696  -1.526  0.00  0.00    -0.230 NA
ATOM     14  C   UNL     1      11.655  -1.708  -1.567  0.00  0.00    +0.061 C 
ENDROOT
BRANCH   1  15
ATOM     15  N   UNL     1      13.230   0.173  -1.479  0.00  0.00    -0.295 NA
ATOM     16  C   UNL     1      13.420   1.609  -1.232  0.00  0.00    +0.105 C 
BRANCH  15  17
ATOM     17  C   UNL     1      14.189  -0.625  -0.704  0.00  0.00    +0.156 C 
BRANCH  17  23
ATOM     18  C   UNL     1      16.124   1.566   0.323  0.00  0.00    +0.150 C 
ATOM     19  N   UNL     1      16.415   0.604  -0.742  0.00  0.00    -0.338 N 
ATOM     20  C   UNL     1      17.579   0.510  -1.457  0.00  0.00    +0.104 A 
ATOM     21  C   UNL     1      17.421  -0.503  -2.329  0.00  0.00    +0.101 A 
ATOM     22  N   UNL     1      16.195  -1.018  -2.149  0.00  0.00    -0.349 N 
ATOM     23  C   UNL     1      15.585  -0.357  -1.203  0.00  0.00    +0.101 A 
ATOM     24  H   UNL     1      15.860  -1.868  -2.761  0.00  0.00    +0.166 HD
ENDBRANCH  17  23
ENDBRANCH  15  17
ENDBRANCH   1  15
BRANCH  11  25
ATOM     25  C   UNL     1       4.142  -0.948  -1.487  0.00  0.00    +0.131 C 
BRANCH  25  26
ATOM     26  C   UNL     1       3.711  -0.707  -0.039  0.00  0.00    +0.057 C 
BRANCH  26  27
ATOM     27  C   UNL     1       2.396   0.029  -0.022  0.00  0.00    -0.046 A 
ATOM     28  C   UNL     1       1.208  -0.679  -0.014  0.00  0.00    +0.004 A 
ATOM     29  C   UNL     1       0.002  -0.004   0.002  0.00  0.00    +0.000 A 
ATOM     30  C   UNL     1      -0.017   1.378   0.010  0.00  0.00    +0.000 A 
ATOM     31  C   UNL     1       1.171   2.086   0.002  0.00  0.00    +0.000 A 
ATOM     32  C   UNL     1       2.377   1.411  -0.014  0.00  0.00    +0.004 A 
ENDBRANCH  26  27
ENDBRANCH  25  26
ENDBRANCH  11  25
TORSDOF 6
