REMARK  Name = ZINC00034469
REMARK  4 active torsions:
REMARK  status: ('A' for Active; 'I' for Inactive)
REMARK    1  A    between atoms: C_1  and  S_2
REMARK    2  A    between atoms: S_2  and  N_5
REMARK    3  A    between atoms: C_12  and  S_14
REMARK    4  A    between atoms: S_14  and  N_17
REMARK                            x       y       z     vdW  Elec       q    Type
REMARK                         _______ _______ _______ _____ _____    ______ ____
ROOT
ATOM      1  N   UNL     1       0.795  -0.411  -1.394  0.00  0.00    -0.207 N 
ATOM      2  C   UNL     1       0.152  -0.623  -2.693  0.00  0.00    +0.136 C 
ATOM      3  C   UNL     1       1.296  -0.976  -3.657  0.00  0.00    +0.058 C 
ATOM      4  C   UNL     1       2.541  -0.936  -2.799  0.00  0.00    -0.021 A 
ATOM      5  C   UNL     1       2.174  -0.598  -1.505  0.00  0.00    +0.054 A 
ATOM      6  C   UNL     1       3.163  -0.493  -0.525  0.00  0.00    +0.027 A 
ATOM      7  C   UNL     1       4.485  -0.719  -0.845  0.00  0.00    +0.030 A 
ATOM      8  C   UNL     1       4.841  -1.052  -2.139  0.00  0.00    +0.106 A 
ATOM      9  C   UNL     1       3.866  -1.167  -3.113  0.00  0.00    +0.034 A 
ENDROOT
BRANCH   1  11
ATOM     10  C   UNL     1      -0.022   1.810   0.012  0.00  0.00    +0.218 C 
ATOM     11  S   UNL     1       0.002  -0.004   0.002  0.00  0.00    +0.043 S 
ATOM     12  O   UNL     1       0.835  -0.488   1.046  0.00  0.00    -0.155 OA
ATOM     13  O   UNL     1      -1.315  -0.510  -0.168  0.00  0.00    -0.155 OA
ENDBRANCH   1  11
BRANCH   8  14
ATOM     14  S   UNL     1       6.531  -1.340  -2.543  0.00  0.00    +0.061 S 
ATOM     15  O   UNL     1       6.662  -1.102  -3.938  0.00  0.00    -0.153 OA
ATOM     16  O   UNL     1       7.305  -0.644  -1.575  0.00  0.00    -0.153 OA
BRANCH  14  17
ATOM     17  N   UNL     1       6.823  -2.954  -2.310  0.00  0.00    -0.177 NA
ATOM     18  C   UNL     1       7.275  -3.451  -1.003  0.00  0.00    +0.109 C 
ATOM     19  C   UNL     1       6.335  -4.574  -0.551  0.00  0.00    +0.017 C 
ATOM     20  C   UNL     1       6.264  -5.645  -1.641  0.00  0.00    +0.003 C 
ATOM     21  C   UNL     1       5.701  -5.032  -2.926  0.00  0.00    +0.017 C 
ATOM     22  C   UNL     1       6.628  -3.915  -3.403  0.00  0.00    +0.109 C 
ENDBRANCH  14  17
ENDBRANCH   8  14
TORSDOF 3
