REMARK  Name = ZINC35375534
REMARK  7 active torsions:
REMARK  status: ('A' for Active; 'I' for Inactive)
REMARK    1  A    between atoms: C_1  and  C_2
REMARK    2  A    between atoms: C_2  and  C_3
REMARK    3  A    between atoms: C_3  and  C_5
REMARK    4  A    between atoms: C_3  and  N_6
REMARK    5  A    between atoms: C_11  and  C_29
REMARK    6  A    between atoms: C_29  and  C_30
REMARK    7  A    between atoms: C_30  and  C_31
REMARK                            x       y       z     vdW  Elec       q    Type
REMARK                         _______ _______ _______ _____ _____    ______ ____
ROOT
ATOM      1  N   UNL     1       1.989  -0.050  -1.089  0.00  0.00    -0.239 N 
ATOM      2  C   UNL     1       2.851  -0.502  -0.172  0.00  0.00    +0.227 C 
ATOM      3  O   UNL     1       2.614  -1.362   0.649  0.00  0.00    -0.275 OA
ATOM      4  C   UNL     1       4.169   0.225  -0.319  0.00  0.00    +0.107 C 
ATOM      5  C   UNL     1       4.387   1.132   0.911  0.00  0.00    +0.068 C 
ATOM      6  N   UNL     1       4.832   2.435   0.348  0.00  0.00    -0.295 NA
ATOM      7  C   UNL     1       4.014   2.601  -0.868  0.00  0.00    +0.136 C 
ATOM      8  C   UNL     1       3.912   1.194  -1.507  0.00  0.00    +0.122 C 
ATOM      9  C   UNL     1       2.480   0.900  -1.893  0.00  0.00    +0.228 C 
ATOM     10  O   UNL     1       1.871   1.443  -2.789  0.00  0.00    -0.275 OA
ATOM     11  C   UNL     1       2.662   3.171  -0.546  0.00  0.00    +0.006 A 
ATOM     12  C   UNL     1       1.621   2.750   0.251  0.00  0.00    +0.046 A 
ATOM     13  C   UNL     1       0.470   3.515   0.350  0.00  0.00    +0.124 A 
ATOM     14  C   UNL     1       0.371   4.703  -0.357  0.00  0.00    +0.040 A 
ATOM     15  C   UNL     1       1.411   5.125  -1.157  0.00  0.00    +0.026 A 
ATOM     16  C   UNL     1       2.571   4.361  -1.261  0.00  0.00    +0.039 A 
ATOM     17  N   UNL     1       3.742   4.574  -1.995  0.00  0.00    -0.283 N 
ATOM     18  C   UNL     1       4.639   3.585  -1.819  0.00  0.00    +0.243 C 
ATOM     19  O   UNL     1       5.737   3.504  -2.327  0.00  0.00    -0.273 OA
ATOM     20  F   UNL     1      -0.552   3.104   1.132  0.00  0.00    -0.205 F 
ATOM     21  H   UNL     1       4.665   3.186   1.001  0.00  0.00    +0.123 HD
ATOM     22  H   UNL     1       3.891   5.345  -2.565  0.00  0.00    +0.155 HD
ENDROOT
BRANCH   1  23
ATOM     23  C   UNL     1       0.619  -0.557  -1.207  0.00  0.00    +0.081 C 
ATOM     24  C   UNL     1      -0.369   0.595  -1.021  0.00  0.00    +0.028 C 
BRANCH  23  26
ATOM     25  C   UNL     1       1.316  -2.415  -2.726  0.00  0.00    +0.006 C 
ATOM     26  C   UNL     1       0.423  -1.179  -2.591  0.00  0.00    +0.019 C 
ENDBRANCH  23  26
ENDBRANCH   1  23
BRANCH   5  27
ATOM     27  C   UNL     1       5.468   0.545   1.820  0.00  0.00    +0.028 C 
BRANCH  27  28
ATOM     28  C   UNL     1       5.581   1.390   3.090  0.00  0.00    +0.097 C 
BRANCH  28  29
ATOM     29  C   UNL     1       6.646   0.812   3.986  0.00  0.00    +0.211 C 
ATOM     30  O   UNL     1       7.255  -0.179   3.642  0.00  0.00    -0.276 OA
ATOM     31  N   UNL     1       6.921   1.396   5.169  0.00  0.00    -0.329 N 
ATOM     32  H   UNL     1       6.434   2.188   5.444  0.00  0.00    +0.145 HD
ATOM     33  H   UNL     1       7.607   1.024   5.745  0.00  0.00    +0.145 HD
ENDBRANCH  28  29
ENDBRANCH  27  28
ENDBRANCH   5  27
TORSDOF 5
