REMARK  Name = ZINC35785804
REMARK  4 active torsions:
REMARK  status: ('A' for Active; 'I' for Inactive)
REMARK    1  A    between atoms: C_4  and  C_7
REMARK    2  A    between atoms: C_10  and  C_13
REMARK    3  A    between atoms: C_20  and  C_22
REMARK    4  A    between atoms: C_22  and  N_23
REMARK                            x       y       z     vdW  Elec       q    Type
REMARK                         _______ _______ _______ _____ _____    ______ ____
ROOT
ATOM      1  C   UNL     1       3.693  -0.682  -0.038  0.00  0.00    +0.069 C 
ATOM      2  N   UNL     1       4.854  -0.124  -0.042  0.00  0.00    -0.181 NA
ATOM      3  N   UNL     1       5.918  -1.023  -0.059  0.00  0.00    -0.187 N 
ATOM      4  C   UNL     1       5.383  -2.393  -0.068  0.00  0.00    +0.139 C 
ATOM      5  C   UNL     1       3.856  -2.185  -0.048  0.00  0.00    +0.087 C 
ATOM      6  C   UNL     1       7.224  -0.691  -0.066  0.00  0.00    +0.219 C 
ATOM      7  O   UNL     1       8.071  -1.560  -0.081  0.00  0.00    -0.276 OA
ENDROOT
BRANCH   4   8
ATOM      8  C   UNL     1       5.811  -3.121  -1.317  0.00  0.00    +0.010 A 
ATOM      9  C   UNL     1       6.262  -2.409  -2.412  0.00  0.00    +0.008 A 
ATOM     10  C   UNL     1       6.655  -3.076  -3.557  0.00  0.00    +0.000 A 
ATOM     11  C   UNL     1       6.597  -4.457  -3.608  0.00  0.00    +0.003 A 
ATOM     12  C   UNL     1       6.147  -5.171  -2.514  0.00  0.00    +0.039 A 
ATOM     13  C   UNL     1       5.758  -4.504  -1.365  0.00  0.00    +0.128 A 
ATOM     14  F   UNL     1       5.322  -5.201  -0.293  0.00  0.00    -0.205 F 
ENDBRANCH   4   8
BRANCH   1  18
ATOM     15  C   UNL     1      -0.017   1.379   0.010  0.00  0.00    +0.000 A 
ATOM     16  C   UNL     1       1.168   2.094   0.002  0.00  0.00    +0.001 A 
ATOM     17  C   UNL     1       2.377   1.431  -0.013  0.00  0.00    +0.010 A 
ATOM     18  C   UNL     1       2.404   0.034  -0.021  0.00  0.00    -0.002 A 
ATOM     19  C   UNL     1       1.204  -0.681  -0.013  0.00  0.00    +0.010 A 
ATOM     20  C   UNL     1       0.002  -0.004   0.002  0.00  0.00    +0.001 A 
ENDBRANCH   1  18
BRANCH   6  21
ATOM     21  C   UNL     1       7.634   0.759  -0.054  0.00  0.00    +0.021 C 
BRANCH  21  22
ATOM     22  N   UNL     1       9.099   0.855  -0.064  0.00  0.00    +0.386 N 
ATOM     23  C   UNL     1       9.615   0.306  -1.324  0.00  0.00    -0.073 C 
ATOM     24  C   UNL     1      11.145   0.324  -1.305  0.00  0.00    +0.046 C 
ATOM     25  C   UNL     1      11.629   1.766  -1.130  0.00  0.00    +0.167 C 
ATOM     26  C   UNL     1      11.023   2.358   0.144  0.00  0.00    +0.046 C 
ATOM     27  C   UNL     1       9.498   2.261   0.068  0.00  0.00    -0.073 C 
ATOM     28  O   UNL     1      13.062   1.782  -1.032  0.00  0.00    -0.346 OA
ATOM     29  C   UNL     1      13.522   2.062  -2.377  0.00  0.00    +0.191 C 
ATOM     30  C   UNL     1      12.437   3.045  -2.882  0.00  0.00    +0.191 C 
ATOM     31  O   UNL     1      11.232   2.548  -2.263  0.00  0.00    -0.346 OA
ATOM     32  H   UNL     1       9.475   0.326   0.709  0.00  0.00    -0.081 HD
ENDBRANCH  21  22
ENDBRANCH   6  21
TORSDOF 4
