REMARK  Name = ZINC36879693
REMARK  6 active torsions:
REMARK  status: ('A' for Active; 'I' for Inactive)
REMARK    1  A    between atoms: C_1  and  C_2
REMARK    2  A    between atoms: C_2  and  C_20
REMARK    3  A    between atoms: N_5  and  C_9
REMARK    4  A    between atoms: C_9  and  C_10
REMARK    5  A    between atoms: N_12  and  C_13
REMARK    6  A    between atoms: C_14  and  C_18
REMARK                            x       y       z     vdW  Elec       q    Type
REMARK                         _______ _______ _______ _____ _____    ______ ____
ROOT
ATOM      1  C   UNL     1      -0.019   1.526   0.010  0.00  0.00    +0.047 C 
ATOM      2  C   UNL     1       0.002  -0.004   0.002  0.00  0.00    +0.136 C 
ATOM      3  C   UNL     1       0.815  -0.520  -1.169  0.00  0.00    +0.251 C 
ATOM      4  O   UNL     1       0.595  -0.342  -2.348  0.00  0.00    -0.272 OA
ATOM      5  N   UNL     1       1.833  -1.217  -0.627  0.00  0.00    -0.215 N 
ATOM      6  C   UNL     1       1.777  -1.214   0.710  0.00  0.00    +0.310 C 
ATOM      7  O   UNL     1       2.586  -1.776   1.421  0.00  0.00    -0.252 OA
ATOM      8  N   UNL     1       0.724  -0.519   1.178  0.00  0.00    -0.281 N 
ATOM      9  H   UNL     1       0.487  -0.383   2.109  0.00  0.00    +0.152 HD
ENDROOT
BRANCH   2  10
ATOM     10  C   UNL     1      -1.401  -0.551  -0.040  0.00  0.00    +0.003 A 
ATOM     11  C   UNL     1      -1.863  -1.350   0.990  0.00  0.00    +0.009 A 
ATOM     12  C   UNL     1      -3.150  -1.852   0.952  0.00  0.00    +0.020 A 
ATOM     13  C   UNL     1      -3.977  -1.556  -0.117  0.00  0.00    +0.042 A 
ATOM     14  C   UNL     1      -3.516  -0.757  -1.147  0.00  0.00    +0.040 A 
ATOM     15  C   UNL     1      -2.229  -0.250  -1.106  0.00  0.00    +0.048 A 
ATOM     16 CL   UNL     1      -1.652   0.758  -2.396  0.00  0.00    -0.083 Cl
ATOM     17 CL   UNL     1      -5.593  -2.188  -0.164  0.00  0.00    -0.083 Cl
ENDBRANCH   2  10
BRANCH   5  18
ATOM     18  C   UNL     1       2.871  -1.896  -1.406  0.00  0.00    +0.214 C 
BRANCH  18  19
ATOM     19  C   UNL     1       4.020  -0.950  -1.644  0.00  0.00    +0.236 C 
ATOM     20  O   UNL     1       3.975   0.180  -1.206  0.00  0.00    -0.274 OA
ATOM     21  N   UNL     1       5.097  -1.360  -2.343  0.00  0.00    -0.278 N 
ATOM     22  H   UNL     1       5.133  -2.264  -2.693  0.00  0.00    +0.155 HD
BRANCH  21  23
ATOM     23  C   UNL     1       6.155  -0.488  -2.562  0.00  0.00    +0.089 A 
ATOM     24  C   UNL     1       7.330  -0.732  -3.256  0.00  0.00    +0.080 A 
ATOM     25  C   UNL     1       8.272   0.360  -3.335  0.00  0.00    +0.028 A 
ATOM     26  C   UNL     1       7.903   1.500  -2.721  0.00  0.00    +0.048 A 
ATOM     27  S   UNL     1       6.302   1.104  -2.053  0.00  0.00    -0.081 S 
BRANCH  24  28
ATOM     28  C   UNL     1       7.595  -2.001  -3.865  0.00  0.00    +0.102 C 
ATOM     29  N   UNL     1       7.806  -3.007  -4.347  0.00  0.00    -0.191 NA
ENDBRANCH  24  28
ENDBRANCH  21  23
ENDBRANCH  18  19
ENDBRANCH   5  18
TORSDOF 5
