REMARK  Name = ZINC66402489
REMARK  6 active torsions:
REMARK  status: ('A' for Active; 'I' for Inactive)
REMARK    1  A    between atoms: C_1  and  C_2
REMARK    2  A    between atoms: N_5  and  C_8
REMARK    3  A    between atoms: C_8  and  C_9
REMARK    4  A    between atoms: C_9  and  N_10
REMARK    5  A    between atoms: N_13  and  C_14
REMARK    6  A    between atoms: C_16  and  C_22
REMARK                            x       y       z     vdW  Elec       q    Type
REMARK                         _______ _______ _______ _____ _____    ______ ____
ROOT
ATOM      1  N   UNL     1       2.601  -5.810   1.249  0.00  0.00    -0.301 N 
ATOM      2  C   UNL     1       3.334  -6.432   2.194  0.00  0.00    +0.304 C 
ATOM      3  O   UNL     1       3.753  -5.806   3.148  0.00  0.00    -0.253 OA
ATOM      4  N   UNL     1       3.602  -7.748   2.081  0.00  0.00    -0.265 N 
ATOM      5  H   UNL     1       2.267  -6.310   0.488  0.00  0.00    +0.150 HD
ATOM      6  H   UNL     1       3.208  -8.263   1.360  0.00  0.00    +0.157 HD
ENDROOT
BRANCH   4   7
ATOM      7  C   UNL     1       4.452  -8.372   3.005  0.00  0.00    +0.100 A 
ATOM      8  C   UNL     1       4.008  -9.430   3.750  0.00  0.00    +0.042 A 
ATOM      9  C   UNL     1       4.878 -10.036   4.667  0.00  0.00    +0.073 A 
ATOM     10  C   UNL     1       6.142  -9.574   4.807  0.00  0.00    +0.098 A 
ATOM     11  N   UNL     1       6.586  -8.523   4.068  0.00  0.00    -0.327 N 
ATOM     12  H   UNL     1       7.495  -8.206   4.183  0.00  0.00    +0.168 HD
ATOM     13  C   UNL     1       5.779  -7.920   3.174  0.00  0.00    +0.270 A 
ATOM     14  O   UNL     1       6.193  -6.981   2.513  0.00  0.00    -0.266 OA
BRANCH   9  15
ATOM     15  C   UNL     1       4.406 -11.202   5.496  0.00  0.00    +0.419 C 
ATOM     16  F   UNL     1       5.444 -11.632   6.330  0.00  0.00    -0.166 F 
ATOM     17  F   UNL     1       3.314 -10.807   6.277  0.00  0.00    -0.166 F 
ATOM     18  F   UNL     1       4.021 -12.249   4.652  0.00  0.00    -0.166 F 
ENDBRANCH   9  15
ENDBRANCH   4   7
BRANCH   1  19
ATOM     19  C   UNL     1       2.309  -4.380   1.372  0.00  0.00    +0.087 C 
BRANCH  19  20
ATOM     20  C   UNL     1       1.468  -3.926   0.177  0.00  0.00    -0.060 C 
BRANCH  20  25
ATOM     21  C   UNL     1      -0.784   1.299   0.560  0.00  0.00    +0.007 C 
ATOM     22  C   UNL     1      -0.611  -0.215   0.422  0.00  0.00    -0.018 C 
ATOM     23  C   UNL     1       0.236  -0.523  -0.816  0.00  0.00    -0.016 C 
ATOM     24  C   UNL     1       0.471  -2.033  -0.903  0.00  0.00    -0.079 C 
ATOM     25  N   UNL     1       1.175  -2.492   0.300  0.00  0.00    +0.381 N 
ATOM     26  C   UNL     1       0.338  -2.265   1.484  0.00  0.00    -0.079 C 
ATOM     27  C   UNL     1       0.097  -0.765   1.663  0.00  0.00    -0.016 C 
ATOM     28  H   UNL     1       2.040  -1.982   0.399  0.00  0.00    -0.082 HD
ENDBRANCH  20  25
ENDBRANCH  19  20
ENDBRANCH   1  19
TORSDOF 5
