REMARK  Name = ZINC48123202
REMARK  7 active torsions:
REMARK  status: ('A' for Active; 'I' for Inactive)
REMARK    1  A    between atoms: C_1  and  C_2
REMARK    2  A    between atoms: C_4  and  O_24
REMARK    3  A    between atoms: C_7  and  N_8
REMARK    4  A    between atoms: C_17  and  C_19
REMARK    5  A    between atoms: O_24  and  C_25
REMARK    6  A    between atoms: C_25  and  C_26
REMARK    7  A    between atoms: C_25  and  C_27
REMARK                            x       y       z     vdW  Elec       q    Type
REMARK                         _______ _______ _______ _____ _____    ______ ____
ROOT
ATOM      1  N   UNL     1       0.124   0.771   1.685  0.00  0.00    -0.269 N 
ATOM      2  C   UNL     1       0.085   0.218   2.913  0.00  0.00    +0.307 C 
ATOM      3  O   UNL     1       0.304  -0.970   3.053  0.00  0.00    -0.252 OA
ATOM      4  N   UNL     1      -0.197   0.982   3.987  0.00  0.00    -0.282 N 
ATOM      5  C   UNL     1      -0.362   2.436   3.849  0.00  0.00    +0.128 C 
ATOM      6  C   UNL     1      -1.731   2.830   4.416  0.00  0.00    +0.127 C 
ATOM      7  N   UNL     1      -1.880   2.224   5.747  0.00  0.00    -0.295 N 
ATOM      8  C   UNL     1      -1.715   0.770   5.886  0.00  0.00    +0.127 C 
ATOM      9  C   UNL     1      -0.351   0.375   5.317  0.00  0.00    +0.128 C 
ATOM     10  C   UNL     1      -2.162   2.988   6.821  0.00  0.00    +0.247 C 
ATOM     11  O   UNL     1      -2.175   2.494   7.932  0.00  0.00    -0.270 OA
ATOM     12  H   UNL     1       0.022   1.730   1.581  0.00  0.00    +0.156 HD
ENDROOT
BRANCH   1  19
ATOM     13  C   UNL     1       1.014   2.002  -0.720  0.00  0.00    +0.046 C 
ATOM     14  C   UNL     1       0.747   0.521  -0.636  0.00  0.00    -0.026 A 
ATOM     15  C   UNL     1       0.939  -0.279  -1.746  0.00  0.00    +0.050 A 
ATOM     16  C   UNL     1       0.693  -1.642  -1.669  0.00  0.00    +0.121 A 
ATOM     17  C   UNL     1       0.254  -2.202  -0.478  0.00  0.00    +0.047 A 
ATOM     18  C   UNL     1       0.062  -1.403   0.632  0.00  0.00    +0.027 A 
ATOM     19  C   UNL     1       0.314  -0.040   0.557  0.00  0.00    +0.038 A 
BRANCH  16  20
ATOM     20  O   UNL     1       0.882  -2.429  -2.761  0.00  0.00    -0.489 OA
BRANCH  20  21
ATOM     21  C   UNL     1       0.638  -3.828  -2.602  0.00  0.00    +0.167 C 
ATOM     22  C   UNL     1      -0.829  -4.129  -2.916  0.00  0.00    +0.051 C 
ATOM     23  C   UNL     1       1.536  -4.615  -3.560  0.00  0.00    +0.051 C 
ENDBRANCH  20  21
ENDBRANCH  16  20
ENDBRANCH   1  19
BRANCH  10  24
ATOM     24  C   UNL     1      -2.453   4.421   6.649  0.00  0.00    +0.044 A 
ATOM     25  C   UNL     1      -1.958   5.409   7.577  0.00  0.00    +0.020 A 
ATOM     26  C   UNL     1      -2.295   6.686   7.307  0.00  0.00    +0.046 A 
ATOM     27  S   UNL     1      -3.265   6.542   5.822  0.00  0.00    -0.104 S 
ATOM     28  C   UNL     1      -3.207   4.881   5.593  0.00  0.00    +0.058 A 
ENDBRANCH  10  24
TORSDOF 4
