REMARK  Name = ZINC63479035
REMARK  2 active torsions:
REMARK  status: ('A' for Active; 'I' for Inactive)
REMARK    1  A    between atoms: C_1  and  C_2
REMARK    2  A    between atoms: C_9  and  C_11
REMARK                            x       y       z     vdW  Elec       q    Type
REMARK                         _______ _______ _______ _____ _____    ______ ____
ROOT
ATOM      1  C   UNL     1       0.581  -4.259   2.055  0.00  0.00    +0.161 C 
ATOM      2  C   UNL     1       0.685  -4.892   3.424  0.00  0.00    +0.011 C 
ATOM      3  C   UNL     1      -0.305  -5.750   3.738  0.00  0.00    +0.049 C 
ATOM      4  C   UNL     1      -1.355  -5.967   2.732  0.00  0.00    +0.030 C 
ATOM      5  C   UNL     1      -2.412  -6.851   3.007  0.00  0.00    +0.010 A 
ATOM      6  C   UNL     1      -3.428  -7.079   2.065  0.00  0.00    +0.011 A 
ATOM      7  C   UNL     1      -4.442  -7.941   2.356  0.00  0.00    +0.001 A 
ATOM      8  C   UNL     1      -4.484  -8.602   3.580  0.00  0.00    +0.002 A 
ATOM      9  C   UNL     1      -3.514  -8.404   4.517  0.00  0.00    +0.024 A 
ATOM     10  C   UNL     1      -2.452  -7.523   4.255  0.00  0.00    +0.042 A 
ATOM     11  N   UNL     1      -1.498  -7.329   5.175  0.00  0.00    -0.281 N 
ATOM     12  C   UNL     1      -0.470  -6.522   5.011  0.00  0.00    +0.249 C 
ATOM     13  O   UNL     1       0.356  -6.403   5.903  0.00  0.00    -0.270 OA
ATOM     14  S   UNL     1      -0.965  -5.014   1.415  0.00  0.00    -0.107 S 
ATOM     15  H   UNL     1      -1.569  -7.812   6.013  0.00  0.00    +0.155 HD
ENDROOT
BRANCH   1  23
ATOM     16  C   UNL     1      -0.019   1.526   0.010  0.00  0.00    +0.009 C 
ATOM     17  C   UNL     1       0.002  -0.004   0.002  0.00  0.00    +0.003 C 
ATOM     18  C   UNL     1       0.720  -0.498  -1.256  0.00  0.00    +0.006 C 
ATOM     19  C   UNL     1       0.712  -2.028  -1.282  0.00  0.00    +0.019 C 
ATOM     20  C   UNL     1       1.463  -2.559  -0.057  0.00  0.00    +0.108 C 
ATOM     21  N   UNL     1       0.869  -1.973   1.153  0.00  0.00    -0.300 N 
ATOM     22  C   UNL     1       0.744  -0.512   1.242  0.00  0.00    +0.111 C 
ATOM     23  C   UNL     1       0.447  -2.761   2.161  0.00  0.00    +0.233 C 
ATOM     24  O   UNL     1      -0.042  -2.265   3.154  0.00  0.00    -0.274 OA
ENDBRANCH   1  23
TORSDOF 1
