REMARK  Name = ZINC09381548
REMARK  7 active torsions:
REMARK  status: ('A' for Active; 'I' for Inactive)
REMARK    1  A    between atoms: C_1  and  C_2
REMARK    2  A    between atoms: C_2  and  O_3
REMARK    3  A    between atoms: O_3  and  C_4
REMARK    4  A    between atoms: C_4  and  C_6
REMARK    5  A    between atoms: C_10  and  N_23
REMARK    6  A    between atoms: N_14  and  C_16
REMARK    7  A    between atoms: C_24  and  C_26
REMARK                            x       y       z     vdW  Elec       q    Type
REMARK                         _______ _______ _______ _____ _____    ______ ____
ROOT
ATOM      1  C   UNL     1      -1.288  -0.802   0.369  0.00  0.00    +0.177 A 
ATOM      2  C   UNL     1      -1.246  -2.250   0.012  0.00  0.00    +0.030 A 
ATOM      3  C   UNL     1      -0.137  -3.052  -0.018  0.00  0.00    +0.058 A 
ATOM      4  S   UNL     1      -0.771  -4.640  -0.500  0.00  0.00    -0.080 S 
ATOM      5  C   UNL     1      -2.448  -4.255  -0.649  0.00  0.00    +0.085 A 
ATOM      6  C   UNL     1      -2.517  -2.898  -0.325  0.00  0.00    +0.079 A 
ATOM      7  C   UNL     1      -3.698  -2.087  -0.297  0.00  0.00    +0.282 A 
ATOM      8  O   UNL     1      -4.776  -2.581  -0.575  0.00  0.00    -0.265 OA
ATOM      9  N   UNL     1      -3.627  -0.790   0.033  0.00  0.00    -0.195 N 
ATOM     10  N   UNL     1      -2.426  -0.164   0.361  0.00  0.00    -0.156 NA
ENDROOT
BRANCH   9  11
ATOM     11  C   UNL     1      -4.804  -0.035   0.047  0.00  0.00    +0.069 A 
ATOM     12  C   UNL     1      -5.672  -0.077  -1.037  0.00  0.00    +0.029 A 
ATOM     13  C   UNL     1      -6.836   0.665  -1.017  0.00  0.00    +0.022 A 
ATOM     14  C   UNL     1      -7.134   1.459   0.077  0.00  0.00    +0.041 A 
ATOM     15  C   UNL     1      -6.269   1.507   1.156  0.00  0.00    +0.022 A 
ATOM     16  C   UNL     1      -5.106   0.763   1.144  0.00  0.00    +0.029 A 
ATOM     17 CL   UNL     1      -8.595   2.396   0.095  0.00  0.00    -0.084 Cl
ENDBRANCH   9  11
BRANCH   5  18
ATOM     18  N   UNL     1      -3.488  -5.101  -1.008  0.00  0.00    -0.279 N 
ATOM     19  C   UNL     1      -3.239  -6.395  -1.290  0.00  0.00    +0.221 C 
ATOM     20  O   UNL     1      -2.105  -6.821  -1.230  0.00  0.00    -0.275 OA
ATOM     21  H   UNL     1      -4.395  -4.760  -1.056  0.00  0.00    +0.155 HD
BRANCH  19  22
ATOM     22  C   UNL     1      -4.369  -7.312  -1.680  0.00  0.00    +0.075 C 
ATOM     23  C   UNL     1      -4.755  -8.416  -0.693  0.00  0.00    +0.013 C 
ATOM     24  C   UNL     1      -4.021  -8.770  -1.988  0.00  0.00    +0.013 C 
ENDBRANCH  19  22
ENDBRANCH   5  18
BRANCH   1  25
ATOM     25  C   UNL     1      -0.046  -0.093   0.724  0.00  0.00    +0.360 C 
ATOM     26  O   UNL     1       1.013  -0.689   0.731  0.00  0.00    -0.243 OA
BRANCH  25  27
ATOM     27  O   UNL     1      -0.085   1.217   1.041  0.00  0.00    -0.460 OA
BRANCH  27  29
ATOM     28  C   UNL     1       0.935   3.325   1.708  0.00  0.00    +0.048 C 
ATOM     29  C   UNL     1       1.177   1.851   1.380  0.00  0.00    +0.229 C 
ENDBRANCH  27  29
ENDBRANCH  25  27
ENDBRANCH   1  25
TORSDOF 6
