REMARK  Name = ZINC66241110
REMARK  7 active torsions:
REMARK  status: ('A' for Active; 'I' for Inactive)
REMARK    1  A    between atoms: C_1  and  O_2
REMARK    2  A    between atoms: O_2  and  C_3
REMARK    3  A    between atoms: C_7  and  N_9
REMARK    4  A    between atoms: C_10  and  C_12
REMARK    5  A    between atoms: C_15  and  N_18
REMARK    6  A    between atoms: C_19  and  N_25
REMARK    7  A    between atoms: C_20  and  C_23
REMARK                            x       y       z     vdW  Elec       q    Type
REMARK                         _______ _______ _______ _____ _____    ______ ____
ROOT
ATOM      1  C   UNL     1      -1.479  -6.256  -0.205  0.00  0.00    +0.037 A 
ATOM      2  C   UNL     1      -2.719  -6.901  -0.202  0.00  0.00    +0.015 A 
ATOM      3  C   UNL     1      -2.780  -8.273  -0.306  0.00  0.00    +0.028 A 
ATOM      4  C   UNL     1      -1.609  -9.017  -0.415  0.00  0.00    +0.067 A 
ATOM      5  C   UNL     1      -0.374  -8.378  -0.418  0.00  0.00    +0.028 A 
ATOM      6  C   UNL     1      -0.305  -7.006  -0.320  0.00  0.00    +0.015 A 
ENDROOT
BRANCH   4   7
ATOM      7  N   UNL     1      -1.675 -10.408  -0.520  0.00  0.00    -0.218 N 
ATOM      8  C   UNL     1      -0.836 -11.192  -1.247  0.00  0.00    +0.137 A 
ATOM      9  C   UNL     1      -1.256 -12.508  -1.074  0.00  0.00    +0.111 A 
ATOM     10  C   UNL     1      -2.379 -12.475  -0.215  0.00  0.00    +0.155 A 
ATOM     11  N   UNL     1      -2.613 -11.234   0.110  0.00  0.00    -0.172 NA
BRANCH   8  12
ATOM     12  N   UNL     1       0.231 -10.764  -2.013  0.00  0.00    -0.342 N 
ATOM     13  H   UNL     1       0.440  -9.818  -2.067  0.00  0.00    +0.144 HD
ATOM     14  H   UNL     1       0.770 -11.408  -2.496  0.00  0.00    +0.144 HD
ENDBRANCH   8  12
BRANCH   9  15
ATOM     15  C   UNL     1      -0.664 -13.674  -1.657  0.00  0.00    +0.104 C 
ATOM     16  N   UNL     1      -0.194 -14.599  -2.119  0.00  0.00    -0.191 NA
ENDBRANCH   9  15
ENDBRANCH   4   7
BRANCH   1  18
ATOM     17  N   UNL     1      -2.542  -4.064   0.017  0.00  0.00    -0.280 N 
ATOM     18  C   UNL     1      -1.409  -4.786  -0.094  0.00  0.00    +0.248 C 
ATOM     19  O   UNL     1      -0.330  -4.226  -0.102  0.00  0.00    -0.270 OA
ATOM     20  H   UNL     1      -3.397  -4.514   0.104  0.00  0.00    +0.155 HD
BRANCH  17  25
ATOM     21  C   UNL     1      -1.366  -0.635  -0.613  0.00  0.00    +0.122 A 
ATOM     22  C   UNL     1      -2.376   0.102  -0.011  0.00  0.00    +0.047 A 
ATOM     23  C   UNL     1      -3.436  -0.543   0.597  0.00  0.00    +0.025 A 
ATOM     24  C   UNL     1      -3.494  -1.924   0.608  0.00  0.00    +0.062 A 
ATOM     25  C   UNL     1      -2.485  -2.667   0.006  0.00  0.00    +0.056 A 
ATOM     26  C   UNL     1      -1.423  -2.019  -0.610  0.00  0.00    +0.070 A 
ATOM     27 CL   UNL     1      -4.827  -2.731   1.373  0.00  0.00    -0.082 Cl
BRANCH  21  29
ATOM     28  C   UNL     1      -0.331   1.430  -1.176  0.00  0.00    +0.277 C 
ATOM     29  O   UNL     1      -0.324   0.002  -1.211  0.00  0.00    -0.495 OA
ENDBRANCH  21  29
ENDBRANCH  17  25
ENDBRANCH   1  18
TORSDOF 6
