REMARK  Name = ZINC05445568
REMARK  2 active torsions:
REMARK  status: ('A' for Active; 'I' for Inactive)
REMARK    1  A    between atoms: N_16  and  C_17
REMARK    2  A    between atoms: C_17  and  C_19
REMARK                            x       y       z     vdW  Elec       q    Type
REMARK                         _______ _______ _______ _____ _____    ______ ____
ROOT
ATOM      1  C   UNL     1       0.040   7.410  -2.923  0.00  0.00    +0.000 A 
ATOM      2  C   UNL     1       1.371   7.275  -3.276  0.00  0.00    +0.001 A 
ATOM      3  C   UNL     1       2.208   6.477  -2.525  0.00  0.00    +0.012 A 
ATOM      4  C   UNL     1       1.714   5.804  -1.404  0.00  0.00    +0.022 A 
ATOM      5  C   UNL     1       0.377   5.958  -1.047  0.00  0.00    -0.019 A 
ATOM      6  C   UNL     1      -0.454   6.753  -1.812  0.00  0.00    +0.006 A 
ATOM      7  C   UNL     1      -0.158   5.284   0.183  0.00  0.00    +0.147 C 
ATOM      8  N   UNL     1      -0.069   3.832   0.073  0.00  0.00    -0.286 N 
ATOM      9  C   UNL     1      -1.231   3.122   0.051  0.00  0.00    +0.097 C 
ATOM     10  C   UNL     1      -1.229   1.768   0.017  0.00  0.00    +0.055 C 
ATOM     11  C   UNL     1      -0.013   1.076   0.008  0.00  0.00    +0.024 C 
ATOM     12  C   UNL     1       1.154   1.782   0.001  0.00  0.00    +0.045 C 
ATOM     13  C   UNL     1       1.129   3.189   0.004  0.00  0.00    +0.128 C 
ATOM     14  N   UNL     1       2.285   3.835  -0.026  0.00  0.00    -0.215 NA
ATOM     15  C   UNL     1       2.609   4.940  -0.620  0.00  0.00    +0.155 C 
ATOM     16  N   UNL     1       3.879   5.333  -0.509  0.00  0.00    -0.154 NA
ATOM     17 CL   UNL     1      -2.729   0.895  -0.006  0.00  0.00    -0.082 Cl
ENDROOT
BRANCH  16  18
ATOM     18  C   UNL     1       4.749   4.595   0.191  0.00  0.00    +0.304 C 
ATOM     19  O   UNL     1       4.381   3.562   0.727  0.00  0.00    -0.265 OA
BRANCH  18  20
ATOM     20  C   UNL     1       6.150   5.028   0.313  0.00  0.00    +0.191 A 
ATOM     21  C   UNL     1       7.134   4.373   0.993  0.00  0.00    +0.054 A 
ATOM     22  C   UNL     1       8.304   5.137   0.846  0.00  0.00    +0.042 A 
ATOM     23  C   UNL     1       7.984   6.211   0.091  0.00  0.00    +0.196 A 
ATOM     24  O   UNL     1       6.686   6.139  -0.232  0.00  0.00    -0.458 OA
ENDBRANCH  18  20
ENDBRANCH  16  18
TORSDOF 2
