REMARK  Name = ZINC44910409
REMARK  6 active torsions:
REMARK  status: ('A' for Active; 'I' for Inactive)
REMARK    1  A    between atoms: C_1  and  C_2
REMARK    2  A    between atoms: C_5  and  S_8
REMARK    3  A    between atoms: S_8  and  N_11
REMARK    4  A    between atoms: C_17  and  C_19
REMARK    5  A    between atoms: N_24  and  C_26
REMARK    6  A    between atoms: C_26  and  C_27
REMARK                            x       y       z     vdW  Elec       q    Type
REMARK                         _______ _______ _______ _____ _____    ______ ____
ROOT
ATOM      1  N   UNL     1       2.006  -6.547  -0.367  0.00  0.00    -0.174 NA
ATOM      2  C   UNL     1       2.724  -6.162  -1.589  0.00  0.00    +0.128 C 
ATOM      3  C   UNL     1       3.536  -4.893  -1.302  0.00  0.00    +0.125 C 
ATOM      4  N   UNL     1       4.302  -5.096  -0.064  0.00  0.00    -0.299 N 
ATOM      5  C   UNL     1       3.583  -5.481   1.159  0.00  0.00    +0.125 C 
ATOM      6  C   UNL     1       2.771  -6.745   0.872  0.00  0.00    +0.128 C 
ATOM      7  C   UNL     1       5.640  -4.932  -0.050  0.00  0.00    +0.217 C 
ATOM      8  O   UNL     1       6.231  -4.691  -1.081  0.00  0.00    -0.275 OA
ENDROOT
BRANCH   7   9
ATOM      9  C   UNL     1       6.400  -5.049   1.245  0.00  0.00    +0.059 C 
ATOM     10  C   UNL     1       6.317  -3.724   2.008  0.00  0.00    +0.009 C 
ATOM     11  C   UNL     1       7.157  -3.828   3.284  0.00  0.00    -0.018 C 
ATOM     12  C   UNL     1       8.596  -4.195   2.913  0.00  0.00    -0.078 C 
ATOM     13  N   UNL     1       8.610  -5.483   2.211  0.00  0.00    +0.383 N 
ATOM     14  C   UNL     1       7.866  -5.372   0.950  0.00  0.00    -0.066 C 
ATOM     15  H   UNL     1       8.180  -6.187   2.792  0.00  0.00    -0.081 HD
BRANCH  13  16
ATOM     16  C   UNL     1       9.999  -5.868   1.926  0.00  0.00    -0.043 C 
BRANCH  16  17
ATOM     17  C   UNL     1      10.728  -6.112   3.221  0.00  0.00    -0.064 A 
ATOM     18  C   UNL     1      11.384  -5.071   3.852  0.00  0.00    +0.003 A 
ATOM     19  C   UNL     1      12.054  -5.295   5.040  0.00  0.00    +0.020 A 
ATOM     20  C   UNL     1      12.067  -6.560   5.599  0.00  0.00    +0.041 A 
ATOM     21  C   UNL     1      11.410  -7.601   4.968  0.00  0.00    +0.020 A 
ATOM     22  C   UNL     1      10.736  -7.376   3.782  0.00  0.00    +0.003 A 
ATOM     23 CL   UNL     1      12.908  -6.841   7.091  0.00  0.00    -0.084 Cl
ENDBRANCH  16  17
ENDBRANCH  13  16
ENDBRANCH   7   9
BRANCH   1  24
ATOM     24  S   UNL     1       0.362  -6.748  -0.384  0.00  0.00    +0.061 S 
ATOM     25  O   UNL     1       0.048  -7.614   0.699  0.00  0.00    -0.153 OA
ATOM     26  O   UNL     1       0.003  -7.046  -1.726  0.00  0.00    -0.153 OA
BRANCH  24  31
ATOM     27  C   UNL     1      -2.106  -1.398   0.915  0.00  0.00    +0.044 C 
ATOM     28  C   UNL     1      -1.490  -2.734   0.591  0.00  0.00    -0.050 A 
ATOM     29  C   UNL     1      -1.228  -3.074  -0.723  0.00  0.00    +0.005 A 
ATOM     30  C   UNL     1      -0.662  -4.299  -1.021  0.00  0.00    +0.029 A 
ATOM     31  C   UNL     1      -0.358  -5.185  -0.004  0.00  0.00    +0.105 A 
ATOM     32  C   UNL     1      -0.619  -4.846   1.310  0.00  0.00    +0.029 A 
ATOM     33  C   UNL     1      -1.181  -3.618   1.608  0.00  0.00    +0.005 A 
ENDBRANCH  24  31
ENDBRANCH   1  24
TORSDOF 5
