REMARK  Name = ZINC21093268
REMARK  9 active torsions:
REMARK  status: ('A' for Active; 'I' for Inactive)
REMARK    1  A    between atoms: C_1  and  C_2
REMARK    2  A    between atoms: C_5  and  C_25
REMARK    3  A    between atoms: C_6  and  N_8
REMARK    4  A    between atoms: C_9  and  C_11
REMARK    5  A    between atoms: C_11  and  S_12
REMARK    6  A    between atoms: S_12  and  C_13
REMARK    7  A    between atoms: C_16  and  C_19
REMARK    8  A    between atoms: N_17  and  N_18
REMARK    9  A    between atoms: C_23  and  C_24
REMARK                            x       y       z     vdW  Elec       q    Type
REMARK                         _______ _______ _______ _____ _____    ______ ____
ROOT
ATOM      1  S   UNL     1      -0.022   1.805   0.029  0.00  0.00    -0.075 S 
ENDROOT
BRANCH   1   2
ATOM      2  C   UNL     1       1.709   2.134   0.028  0.00  0.00    +0.209 A 
ATOM      3  N   UNL     1       2.672   1.242   0.021  0.00  0.00    -0.121 NA
ATOM      4  N   UNL     1       3.817   1.826   0.023  0.00  0.00    -0.127 NA
ATOM      5  C   UNL     1       3.655   3.128   0.032  0.00  0.00    +0.185 A 
ATOM      6  N   UNL     1       2.301   3.367   0.030  0.00  0.00    -0.224 N 
BRANCH   5   7
ATOM      7  C   UNL     1       4.727   4.147   0.037  0.00  0.00    +0.061 A 
ATOM      8  C   UNL     1       4.564   5.606   0.047  0.00  0.00    +0.053 A 
ATOM      9  C   UNL     1       5.806   6.119   0.050  0.00  0.00    +0.196 A 
ATOM     10  O   UNL     1       6.694   5.113   0.042  0.00  0.00    -0.467 OA
ATOM     11  C   UNL     1       6.070   3.927   0.039  0.00  0.00    +0.112 A 
ATOM     12  C   UNL     1       6.741   2.578   0.036  0.00  0.00    +0.087 C 
ENDBRANCH   5   7
BRANCH   6  13
ATOM     13  N   UNL     1       1.677   4.582   0.032  0.00  0.00    -0.295 N 
ATOM     14  H   UNL     1       2.273   5.507   0.033  0.00  0.00    +0.163 HD
ATOM     15  H   UNL     1       0.578   4.636   0.033  0.00  0.00    +0.163 HD
ENDBRANCH   6  13
ENDBRANCH   1   2
BRANCH   1  16
ATOM     16  C   UNL     1       0.003  -0.004   0.017  0.00  0.00    +0.173 C 
BRANCH  16  18
ATOM     17  N   UNL     1      -1.640  -1.854   0.008  0.00  0.00    -0.285 N 
ATOM     18  C   UNL     1      -1.411  -0.526   0.016  0.00  0.00    +0.227 C 
ATOM     19  O   UNL     1      -2.344   0.250   0.022  0.00  0.00    -0.275 OA
ATOM     20  H   UNL     1      -0.799  -2.556  -0.090  0.00  0.00    +0.155 HD
BRANCH  17  26
ATOM     21  C   UNL     1      -6.275  -1.213   1.518  0.00  0.00    +0.044 C 
ATOM     22  C   UNL     1      -5.214  -2.050   0.851  0.00  0.00    -0.049 A 
ATOM     23  C   UNL     1      -5.532  -3.300   0.352  0.00  0.00    +0.004 A 
ATOM     24  C   UNL     1      -4.561  -4.071  -0.261  0.00  0.00    +0.005 A 
ATOM     25  C   UNL     1      -3.270  -3.594  -0.376  0.00  0.00    -0.029 A 
ATOM     26  C   UNL     1      -2.947  -2.340   0.123  0.00  0.00    +0.037 A 
ATOM     27  C   UNL     1      -3.923  -1.570   0.743  0.00  0.00    +0.027 A 
ATOM     28  C   UNL     1      -2.212  -4.435  -1.044  0.00  0.00    +0.045 C 
ENDBRANCH  17  26
ENDBRANCH  16  18
ENDBRANCH   1  16
TORSDOF 6
