REMARK  Name = ZINC22418584
REMARK  10 active torsions:
REMARK  status: ('A' for Active; 'I' for Inactive)
REMARK    1  A    between atoms: C_1  and  N_2
REMARK    2  A    between atoms: N_5  and  C_8
REMARK    3  A    between atoms: C_8  and  C_10
REMARK    4  A    between atoms: C_8  and  C_23
REMARK    5  A    between atoms: C_10  and  N_11
REMARK    6  A    between atoms: N_14  and  C_15
REMARK    7  A    between atoms: C_15  and  C_16
REMARK    8  A    between atoms: C_26  and  N_29
REMARK    9  A    between atoms: N_29  and  C_30
REMARK   10  A    between atoms: N_29  and  C_31
REMARK                            x       y       z     vdW  Elec       q    Type
REMARK                         _______ _______ _______ _____ _____    ______ ____
ROOT
ATOM      1  C   UNL     1       2.424   0.737  -0.017  0.00  0.00    +0.104 C 
ENDROOT
BRANCH   1   6
ATOM      2  C   UNL     1       1.805  -0.392   5.482  0.00  0.00    -0.096 C 
ATOM      3  N   UNL     1       2.223   0.056   4.147  0.00  0.00    +0.379 N 
ATOM      4  C   UNL     1       2.515  -1.091   3.275  0.00  0.00    -0.064 C 
ATOM      5  C   UNL     1       3.022  -0.583   1.923  0.00  0.00    +0.066 C 
ATOM      6  N   UNL     1       2.006   0.289   1.318  0.00  0.00    -0.297 NA
ATOM      7  C   UNL     1       1.714   1.436   2.190  0.00  0.00    +0.066 C 
ATOM      8  C   UNL     1       1.207   0.928   3.542  0.00  0.00    -0.064 C 
ATOM      9  H   UNL     1       3.148   0.640   4.262  0.00  0.00    -0.082 HD
ENDBRANCH   1   6
BRANCH   1  10
ATOM     10  C   UNL     1       3.638   1.621   0.107  0.00  0.00    -0.029 A 
ATOM     11  C   UNL     1       3.516   2.889   0.647  0.00  0.00    +0.007 A 
ATOM     12  C   UNL     1       4.628   3.699   0.767  0.00  0.00    +0.023 A 
ATOM     13  C   UNL     1       5.867   3.245   0.334  0.00  0.00    +0.029 A 
ATOM     14  C   UNL     1       5.984   1.974  -0.213  0.00  0.00    +0.023 A 
ATOM     15  C   UNL     1       4.870   1.166  -0.326  0.00  0.00    +0.007 A 
BRANCH  13  16
ATOM     16  N   UNL     1       6.992   4.065   0.448  0.00  0.00    -0.336 N 
ATOM     17  C   UNL     1       8.298   3.584  -0.009  0.00  0.00    +0.129 C 
ATOM     18  C   UNL     1       6.866   5.405   1.026  0.00  0.00    +0.129 C 
ENDBRANCH  13  16
ENDBRANCH   1  10
BRANCH   1  19
ATOM     19  C   UNL     1       1.285   1.523  -0.671  0.00  0.00    +0.129 C 
BRANCH  19  20
ATOM     20  N   UNL     1       0.071   0.703  -0.683  0.00  0.00    -0.298 N 
ATOM     21  C   UNL     1      -1.065   1.191  -1.220  0.00  0.00    +0.300 C 
ATOM     22  O   UNL     1      -1.084   2.312  -1.689  0.00  0.00    -0.253 OA
ATOM     23  N   UNL     1      -2.181   0.435  -1.236  0.00  0.00    -0.295 N 
ATOM     24  H   UNL     1       0.086  -0.309  -0.255  0.00  0.00    +0.150 HD
ATOM     25  H   UNL     1      -2.164  -0.580  -0.811  0.00  0.00    +0.151 HD
BRANCH  23  26
ATOM     26  C   UNL     1      -3.416   0.965  -1.819  0.00  0.00    +0.141 C 
BRANCH  26  27
ATOM     27  C   UNL     1      -4.507  -0.070  -1.712  0.00  0.00    -0.030 A 
ATOM     28  C   UNL     1      -4.695  -0.983  -2.733  0.00  0.00    +0.006 A 
ATOM     29  C   UNL     1      -5.691  -1.936  -2.634  0.00  0.00    +0.020 A 
ATOM     30  C   UNL     1      -6.507  -1.969  -1.516  0.00  0.00    +0.041 A 
ATOM     31  C   UNL     1      -6.321  -1.052  -0.497  0.00  0.00    +0.020 A 
ATOM     32  C   UNL     1      -5.321  -0.103  -0.596  0.00  0.00    +0.006 A 
ATOM     33 CL   UNL     1      -7.762  -3.162  -1.393  0.00  0.00    -0.084 Cl
ENDBRANCH  26  27
ENDBRANCH  23  26
ENDBRANCH  19  20
ENDBRANCH   1  19
TORSDOF 7
