REMARK  Name = ZINC18272500
REMARK  4 active torsions:
REMARK  status: ('A' for Active; 'I' for Inactive)
REMARK    1  A    between atoms: C_1  and  C_2
REMARK    2  A    between atoms: C_5  and  N_8
REMARK    3  A    between atoms: C_14  and  C_15
REMARK    4  A    between atoms: C_18  and  C_20
REMARK                            x       y       z     vdW  Elec       q    Type
REMARK                         _______ _______ _______ _____ _____    ______ ____
ROOT
ATOM      1  N   UNL     1      -0.089  -4.132   0.150  0.00  0.00    -0.226 NA
ATOM      2  C   UNL     1       0.793  -4.788   0.871  0.00  0.00    +0.166 C 
ATOM      3  N   UNL     1       1.863  -4.287   1.580  0.00  0.00    -0.260 N 
ATOM      4  C   UNL     1       2.659  -5.095   2.259  0.00  0.00    +0.257 C 
ATOM      5  O   UNL     1       3.609  -4.669   2.891  0.00  0.00    -0.269 OA
ATOM      6  C   UNL     1       2.347  -6.533   2.217  0.00  0.00    +0.081 C 
ATOM      7  C   UNL     1       2.990  -7.575   2.816  0.00  0.00    +0.066 C 
ATOM      8  S   UNL     1       0.894  -6.544   1.178  0.00  0.00    -0.049 S 
ATOM      9  H   UNL     1       2.035  -3.332   1.581  0.00  0.00    +0.157 HD
ENDROOT
BRANCH   1  14
ATOM     10  C   UNL     1       0.270   1.480  -0.336  0.00  0.00    +0.044 C 
ATOM     11  C   UNL     1       0.175  -0.018  -0.206  0.00  0.00    -0.050 A 
ATOM     12  C   UNL     1      -0.066  -0.792  -1.327  0.00  0.00    +0.005 A 
ATOM     13  C   UNL     1      -0.155  -2.164  -1.216  0.00  0.00    +0.028 A 
ATOM     14  C   UNL     1      -0.002  -2.772   0.033  0.00  0.00    +0.067 A 
ATOM     15  C   UNL     1       0.241  -1.984   1.160  0.00  0.00    +0.028 A 
ATOM     16  C   UNL     1       0.333  -0.614   1.033  0.00  0.00    +0.005 A 
ENDBRANCH   1  14
BRANCH   7  17
ATOM     17  C   UNL     1       4.047  -7.327   3.723  0.00  0.00    +0.129 A 
ATOM     18  C   UNL     1       4.837  -8.282   4.331  0.00  0.00    +0.049 A 
ATOM     19  C   UNL     1       5.748  -7.587   5.142  0.00  0.00    +0.045 A 
ATOM     20  C   UNL     1       5.486  -6.269   5.001  0.00  0.00    +0.103 A 
ATOM     21  O   UNL     1       4.466  -6.116   4.143  0.00  0.00    -0.461 OA
ATOM     22  C   UNL     1       6.224  -5.152   5.691  0.00  0.00    +0.086 C 
ENDBRANCH   7  17
TORSDOF 2
