REMARK  Name = ZINC38050108
REMARK  5 active torsions:
REMARK  status: ('A' for Active; 'I' for Inactive)
REMARK    1  A    between atoms: C_4  and  S_10
REMARK    2  A    between atoms: C_6  and  N_7
REMARK    3  A    between atoms: S_10  and  N_13
REMARK    4  A    between atoms: N_13  and  C_14
REMARK    5  A    between atoms: C_20  and  N_22
REMARK                            x       y       z     vdW  Elec       q    Type
REMARK                         _______ _______ _______ _____ _____    ______ ____
ROOT
ATOM      1  S   UNL     1       4.006  -0.854  -0.014  0.00  0.00    +0.060 S 
ATOM      2  O   UNL     1       3.692  -2.232  -0.160  0.00  0.00    -0.153 OA
ATOM      3  O   UNL     1       3.036   0.112   0.368  0.00  0.00    -0.153 OA
ENDROOT
BRANCH   1   7
ATOM      4  C   UNL     1       7.349  -0.603   3.029  0.00  0.00    +0.034 A 
ATOM      5  C   UNL     1       7.436  -1.500   1.980  0.00  0.00    +0.024 A 
ATOM      6  C   UNL     1       6.415  -1.577   1.050  0.00  0.00    +0.067 A 
ATOM      7  C   UNL     1       5.307  -0.756   1.170  0.00  0.00    +0.126 A 
ATOM      8  C   UNL     1       5.222   0.140   2.219  0.00  0.00    +0.062 A 
ATOM      9  C   UNL     1       6.243   0.216   3.148  0.00  0.00    +0.128 A 
ATOM     10 CL   UNL     1       6.523  -2.703  -0.267  0.00  0.00    -0.082 Cl
BRANCH   9  11
ATOM     11  N   UNL     1       6.150   1.176   4.271  0.00  0.00    +0.056 N 
ATOM     12  O   UNL     1       7.043   1.243   5.083  0.00  0.00    -0.126 OA
ATOM     13  O   UNL     1       5.183   1.893   4.375  0.00  0.00    -0.126 OA
ENDBRANCH   9  11
ENDBRANCH   1   7
BRANCH   1  14
ATOM     14  N   UNL     1       4.627  -0.353  -1.466  0.00  0.00    -0.188 NA
ATOM     15  H   UNL     1       4.702  -0.980  -2.202  0.00  0.00    +0.148 HD
BRANCH  14  16
ATOM     16  C   UNL     1       5.061   1.035  -1.637  0.00  0.00    +0.062 C 
ATOM     17  C   UNL     1       6.573   1.127  -1.419  0.00  0.00    +0.019 C 
ATOM     18  C   UNL     1       7.290   0.239  -2.437  0.00  0.00    +0.001 C 
ATOM     19  C   UNL     1       6.949   0.709  -3.853  0.00  0.00    -0.001 C 
ATOM     20  C   UNL     1       5.438   0.617  -4.071  0.00  0.00    -0.015 C 
ATOM     21  C   UNL     1       4.721   1.506  -3.052  0.00  0.00    -0.056 C 
BRANCH  21  22
ATOM     22  N   UNL     1       3.269   1.417  -3.262  0.00  0.00    +0.381 N 
ATOM     23  H   UNL     1       2.796   2.003  -2.590  0.00  0.00    -0.090 HD
ATOM     24  H   UNL     1       3.045   1.727  -4.195  0.00  0.00    -0.090 HD
ATOM     25  H   UNL     1       2.970   0.461  -3.144  0.00  0.00    -0.090 HD
ENDBRANCH  21  22
ENDBRANCH  14  16
ENDBRANCH   1  14
TORSDOF 5
