REMARK  Name = ZINC04745115
REMARK  6 active torsions:
REMARK  status: ('A' for Active; 'I' for Inactive)
REMARK    1  A    between atoms: C_4  and  C_7
REMARK    2  A    between atoms: C_7  and  C_8
REMARK    3  A    between atoms: C_14  and  C_16
REMARK    4  A    between atoms: C_22  and  C_23
REMARK    5  A    between atoms: C_22  and  N_62
REMARK    6  A    between atoms: C_27  and  N_29
REMARK                            x       y       z     vdW  Elec       q    Type
REMARK                         _______ _______ _______ _____ _____    ______ ____
ROOT
ATOM      1  C   UNL     1      -4.673  -3.786   2.917  0.00  0.00    +0.059 C 
ATOM      2  C   UNL     1      -3.962  -4.315   1.668  0.00  0.00    +0.009 C 
ATOM      3  C   UNL     1      -2.565  -3.692   1.584  0.00  0.00    -0.018 C 
ATOM      4  C   UNL     1      -2.693  -2.167   1.557  0.00  0.00    -0.078 C 
ATOM      5  C   UNL     1      -4.740  -2.258   2.851  0.00  0.00    -0.066 C 
ATOM      6  N   UNL     1      -3.364  -1.720   2.796  0.00  0.00    +0.383 N 
ATOM      7  H   UNL     1      -2.837  -2.070   3.605  0.00  0.00    -0.081 HD
ENDROOT
BRANCH   1  14
ATOM      8  C   UNL     1      -8.198  -4.241   6.488  0.00  0.00    -0.004 C 
ATOM      9  C   UNL     1      -8.866  -4.458   5.129  0.00  0.00    +0.023 C 
ATOM     10  C   UNL     1      -7.942  -5.295   4.238  0.00  0.00    +0.108 C 
ATOM     11  N   UNL     1      -6.630  -4.637   4.167  0.00  0.00    -0.301 N 
ATOM     12  C   UNL     1      -5.938  -4.305   5.420  0.00  0.00    +0.108 C 
ATOM     13  C   UNL     1      -6.887  -3.475   6.298  0.00  0.00    +0.023 C 
ATOM     14  C   UNL     1      -6.070  -4.348   2.976  0.00  0.00    +0.217 C 
ATOM     15  O   UNL     1      -6.690  -4.541   1.952  0.00  0.00    -0.275 OA
BRANCH   8  16
ATOM     16  C   UNL     1      -9.132  -3.435   7.393  0.00  0.00    +0.038 C 
BRANCH  16  20
ATOM     17  C   UNL     1      -7.421  -3.125  11.294  0.00  0.00    +0.000 A 
ATOM     18  C   UNL     1      -7.141  -2.167  10.339  0.00  0.00    +0.000 A 
ATOM     19  C   UNL     1      -7.695  -2.267   9.076  0.00  0.00    +0.003 A 
ATOM     20  C   UNL     1      -8.528  -3.326   8.769  0.00  0.00    -0.047 A 
ATOM     21  C   UNL     1      -8.813  -4.282   9.726  0.00  0.00    +0.003 A 
ATOM     22  C   UNL     1      -8.256  -4.184  10.987  0.00  0.00    +0.000 A 
ENDBRANCH  16  20
ENDBRANCH   8  16
ENDBRANCH   1  14
BRANCH   6  23
ATOM     23  C   UNL     1      -3.397  -0.244   2.847  0.00  0.00    -0.043 C 
BRANCH  23  24
ATOM     24  C   UNL     1      -1.989   0.268   3.010  0.00  0.00    -0.062 A 
ATOM     25  C   UNL     1      -1.228   0.565   1.895  0.00  0.00    +0.002 A 
ATOM     26  C   UNL     1       0.063   1.034   2.044  0.00  0.00    +0.002 A 
ATOM     27  C   UNL     1       0.594   1.206   3.309  0.00  0.00    +0.033 A 
ATOM     28  C   UNL     1      -0.167   0.909   4.424  0.00  0.00    +0.126 A 
ATOM     29  C   UNL     1      -1.457   0.435   4.274  0.00  0.00    +0.034 A 
BRANCH  28  30
ATOM     30  N   UNL     1       0.401   1.093   5.779  0.00  0.00    +0.056 N 
ATOM     31  O   UNL     1       1.540   1.506   5.910  0.00  0.00    -0.126 OA
ATOM     32  O   UNL     1      -0.271   0.837   6.761  0.00  0.00    -0.126 OA
ENDBRANCH  28  30
ENDBRANCH  23  24
ENDBRANCH   6  23
TORSDOF 6
