REMARK  Name = ZINC58929302
REMARK  3 active torsions:
REMARK  status: ('A' for Active; 'I' for Inactive)
REMARK    1  A    between atoms: C_1  and  C_2
REMARK    2  A    between atoms: C_5  and  C_8
REMARK    3  A    between atoms: C_21  and  N_24
REMARK                            x       y       z     vdW  Elec       q    Type
REMARK                         _______ _______ _______ _____ _____    ______ ____
ROOT
ATOM      1  C   UNL     1       0.474  -4.790  -0.526  0.00  0.00    +0.105 C 
ATOM      2  C   UNL     1      -0.972  -5.226  -0.421  0.00  0.00    +0.029 C 
ATOM      3  C   UNL     1      -1.469  -5.597  -1.847  0.00  0.00    +0.033 C 
ATOM      4  C   UNL     1      -1.213  -7.084  -1.953  0.00  0.00    -0.030 C 
ATOM      5  C   UNL     1      -1.041  -7.615  -0.769  0.00  0.00    -0.023 C 
ATOM      6  C   UNL     1      -1.164  -6.550   0.316  0.00  0.00    +0.049 C 
ATOM      7  C   UNL     1      -0.224  -6.768   1.452  0.00  0.00    -0.017 A 
ATOM      8  C   UNL     1      -0.511  -7.755   2.385  0.00  0.00    +0.006 A 
ATOM      9  C   UNL     1       0.332  -7.975   3.455  0.00  0.00    +0.003 A 
ATOM     10  C   UNL     1       1.473  -7.209   3.611  0.00  0.00    +0.034 A 
ATOM     11  C   UNL     1       1.771  -6.228   2.688  0.00  0.00    +0.147 A 
ATOM     12  C   UNL     1       0.928  -6.011   1.603  0.00  0.00    +0.062 A 
ATOM     13  N   UNL     1       1.262  -5.060   0.656  0.00  0.00    -0.335 N 
ATOM     14  H   UNL     1       2.061  -4.532   0.808  0.00  0.00    +0.147 HD
ENDROOT
BRANCH   1  19
ATOM     15  C   UNL     1       0.603   0.895  -1.560  0.00  0.00    +0.044 C 
ATOM     16  C   UNL     1       0.570  -0.588  -1.290  0.00  0.00    -0.050 A 
ATOM     17  C   UNL     1       0.695  -1.483  -2.336  0.00  0.00    +0.004 A 
ATOM     18  C   UNL     1       0.664  -2.843  -2.089  0.00  0.00    +0.006 A 
ATOM     19  C   UNL     1       0.509  -3.307  -0.796  0.00  0.00    -0.027 A 
ATOM     20  C   UNL     1       0.385  -2.412   0.250  0.00  0.00    +0.006 A 
ATOM     21  C   UNL     1       0.420  -1.052   0.003  0.00  0.00    +0.004 A 
ENDBRANCH   1  19
BRANCH  11  22
ATOM     22  N   UNL     1       2.990  -5.405   2.852  0.00  0.00    +0.058 N 
ATOM     23  O   UNL     1       4.009  -5.909   3.264  0.00  0.00    -0.126 OA
ATOM     24  O   UNL     1       2.967  -4.228   2.574  0.00  0.00    -0.126 OA
ENDBRANCH  11  22
TORSDOF 2
