REMARK  Name = ZINC21931572
REMARK  6 active torsions:
REMARK  status: ('A' for Active; 'I' for Inactive)
REMARK    1  A    between atoms: C_1  and  C_2
REMARK    2  A    between atoms: C_3  and  C_8
REMARK    3  A    between atoms: C_4  and  C_7
REMARK    4  A    between atoms: C_8  and  N_9
REMARK    5  A    between atoms: C_12  and  C_23
REMARK    6  A    between atoms: N_14  and  C_17
REMARK                            x       y       z     vdW  Elec       q    Type
REMARK                         _______ _______ _______ _____ _____    ______ ____
ROOT
ATOM      1  N   UNL     1      -3.024  -0.325  -1.337  0.00  0.00    -0.219 N 
ATOM      2  C   UNL     1      -3.006   0.823  -2.043  0.00  0.00    +0.244 C 
ATOM      3  O   UNL     1      -2.594   1.902  -1.676  0.00  0.00    -0.273 OA
ATOM      4  C   UNL     1      -3.605   0.483  -3.393  0.00  0.00    +0.166 C 
ATOM      5  N   UNL     1      -3.929  -0.950  -3.277  0.00  0.00    -0.243 N 
ATOM      6  C   UNL     1      -3.553  -1.331  -2.043  0.00  0.00    +0.316 C 
ATOM      7  O   UNL     1      -3.680  -2.462  -1.617  0.00  0.00    -0.252 OA
ATOM      8  C   UNL     1      -4.874   1.303  -3.636  0.00  0.00    +0.038 C 
ENDROOT
BRANCH   5   9
ATOM      9  C   UNL     1      -4.514  -1.757  -4.260  0.00  0.00    +0.039 A 
ATOM     10  C   UNL     1      -4.855  -1.216  -5.492  0.00  0.00    +0.023 A 
ATOM     11  C   UNL     1      -5.427  -2.017  -6.462  0.00  0.00    +0.002 A 
ATOM     12  C   UNL     1      -5.671  -3.353  -6.202  0.00  0.00    +0.000 A 
ATOM     13  C   UNL     1      -5.338  -3.893  -4.973  0.00  0.00    +0.002 A 
ATOM     14  C   UNL     1      -4.760  -3.099  -4.001  0.00  0.00    +0.023 A 
ENDBRANCH   5   9
BRANCH   1  15
ATOM     15  C   UNL     1      -2.531  -0.454   0.037  0.00  0.00    +0.158 C 
BRANCH  15  18
ATOM     16  C   UNL     1      -1.251  -3.436  -0.003  0.00  0.00    +0.069 C 
ATOM     17  C   UNL     1      -0.506  -2.126  -0.004  0.00  0.00    +0.085 A 
ATOM     18  C   UNL     1      -1.072  -0.830   0.013  0.00  0.00    +0.035 A 
ATOM     19  C   UNL     1       0.002  -0.004   0.002  0.00  0.00    +0.139 A 
ATOM     20  O   UNL     1       1.086  -0.792  -0.012  0.00  0.00    -0.359 OA
ATOM     21  N   UNL     1       0.785  -1.963  -0.015  0.00  0.00    -0.083 NA
ATOM     22  C   UNL     1      -0.018   1.503   0.010  0.00  0.00    +0.089 C 
ENDBRANCH  15  18
ENDBRANCH   1  15
TORSDOF 3
