REMARK  Name = ZINC45491320
REMARK  4 active torsions:
REMARK  status: ('A' for Active; 'I' for Inactive)
REMARK    1  A    between atoms: C_4  and  N_25
REMARK    2  A    between atoms: C_6  and  C_7
REMARK    3  A    between atoms: C_7  and  N_8
REMARK    4  A    between atoms: C_17  and  C_19
REMARK                            x       y       z     vdW  Elec       q    Type
REMARK                         _______ _______ _______ _____ _____    ______ ____
ROOT
ATOM      1  N   UNL     1      -1.715  -1.036  -1.367  0.00  0.00    -0.295 N 
ATOM      2  C   UNL     1      -2.844  -1.732  -1.607  0.00  0.00    +0.303 C 
ATOM      3  O   UNL     1      -3.458  -2.231  -0.683  0.00  0.00    -0.253 OA
ATOM      4  N   UNL     1      -3.294  -1.873  -2.869  0.00  0.00    -0.283 N 
ATOM      5  C   UNL     1      -2.502  -1.380  -4.005  0.00  0.00    +0.128 C 
ATOM      6  C   UNL     1      -2.274  -2.539  -4.983  0.00  0.00    +0.127 C 
ATOM      7  N   UNL     1      -3.564  -3.190  -5.249  0.00  0.00    -0.296 N 
ATOM      8  C   UNL     1      -4.356  -3.683  -4.114  0.00  0.00    +0.127 C 
ATOM      9  C   UNL     1      -4.582  -2.530  -3.136  0.00  0.00    +0.128 C 
ATOM     10  C   UNL     1      -4.013  -3.332  -6.512  0.00  0.00    +0.245 C 
ATOM     11  O   UNL     1      -3.351  -2.921  -7.441  0.00  0.00    -0.273 OA
ATOM     12  H   UNL     1      -1.187  -0.700  -2.108  0.00  0.00    +0.151 HD
ENDROOT
BRANCH  10  13
ATOM     13  C   UNL     1      -5.338  -4.002  -6.769  0.00  0.00    +0.204 C 
ATOM     14  C   UNL     1      -5.267  -5.484  -6.344  0.00  0.00    +0.043 C 
ATOM     15  C   UNL     1      -6.081  -6.188  -7.465  0.00  0.00    +0.031 C 
ATOM     16  C   UNL     1      -5.723  -5.304  -8.687  0.00  0.00    +0.161 C 
ATOM     17  O   UNL     1      -5.638  -3.965  -8.170  0.00  0.00    -0.367 OA
ENDBRANCH  10  13
BRANCH   1  18
ATOM     18  C   UNL     1      -1.285  -0.789   0.011  0.00  0.00    +0.141 C 
BRANCH  18  24
ATOM     19  C   UNL     1      -0.028   1.392   0.013  0.00  0.00    +0.023 A 
ATOM     20  C   UNL     1       1.164   2.089   0.006  0.00  0.00    +0.084 A 
ATOM     21  N   UNL     1       2.320   1.453  -0.011  0.00  0.00    -0.350 N 
ATOM     22  C   UNL     1       2.385   0.131  -0.021  0.00  0.00    +0.099 A 
ATOM     23  C   UNL     1       1.223  -0.635  -0.015  0.00  0.00    +0.047 A 
ATOM     24  C   UNL     1      -0.004   0.004   0.003  0.00  0.00    -0.026 A 
ATOM     25  H   UNL     1       3.143   1.967  -0.015  0.00  0.00    +0.166 HD
BRANCH  22  26
ATOM     26  N   UNL     1       3.624  -0.498  -0.038  0.00  0.00    -0.317 N 
ATOM     27  C   UNL     1       3.848  -1.952  -0.057  0.00  0.00    +0.106 C 
ATOM     28  C   UNL     1       5.374  -2.181  -0.045  0.00  0.00    +0.020 C 
ATOM     29  C   UNL     1       5.919  -0.856   0.551  0.00  0.00    +0.020 C 
ATOM     30  C   UNL     1       4.933   0.181  -0.046  0.00  0.00    +0.106 C 
ENDBRANCH  22  26
ENDBRANCH  18  24
ENDBRANCH   1  18
TORSDOF 4
