REMARK  Name = ZINC35363891
REMARK  8 active torsions:
REMARK  status: ('A' for Active; 'I' for Inactive)
REMARK    1  A    between atoms: C_1  and  C_2
REMARK    2  A    between atoms: C_16  and  C_19
REMARK    3  A    between atoms: C_19  and  C_20
REMARK    4  A    between atoms: C_19  and  C_21
REMARK    5  A    between atoms: N_24  and  C_27
REMARK    6  A    between atoms: C_27  and  C_28
REMARK    7  A    between atoms: C_31  and  O_34
REMARK    8  A    between atoms: O_34  and  C_35
REMARK                            x       y       z     vdW  Elec       q    Type
REMARK                         _______ _______ _______ _____ _____    ______ ____
ROOT
ATOM      1  C   UNL     1      -0.614   1.156   0.105  0.00  0.00    +0.045 C 
ATOM      2  C   UNL     1      -0.446  -0.341   0.067  0.00  0.00    -0.029 A 
ATOM      3  C   UNL     1      -0.367  -0.993  -1.146  0.00  0.00    +0.005 A 
ATOM      4  C   UNL     1      -0.213  -2.366  -1.192  0.00  0.00    +0.001 A 
ATOM      5  C   UNL     1      -0.137  -3.090  -0.015  0.00  0.00    +0.008 A 
ATOM      6  C   UNL     1      -0.217  -2.444   1.198  0.00  0.00    +0.004 A 
ATOM      7  C   UNL     1      -0.366  -1.061   1.256  0.00  0.00    +0.042 A 
ATOM      8  N   UNL     1      -0.413  -0.636   2.586  0.00  0.00    -0.283 N 
ATOM      9  C   UNL     1      -0.300  -1.662   3.451  0.00  0.00    +0.243 C 
ATOM     10  O   UNL     1      -0.307  -1.592   4.662  0.00  0.00    -0.273 OA
ATOM     11  C   UNL     1      -0.174  -2.912   2.625  0.00  0.00    +0.136 C 
ATOM     12  C   UNL     1       1.134  -3.649   2.938  0.00  0.00    +0.122 C 
ATOM     13  C   UNL     1       0.771  -5.156   2.830  0.00  0.00    +0.107 C 
ATOM     14  C   UNL     1      -0.727  -5.176   2.455  0.00  0.00    +0.070 C 
ATOM     15  N   UNL     1      -1.257  -3.871   2.911  0.00  0.00    -0.295 NA
ATOM     16  C   UNL     1       1.598  -5.631   1.657  0.00  0.00    +0.227 C 
ATOM     17  O   UNL     1       1.617  -6.764   1.226  0.00  0.00    -0.275 OA
ATOM     18  N   UNL     1       2.305  -4.606   1.168  0.00  0.00    -0.237 N 
ATOM     19  C   UNL     1       2.125  -3.433   1.817  0.00  0.00    +0.229 C 
ATOM     20  O   UNL     1       2.663  -2.380   1.551  0.00  0.00    -0.275 OA
ATOM     21  H   UNL     1      -0.516   0.290   2.854  0.00  0.00    +0.155 HD
ATOM     22  H   UNL     1      -1.463  -3.901   3.898  0.00  0.00    +0.124 HD
ENDROOT
BRANCH  14  23
ATOM     23  C   UNL     1      -1.437  -6.335   3.157  0.00  0.00    +0.001 C 
ATOM     24  C   UNL     1      -2.917  -6.335   2.771  0.00  0.00    +0.009 C 
ATOM     25  C   UNL     1      -0.798  -7.658   2.730  0.00  0.00    +0.009 C 
ENDBRANCH  14  23
BRANCH  18  26
ATOM     26  C   UNL     1       3.208  -4.741   0.022  0.00  0.00    +0.151 C 
BRANCH  26  27
ATOM     27  C   UNL     1       4.586  -5.110   0.510  0.00  0.00    -0.029 A 
ATOM     28  C   UNL     1       5.494  -4.117   0.828  0.00  0.00    +0.009 A 
ATOM     29  C   UNL     1       6.757  -4.452   1.275  0.00  0.00    +0.046 A 
ATOM     30  C   UNL     1       7.114  -5.786   1.405  0.00  0.00    +0.120 A 
ATOM     31  C   UNL     1       6.201  -6.781   1.086  0.00  0.00    +0.046 A 
ATOM     32  C   UNL     1       4.937  -6.440   0.645  0.00  0.00    +0.009 A 
BRANCH  30  33
ATOM     33  O   UNL     1       8.357  -6.118   1.844  0.00  0.00    -0.495 OA
ATOM     34  C   UNL     1       8.655  -7.512   1.954  0.00  0.00    +0.277 C 
ENDBRANCH  30  33
ENDBRANCH  26  27
ENDBRANCH  18  26
TORSDOF 4
