REMARK  Name = ZINC35522694
REMARK  10 active torsions:
REMARK  status: ('A' for Active; 'I' for Inactive)
REMARK    1  A    between atoms: C_1  and  C_2
REMARK    2  A    between atoms: C_2  and  C_3
REMARK    3  A    between atoms: C_6  and  C_9
REMARK    4  A    between atoms: N_11  and  C_12
REMARK    5  A    between atoms: N_11  and  C_32
REMARK    6  A    between atoms: C_12  and  C_13
REMARK    7  A    between atoms: C_23  and  C_25
REMARK    8  A    between atoms: C_32  and  C_33
REMARK    9  A    between atoms: C_32  and  C_34
REMARK   10  A    between atoms: C_32  and  C_35
REMARK                            x       y       z     vdW  Elec       q    Type
REMARK                         _______ _______ _______ _____ _____    ______ ____
ROOT
ATOM      1  C   UNL     1       1.957  -0.478  -4.569  0.00  0.00    +0.234 C 
ATOM      2  O   UNL     1       2.268   0.329  -3.719  0.00  0.00    -0.274 OA
ATOM      3  N   UNL     1       1.091  -0.133  -5.542  0.00  0.00    -0.286 N 
ATOM      4  C   UNL     1       0.740  -1.077  -6.614  0.00  0.00    +0.130 C 
ATOM      5  C   UNL     1      -0.750  -1.419  -6.519  0.00  0.00    +0.140 C 
ATOM      6  N   UNL     1      -1.520  -0.183  -6.336  0.00  0.00    -0.347 N 
ATOM      7  C   UNL     1      -2.851  -0.008  -6.558  0.00  0.00    +0.086 A 
ATOM      8  C   UNL     1      -3.165   1.270  -6.261  0.00  0.00    +0.019 A 
ATOM      9  C   UNL     1      -1.980   1.910  -5.841  0.00  0.00    +0.025 A 
ATOM     10  C   UNL     1      -0.994   1.002  -5.900  0.00  0.00    +0.044 A 
ATOM     11  C   UNL     1       0.461   1.201  -5.559  0.00  0.00    +0.156 C 
ENDROOT
BRANCH  11  12
ATOM     12  C   UNL     1       0.587   1.846  -4.203  0.00  0.00    +0.014 A 
ATOM     13  C   UNL     1       0.118   1.192  -3.079  0.00  0.00    +0.008 A 
ATOM     14  C   UNL     1       0.233   1.784  -1.836  0.00  0.00    +0.001 A 
ATOM     15  C   UNL     1       0.818   3.031  -1.714  0.00  0.00    +0.003 A 
ATOM     16  C   UNL     1       1.289   3.687  -2.836  0.00  0.00    +0.039 A 
ATOM     17  C   UNL     1       1.178   3.092  -4.081  0.00  0.00    +0.129 A 
ATOM     18  F   UNL     1       1.642   3.730  -5.178  0.00  0.00    -0.205 F 
ENDBRANCH  11  12
BRANCH   1  19
ATOM     19  C   UNL     1       2.541  -1.868  -4.538  0.00  0.00    +0.204 C 
BRANCH  19  22
ATOM     20  C   UNL     1       2.974  -2.408  -2.202  0.00  0.00    +0.247 C 
ATOM     21  O   UNL     1       2.098  -3.249  -2.156  0.00  0.00    -0.270 OA
ATOM     22  N   UNL     1       3.446  -1.992  -3.394  0.00  0.00    -0.284 N 
BRANCH  20  26
ATOM     23  C   UNL     1       4.544  -0.776   1.392  0.00  0.00    -0.048 A 
ATOM     24  C   UNL     1       3.201  -1.101   1.312  0.00  0.00    +0.004 A 
ATOM     25  C   UNL     1       2.685  -1.631   0.147  0.00  0.00    +0.013 A 
ATOM     26  C   UNL     1       3.520  -1.839  -0.951  0.00  0.00    +0.037 A 
ATOM     27  C   UNL     1       4.874  -1.510  -0.864  0.00  0.00    +0.013 A 
ATOM     28  C   UNL     1       5.376  -0.975   0.305  0.00  0.00    +0.004 A 
BRANCH  23  30
ATOM     29  C   UNL     1       4.990   1.327   2.626  0.00  0.00    +0.009 C 
ATOM     30  C   UNL     1       5.101  -0.198   2.667  0.00  0.00    +0.032 C 
ENDBRANCH  23  30
ENDBRANCH  20  26
BRANCH  22  31
ATOM     31  C   UNL     1       4.866  -1.664  -3.545  0.00  0.00    +0.030 C 
ATOM     32  C   UNL     1       5.716  -2.815  -3.001  0.00  0.00    +0.031 C 
ATOM     33  C   UNL     1       5.186  -1.450  -5.026  0.00  0.00    +0.031 C 
ATOM     34  C   UNL     1       5.180  -0.386  -2.765  0.00  0.00    +0.031 C 
ENDBRANCH  22  31
ENDBRANCH  19  22
ENDBRANCH   1  19
TORSDOF 6
