REMARK  Name = ZINC40008978
REMARK  13 active torsions:
REMARK  status: ('A' for Active; 'I' for Inactive)
REMARK    1  A    between atoms: C_1  and  C_2
REMARK    2  A    between atoms: C_2  and  C_3
REMARK    3  A    between atoms: C_6  and  C_9
REMARK    4  A    between atoms: C_16  and  C_34
REMARK    5  A    between atoms: C_17  and  C_33
REMARK    6  A    between atoms: N_24  and  C_25
REMARK    7  A    between atoms: C_25  and  C_26
REMARK    8  A    between atoms: C_26  and  C_27
REMARK    9  A    between atoms: C_27  and  N_28
REMARK   10  A    between atoms: N_28  and  C_29
REMARK   11  A    between atoms: N_28  and  C_31
REMARK   12  A    between atoms: C_29  and  C_30
REMARK   13  A    between atoms: C_31  and  C_32
REMARK                            x       y       z     vdW  Elec       q    Type
REMARK                         _______ _______ _______ _____ _____    ______ ____
ROOT
ATOM      1  C   UNL     1       3.375  -1.724  -6.213  0.00  0.00    +0.144 C 
ATOM      2  C   UNL     1       4.274  -0.855  -7.029  0.00  0.00    +0.072 A 
ATOM      3  C   UNL     1       3.980   0.269  -7.923  0.00  0.00    +0.199 A 
ATOM      4  O   UNL     1       2.882   0.791  -8.001  0.00  0.00    -0.287 OA
ATOM      5  C   UNL     1       5.149   0.712  -8.725  0.00  0.00    +0.065 A 
ATOM      6  C   UNL     1       4.987   1.633  -9.760  0.00  0.00    +0.019 A 
ATOM      7  C   UNL     1       6.072   2.027 -10.492  0.00  0.00    -0.047 A 
ATOM      8  C   UNL     1       7.330   1.514 -10.209  0.00  0.00    -0.044 A 
ATOM      9  C   UNL     1       7.508   0.605  -9.190  0.00  0.00    +0.050 A 
ATOM     10  C   UNL     1       6.417   0.189  -8.426  0.00  0.00    +0.140 A 
ATOM     11  O   UNL     1       6.617  -0.696  -7.424  0.00  0.00    -0.450 OA
ATOM     12  C   UNL     1       5.557  -1.280  -6.830  0.00  0.00    +0.199 A 
ATOM     13  C   UNL     1       5.527  -2.422  -5.899  0.00  0.00    +0.283 C 
ATOM     14  O   UNL     1       6.504  -3.034  -5.517  0.00  0.00    -0.267 OA
ATOM     15  N   UNL     1       4.255  -2.689  -5.533  0.00  0.00    -0.284 N 
ATOM     16  C   UNL     1       8.516   1.956 -11.027  0.00  0.00    +0.044 C 
ATOM     17  C   UNL     1       5.902   3.022 -11.611  0.00  0.00    +0.044 C 
ENDROOT
BRANCH   1  21
ATOM     18  C   UNL     1       1.266   0.626  -3.336  0.00  0.00    -0.048 A 
ATOM     19  C   UNL     1       0.626   0.203  -4.486  0.00  0.00    +0.004 A 
ATOM     20  C   UNL     1       1.308  -0.557  -5.417  0.00  0.00    +0.006 A 
ATOM     21  C   UNL     1       2.631  -0.894  -5.198  0.00  0.00    -0.022 A 
ATOM     22  C   UNL     1       3.271  -0.470  -4.049  0.00  0.00    +0.006 A 
ATOM     23  C   UNL     1       2.590   0.294  -3.120  0.00  0.00    +0.004 A 
BRANCH  18  25
ATOM     24  C   UNL     1       0.683   2.939  -2.658  0.00  0.00    +0.009 C 
ATOM     25  C   UNL     1       0.522   1.456  -2.321  0.00  0.00    +0.032 C 
ENDBRANCH  18  25
ENDBRANCH   1  21
BRANCH  15  26
ATOM     26  C   UNL     1       3.825  -3.750  -4.619  0.00  0.00    +0.107 C 
BRANCH  26  27
ATOM     27  C   UNL     1       3.543  -5.026  -5.415  0.00  0.00    +0.000 C 
BRANCH  27  28
ATOM     28  C   UNL     1       3.095  -6.134  -4.461  0.00  0.00    -0.077 C 
BRANCH  28  29
ATOM     29  N   UNL     1       2.825  -7.359  -5.226  0.00  0.00    +0.379 N 
ATOM     30  H   UNL     1       2.155  -7.160  -5.954  0.00  0.00    -0.082 HD
BRANCH  29  31
ATOM     31  C   UNL     1       4.073  -7.846  -5.828  0.00  0.00    -0.082 C 
ATOM     32  C   UNL     1       3.769  -9.037  -6.739  0.00  0.00    -0.017 C 
ENDBRANCH  29  31
BRANCH  29  33
ATOM     33  C   UNL     1       2.280  -8.387  -4.328  0.00  0.00    -0.082 C 
ATOM     34  C   UNL     1       0.911  -7.940  -3.812  0.00  0.00    -0.017 C 
ENDBRANCH  29  33
ENDBRANCH  28  29
ENDBRANCH  27  28
ENDBRANCH  26  27
ENDBRANCH  15  26
TORSDOF 8
