REMARK  Name = ZINC36684881
REMARK  7 active torsions:
REMARK  status: ('A' for Active; 'I' for Inactive)
REMARK    1  A    between atoms: C_1  and  C_2
REMARK    2  A    between atoms: N_10  and  C_14
REMARK    3  A    between atoms: C_14  and  C_15
REMARK    4  A    between atoms: N_17  and  C_18
REMARK    5  A    between atoms: C_18  and  C_19
REMARK    6  A    between atoms: C_19  and  C_21
REMARK    7  A    between atoms: C_19  and  N_26
REMARK                            x       y       z     vdW  Elec       q    Type
REMARK                         _______ _______ _______ _____ _____    ______ ____
ROOT
ATOM      1  C   UNL     1       3.615  -6.181  -1.431  0.00  0.00    +0.231 C 
ATOM      2  O   UNL     1       3.478  -5.371  -2.323  0.00  0.00    -0.274 OA
ATOM      3  N   UNL     1       3.998  -7.441  -1.717  0.00  0.00    -0.315 N 
ATOM      4  H   UNL     1       4.107  -8.089  -1.003  0.00  0.00    +0.149 HD
ENDROOT
BRANCH   1   5
ATOM      5  C   UNL     1       3.356  -5.778  -0.002  0.00  0.00    +0.213 C 
BRANCH   5  15
ATOM      6  C   UNL     1       0.642   1.741   0.196  0.00  0.00    +0.007 C 
ATOM      7  C   UNL     1       0.535   0.218   0.099  0.00  0.00    -0.014 C 
ATOM      8  C   UNL     1       1.322  -0.272  -1.118  0.00  0.00    +0.006 C 
ATOM      9  C   UNL     1       1.206  -1.795  -1.220  0.00  0.00    +0.035 C 
ATOM     10  C   UNL     1       1.753  -2.434   0.051  0.00  0.00    +0.113 C 
ATOM     11  C   UNL     1       0.991  -1.938   1.276  0.00  0.00    +0.035 C 
ATOM     12  C   UNL     1       1.108  -0.415   1.369  0.00  0.00    +0.006 C 
ATOM     13  C   UNL     1       1.680  -3.941  -0.042  0.00  0.00    +0.247 C 
ATOM     14  O   UNL     1       0.684  -4.621  -0.167  0.00  0.00    -0.273 OA
ATOM     15  N   UNL     1       2.956  -4.370   0.044  0.00  0.00    -0.215 N 
ATOM     16  C   UNL     1       3.811  -3.348   0.176  0.00  0.00    +0.310 C 
ATOM     17  O   UNL     1       5.016  -3.483   0.272  0.00  0.00    -0.252 OA
ATOM     18  N   UNL     1       3.188  -2.155   0.191  0.00  0.00    -0.285 N 
ATOM     19  H   UNL     1       3.604  -1.283   0.277  0.00  0.00    +0.151 HD
ENDBRANCH   5  15
ENDBRANCH   1   5
BRANCH   3  20
ATOM     20  C   UNL     1       4.250  -7.832  -3.106  0.00  0.00    +0.094 C 
BRANCH  20  21
ATOM     21  C   UNL     1       4.770  -9.271  -3.145  0.00  0.00    -0.013 C 
BRANCH  21  22
ATOM     22  N   UNL     1       5.146  -9.619  -4.521  0.00  0.00    +0.386 N 
ATOM     23  C   UNL     1       6.254  -8.745  -4.986  0.00  0.00    -0.078 C 
ATOM     24  C   UNL     1       6.889  -9.561  -6.140  0.00  0.00    -0.020 C 
ATOM     25  C   UNL     1       6.796 -11.016  -5.626  0.00  0.00    -0.020 C 
ATOM     26  C   UNL     1       5.673 -11.000  -4.572  0.00  0.00    -0.078 C 
ATOM     27  H   UNL     1       4.349  -9.528  -5.134  0.00  0.00    -0.081 HD
ENDBRANCH  21  22
BRANCH  21  28
ATOM     28  C   UNL     1       3.691 -10.208  -2.667  0.00  0.00    -0.022 A 
ATOM     29  C   UNL     1       3.534 -10.778  -1.447  0.00  0.00    +0.009 A 
ATOM     30  C   UNL     1       2.455 -11.615  -1.232  0.00  0.00    +0.008 A 
ATOM     31  C   UNL     1       1.586 -11.841  -2.247  0.00  0.00    +0.045 A 
ATOM     32  S   UNL     1       2.283 -10.850  -3.558  0.00  0.00    -0.103 S 
ENDBRANCH  21  28
ENDBRANCH  20  21
ENDBRANCH   3  20
TORSDOF 6
