REMARK  Name = ZINC34728028
REMARK  6 active torsions:
REMARK  status: ('A' for Active; 'I' for Inactive)
REMARK    1  A    between atoms: C_1  and  C_2
REMARK    2  A    between atoms: C_2  and  N_3
REMARK    3  A    between atoms: N_11  and  C_14
REMARK    4  A    between atoms: C_14  and  C_15
REMARK    5  A    between atoms: C_18  and  C_22
REMARK    6  A    between atoms: C_20  and  C_21
REMARK                            x       y       z     vdW  Elec       q    Type
REMARK                         _______ _______ _______ _____ _____    ______ ____
ROOT
ATOM      1  N   UNL     1      -1.479  -0.540   0.113  0.00  0.00    -0.261 N 
ATOM      2  C   UNL     1      -2.111  -0.795   1.272  0.00  0.00    +0.265 A 
ATOM      3  O   UNL     1      -1.552  -0.593   2.335  0.00  0.00    -0.267 OA
ATOM      4  C   UNL     1      -3.492  -1.323   1.241  0.00  0.00    +0.074 A 
ATOM      5  C   UNL     1      -4.361  -1.670   2.365  0.00  0.00    -0.023 A 
ATOM      6  C   UNL     1      -5.579  -2.132   2.017  0.00  0.00    -0.004 A 
ATOM      7  S   UNL     1      -5.579  -2.110   0.248  0.00  0.00    -0.075 S 
ATOM      8  C   UNL     1      -4.041  -1.518  -0.025  0.00  0.00    +0.097 A 
ATOM      9  N   UNL     1      -3.325  -1.231  -1.159  0.00  0.00    -0.283 N 
ATOM     10  C   UNL     1      -2.071  -0.747  -1.075  0.00  0.00    +0.333 A 
ATOM     11  O   UNL     1      -1.461  -0.496  -2.096  0.00  0.00    -0.246 OA
ATOM     12  C   UNL     1      -6.676  -2.566   2.941  0.00  0.00    +0.043 C 
ATOM     13  C   UNL     1      -6.076  -2.763   4.341  0.00  0.00    +0.005 C 
ATOM     14  C   UNL     1      -5.217  -1.544   4.689  0.00  0.00    +0.005 C 
ATOM     15  C   UNL     1      -3.954  -1.532   3.825  0.00  0.00    +0.037 C 
ENDROOT
BRANCH   1  17
ATOM     16  C   UNL     1      -0.150   1.512   0.180  0.00  0.00    +0.027 C 
ATOM     17  C   UNL     1      -0.111  -0.017   0.146  0.00  0.00    +0.126 C 
ENDBRANCH   1  17
BRANCH   9  18
ATOM     18  C   UNL     1      -3.931  -1.448  -2.474  0.00  0.00    +0.162 C 
BRANCH  18  19
ATOM     19  C   UNL     1      -4.728  -0.231  -2.867  0.00  0.00    -0.025 A 
ATOM     20  C   UNL     1      -4.690   0.904  -2.079  0.00  0.00    +0.006 A 
ATOM     21  C   UNL     1      -5.421   2.021  -2.439  0.00  0.00    +0.004 A 
ATOM     22  C   UNL     1      -6.189   2.003  -3.588  0.00  0.00    -0.050 A 
ATOM     23  C   UNL     1      -6.226   0.869  -4.377  0.00  0.00    +0.007 A 
ATOM     24  C   UNL     1      -5.492  -0.247  -4.019  0.00  0.00    -0.045 A 
ATOM     25  C   UNL     1      -5.528  -1.482  -4.882  0.00  0.00    +0.044 C 
ATOM     26  C   UNL     1      -6.986   3.220  -3.981  0.00  0.00    +0.044 C 
ENDBRANCH  18  19
ENDBRANCH   9  18
TORSDOF 3
