REMARK  Name = ZINC39922538
REMARK  7 active torsions:
REMARK  status: ('A' for Active; 'I' for Inactive)
REMARK    1  A    between atoms: C_1  and  C_2
REMARK    2  A    between atoms: C_2  and  C_23
REMARK    3  A    between atoms: N_3  and  N_4
REMARK    4  A    between atoms: C_5  and  C_7
REMARK    5  A    between atoms: C_10  and  C_13
REMARK    6  A    between atoms: C_26  and  O_29
REMARK    7  A    between atoms: O_29  and  C_30
REMARK                            x       y       z     vdW  Elec       q    Type
REMARK                         _______ _______ _______ _____ _____    ______ ____
ROOT
ATOM      1  N   UNL     1       0.024   0.035   2.339  0.00  0.00    -0.205 N 
ATOM      2  C   UNL     1       0.044  -0.645   3.503  0.00  0.00    +0.263 C 
ATOM      3  O   UNL     1       0.060  -1.858   3.496  0.00  0.00    -0.271 OA
ATOM      4  H   UNL     1       0.011   1.005   2.345  0.00  0.00    +0.177 HD
ENDROOT
BRANCH   2   5
ATOM      5  C   UNL     1       0.046   0.101   4.812  0.00  0.00    +0.240 C 
ATOM      6  C   UNL     1      -1.364   0.511   5.199  0.00  0.00    +0.036 C 
ATOM      7  C   UNL     1      -1.577  -0.123   6.354  0.00  0.00    +0.068 C 
ATOM      8  N   UNL     1      -0.495  -0.851   6.709  0.00  0.00    -0.158 NA
ATOM      9  N   UNL     1       0.453  -0.785   5.916  0.00  0.00    -0.170 NA
BRANCH   7  10
ATOM     10  C   UNL     1      -2.851  -0.038   7.155  0.00  0.00    +0.015 C 
ATOM     11  C   UNL     1      -3.844   0.878   6.437  0.00  0.00    +0.016 C 
ATOM     12  C   UNL     1      -5.138   0.964   7.249  0.00  0.00    -0.010 C 
ATOM     13  C   UNL     1      -5.744  -0.433   7.392  0.00  0.00    +0.007 C 
ATOM     14  C   UNL     1      -4.751  -1.350   8.109  0.00  0.00    -0.010 C 
ATOM     15  C   UNL     1      -3.458  -1.436   7.297  0.00  0.00    +0.016 C 
ATOM     16  C   UNL     1      -4.445  -0.783   9.497  0.00  0.00    +0.007 C 
ATOM     17  C   UNL     1      -3.839   0.615   9.355  0.00  0.00    -0.010 C 
ATOM     18  C   UNL     1      -4.832   1.531   8.637  0.00  0.00    +0.007 C 
ATOM     19  C   UNL     1      -2.545   0.529   8.542  0.00  0.00    +0.016 C 
ENDBRANCH   7  10
ENDBRANCH   2   5
BRANCH   1  22
ATOM     20  C   UNL     1      -0.018   1.503   0.010  0.00  0.00    +0.068 C 
ATOM     21  C   UNL     1       0.002  -0.004   0.002  0.00  0.00    +0.063 C 
ATOM     22  N   UNL     1       0.022  -0.659   1.122  0.00  0.00    -0.184 NA
BRANCH  21  23
ATOM     23  C   UNL     1      -0.000  -0.734  -1.279  0.00  0.00    -0.002 A 
ATOM     24  C   UNL     1      -0.015  -0.031  -2.486  0.00  0.00    +0.013 A 
ATOM     25  C   UNL     1      -0.017  -0.718  -3.681  0.00  0.00    +0.046 A 
ATOM     26  C   UNL     1      -0.004  -2.107  -3.686  0.00  0.00    +0.120 A 
ATOM     27  C   UNL     1       0.010  -2.810  -2.488  0.00  0.00    +0.046 A 
ATOM     28  C   UNL     1       0.019  -2.131  -1.289  0.00  0.00    +0.013 A 
BRANCH  26  29
ATOM     29  O   UNL     1      -0.006  -2.780  -4.866  0.00  0.00    -0.495 OA
ATOM     30  C   UNL     1       0.007  -4.207  -4.799  0.00  0.00    +0.277 C 
ENDBRANCH  26  29
ENDBRANCH  21  23
ENDBRANCH   1  22
TORSDOF 5
