REMARK  Name = ZINC39990713
REMARK  6 active torsions:
REMARK  status: ('A' for Active; 'I' for Inactive)
REMARK    1  A    between atoms: C_1  and  C_2
REMARK    2  A    between atoms: C_9  and  N_14
REMARK    3  A    between atoms: N_14  and  C_15
REMARK    4  A    between atoms: C_15  and  C_17
REMARK    5  A    between atoms: C_15  and  C_23
REMARK    6  A    between atoms: C_23  and  C_25
REMARK                            x       y       z     vdW  Elec       q    Type
REMARK                         _______ _______ _______ _____ _____    ______ ____
ROOT
ATOM      1  C   UNL     1       1.222  -6.589   2.956  0.00  0.00    +0.172 C 
ENDROOT
BRANCH   1   2
ATOM      2  C   UNL     1       2.167  -7.072   1.886  0.00  0.00    -0.020 A 
ATOM      3  C   UNL     1       1.669  -7.556   0.691  0.00  0.00    +0.006 A 
ATOM      4  C   UNL     1       2.536  -7.999  -0.290  0.00  0.00    +0.000 A 
ATOM      5  C   UNL     1       3.901  -7.957  -0.077  0.00  0.00    +0.000 A 
ATOM      6  C   UNL     1       4.399  -7.472   1.117  0.00  0.00    +0.000 A 
ATOM      7  C   UNL     1       3.533  -7.025   2.097  0.00  0.00    +0.006 A 
ENDBRANCH   1   2
BRANCH   1   8
ATOM      8  N   UNL     1       0.118  -5.852   2.336  0.00  0.00    -0.330 N 
ATOM      9  H   UNL     1      -0.714  -6.307   2.132  0.00  0.00    +0.147 HD
BRANCH   8  17
ATOM     10  C   UNL     1      -0.019   1.526   0.010  0.00  0.00    +0.062 C 
ATOM     11  C   UNL     1       0.002  -0.004   0.002  0.00  0.00    +0.256 C 
ATOM     12  C   UNL     1      -1.413  -0.525   0.011  0.00  0.00    +0.258 C 
ATOM     13  O   UNL     1      -2.306   0.131  -0.480  0.00  0.00    -0.271 OA
ATOM     14  N   UNL     1      -1.680  -1.726   0.568  0.00  0.00    -0.279 N 
ATOM     15  C   UNL     1      -0.635  -2.449   1.161  0.00  0.00    +0.077 A 
ATOM     16  C   UNL     1      -0.783  -3.795   1.452  0.00  0.00    +0.050 A 
ATOM     17  C   UNL     1       0.264  -4.493   2.039  0.00  0.00    +0.030 A 
ATOM     18  C   UNL     1       1.455  -3.842   2.333  0.00  0.00    +0.026 A 
ATOM     19  C   UNL     1       1.603  -2.498   2.041  0.00  0.00    +0.049 A 
ATOM     20  C   UNL     1       0.562  -1.799   1.455  0.00  0.00    +0.143 A 
ATOM     21  O   UNL     1       0.695  -0.477   1.160  0.00  0.00    -0.478 OA
ATOM     22  H   UNL     1      -2.582  -2.083   0.559  0.00  0.00    +0.155 HD
ENDBRANCH   8  17
ENDBRANCH   1   8
BRANCH   1  23
ATOM     23  C   UNL     1       0.675  -7.771   3.714  0.00  0.00    +0.186 C 
ATOM     24  O   UNL     1      -0.432  -8.198   3.456  0.00  0.00    -0.290 OA
BRANCH  23  25
ATOM     25  C   UNL     1       1.450  -8.382   4.723  0.00  0.00    +0.025 C 
ATOM     26  C   UNL     1       1.100  -9.470   5.502  0.00  0.00    +0.006 A 
ATOM     27  C   UNL     1      -0.058 -10.283   5.556  0.00  0.00    +0.010 A 
ATOM     28  C   UNL     1      -0.132 -11.305   6.438  0.00  0.00    +0.001 A 
ATOM     29  C   UNL     1       0.911 -11.610   7.328  0.00  0.00    +0.002 A 
ATOM     30  C   UNL     1       2.058 -10.897   7.357  0.00  0.00    +0.026 A 
ATOM     31  C   UNL     1       2.220  -9.766   6.428  0.00  0.00    +0.043 A 
ATOM     32  N   UNL     1       3.199  -8.926   6.243  0.00  0.00    -0.380 N 
ATOM     33  C   UNL     1       2.839  -7.989   5.175  0.00  0.00    +0.152 C 
ATOM     34  H   UNL     1       4.036  -8.923   6.733  0.00  0.00    +0.160 HD
ENDBRANCH  23  25
ENDBRANCH   1  23
TORSDOF 5
