REMARK  Name = ZINC00425604
REMARK  8 active torsions:
REMARK  status: ('A' for Active; 'I' for Inactive)
REMARK    1  A    between atoms: C_1  and  C_2
REMARK    2  A    between atoms: C_5  and  N_9
REMARK    3  A    between atoms: C_6  and  C_8
REMARK    4  A    between atoms: C_14  and  N_18
REMARK    5  A    between atoms: N_18  and  C_19
REMARK    6  A    between atoms: C_19  and  C_20
REMARK    7  A    between atoms: C_19  and  C_21
REMARK    8  A    between atoms: C_19  and  C_22
REMARK                            x       y       z     vdW  Elec       q    Type
REMARK                         _______ _______ _______ _____ _____    ______ ____
ROOT
ATOM      1  N   UNL     1      -1.284   1.918  -0.412  0.00  0.00    -0.214 N 
ATOM      2  C   UNL     1      -1.507   3.258  -0.550  0.00  0.00    +0.168 A 
ATOM      3  C   UNL     1      -2.894   3.417  -0.738  0.00  0.00    +0.079 A 
ATOM      4  C   UNL     1      -3.466   2.126  -0.705  0.00  0.00    +0.148 A 
ATOM      5  N   UNL     1      -2.514   1.256  -0.518  0.00  0.00    -0.172 NA
ATOM      6  C   UNL     1      -3.400   4.720  -0.910  0.00  0.00    +0.133 A 
ATOM      7  N   UNL     1      -2.545   5.737  -0.885  0.00  0.00    -0.220 NA
ATOM      8  C   UNL     1      -1.251   5.539  -0.705  0.00  0.00    +0.225 A 
ATOM      9  N   UNL     1      -0.733   4.341  -0.541  0.00  0.00    -0.216 NA
ENDROOT
BRANCH   1  14
ATOM     10  C   UNL     1       3.759  -0.551   0.409  0.00  0.00    +0.044 C 
ATOM     11  C   UNL     1       2.419   0.105   0.193  0.00  0.00    -0.050 A 
ATOM     12  C   UNL     1       2.349   1.462  -0.064  0.00  0.00    +0.005 A 
ATOM     13  C   UNL     1       1.123   2.066  -0.262  0.00  0.00    +0.028 A 
ATOM     14  C   UNL     1      -0.040   1.309  -0.205  0.00  0.00    +0.071 A 
ATOM     15  C   UNL     1       0.034  -0.053   0.052  0.00  0.00    -0.025 A 
ATOM     16  C   UNL     1       1.263  -0.651   0.250  0.00  0.00    +0.008 A 
ATOM     17  C   UNL     1      -1.225  -0.879   0.115  0.00  0.00    +0.046 C 
ENDBRANCH   1  14
BRANCH   6  18
ATOM     18  N   UNL     1      -4.751   4.935  -1.098  0.00  0.00    -0.324 N 
ATOM     19  H   UNL     1      -5.364   4.184  -1.114  0.00  0.00    +0.148 HD
BRANCH  18  20
ATOM     20  C   UNL     1      -5.257   6.299  -1.274  0.00  0.00    +0.025 C 
ATOM     21  C   UNL     1      -4.606   6.929  -2.507  0.00  0.00    +0.031 C 
ATOM     22  C   UNL     1      -6.775   6.258  -1.463  0.00  0.00    +0.031 C 
ATOM     23  C   UNL     1      -4.919   7.132  -0.037  0.00  0.00    +0.031 C 
ENDBRANCH  18  20
ENDBRANCH   6  18
TORSDOF 3
