REMARK  Name = ZINC15305430
REMARK  3 active torsions:
REMARK  status: ('A' for Active; 'I' for Inactive)
REMARK    1  A    between atoms: C_1  and  C_2
REMARK    2  A    between atoms: C_5  and  N_8
REMARK    3  A    between atoms: C_11  and  C_28
REMARK                            x       y       z     vdW  Elec       q    Type
REMARK                         _______ _______ _______ _____ _____    ______ ____
ROOT
ATOM      1  N   UNL     1       3.566   2.132  -0.072  0.00  0.00    -0.209 N 
ATOM      2  C   UNL     1       3.529   3.478  -0.157  0.00  0.00    +0.230 C 
ATOM      3  O   UNL     1       2.476   4.059  -0.221  0.00  0.00    -0.275 OA
ATOM      4  C   UNL     1       4.832   4.231  -0.173  0.00  0.00    +0.082 C 
ATOM      5  C   UNL     1       5.793   3.534   0.779  0.00  0.00    +0.057 C 
ATOM      6  C   UNL     1       5.258   3.318   2.165  0.00  0.00    +0.000 A 
ATOM      7  C   UNL     1       4.224   4.051   2.702  0.00  0.00    +0.007 A 
ATOM      8  C   UNL     1       3.808   3.852   4.009  0.00  0.00    +0.001 A 
ATOM      9  C   UNL     1       4.410   2.885   4.788  0.00  0.00    +0.004 A 
ATOM     10  C   UNL     1       5.409   2.104   4.247  0.00  0.00    +0.046 A 
ATOM     11  C   UNL     1       5.824   2.300   2.934  0.00  0.00    +0.135 A 
ATOM     12  O   UNL     1       6.746   1.454   2.424  0.00  0.00    -0.425 OA
ATOM     13  C   UNL     1       6.944   1.368   1.103  0.00  0.00    +0.325 C 
ATOM     14  O   UNL     1       7.839   0.669   0.664  0.00  0.00    -0.250 OA
ATOM     15  C   UNL     1       6.048   2.140   0.164  0.00  0.00    +0.193 C 
ATOM     16  C   UNL     1       4.713   1.446   0.054  0.00  0.00    +0.241 C 
ATOM     17  O   UNL     1       4.673   0.237   0.091  0.00  0.00    -0.274 OA
ATOM     18  C   UNL     1       4.675   5.710   0.108  0.00  0.00    +0.018 C 
ENDROOT
BRANCH   1  23
ATOM     19  C   UNL     1      -1.329  -0.733  -0.225  0.00  0.00    +0.044 C 
ATOM     20  C   UNL     1      -0.029   0.028  -0.185  0.00  0.00    -0.050 A 
ATOM     21  C   UNL     1       0.427   0.675  -1.318  0.00  0.00    +0.005 A 
ATOM     22  C   UNL     1       1.619   1.373  -1.284  0.00  0.00    +0.024 A 
ATOM     23  C   UNL     1       2.358   1.425  -0.110  0.00  0.00    +0.044 A 
ATOM     24  C   UNL     1       1.897   0.774   1.026  0.00  0.00    +0.024 A 
ATOM     25  C   UNL     1       0.705   0.077   0.986  0.00  0.00    +0.005 A 
ENDBRANCH   1  23
TORSDOF 1
