REMARK  Name = ZINC16665937
REMARK  6 active torsions:
REMARK  status: ('A' for Active; 'I' for Inactive)
REMARK    1  A    between atoms: C_1  and  C_2
REMARK    2  A    between atoms: C_2  and  C_21
REMARK    3  A    between atoms: N_5  and  C_9
REMARK    4  A    between atoms: C_9  and  C_10
REMARK    5  A    between atoms: N_12  and  C_13
REMARK    6  A    between atoms: C_14  and  C_18
REMARK                            x       y       z     vdW  Elec       q    Type
REMARK                         _______ _______ _______ _____ _____    ______ ____
ROOT
ATOM      1  C   UNL     1      -1.576   8.177  -1.051  0.00  0.00    +0.047 C 
ATOM      2  C   UNL     1      -0.152   8.488  -0.586  0.00  0.00    +0.135 C 
ATOM      3  C   UNL     1       0.818   7.434  -1.081  0.00  0.00    +0.251 C 
ATOM      4  O   UNL     1       1.073   7.157  -2.234  0.00  0.00    -0.272 OA
ATOM      5  N   UNL     1       1.336   6.866   0.025  0.00  0.00    -0.215 N 
ATOM      6  C   UNL     1       0.840   7.415   1.140  0.00  0.00    +0.310 C 
ATOM      7  O   UNL     1       1.159   7.073   2.262  0.00  0.00    -0.252 OA
ATOM      8  N   UNL     1      -0.053   8.388   0.881  0.00  0.00    -0.281 N 
ATOM      9  H   UNL     1      -0.536   8.919   1.532  0.00  0.00    +0.152 HD
ENDROOT
BRANCH   2  10
ATOM     10  C   UNL     1       0.270   9.857  -1.053  0.00  0.00    -0.015 A 
ATOM     11  C   UNL     1       0.872  10.011  -2.288  0.00  0.00    +0.006 A 
ATOM     12  C   UNL     1       1.257  11.267  -2.715  0.00  0.00    +0.004 A 
ATOM     13  C   UNL     1       1.043  12.373  -1.909  0.00  0.00    -0.044 A 
ATOM     14  C   UNL     1       0.442  12.219  -0.674  0.00  0.00    -0.044 A 
ATOM     15  C   UNL     1       0.050  10.960  -0.251  0.00  0.00    +0.010 A 
ATOM     16  C   UNL     1       0.321  13.565   0.008  0.00  0.00    +0.036 C 
ATOM     17  C   UNL     1       1.301  14.489  -0.745  0.00  0.00    +0.009 C 
ATOM     18  C   UNL     1       1.368  13.833  -2.141  0.00  0.00    +0.036 C 
ENDBRANCH   2  10
BRANCH   5  19
ATOM     19  C   UNL     1       2.326   5.787   0.010  0.00  0.00    +0.214 C 
BRANCH  19  20
ATOM     20  C   UNL     1       1.618   4.456   0.010  0.00  0.00    +0.236 C 
ATOM     21  O   UNL     1       0.406   4.414   0.022  0.00  0.00    -0.274 OA
ATOM     22  N   UNL     1       2.332   3.313  -0.003  0.00  0.00    -0.278 N 
ATOM     23  H   UNL     1       3.302   3.347  -0.012  0.00  0.00    +0.155 HD
BRANCH  22  24
ATOM     24  C   UNL     1       1.681   2.089  -0.003  0.00  0.00    +0.084 A 
ATOM     25  C   UNL     1       2.237   0.815  -0.015  0.00  0.00    +0.065 A 
ATOM     26  C   UNL     1       1.315  -0.296  -0.012  0.00  0.00    +0.022 A 
ATOM     27  C   UNL     1       0.002  -0.004   0.002  0.00  0.00    +0.048 A 
ATOM     28  S   UNL     1      -0.022   1.776   0.012  0.00  0.00    -0.081 S 
BRANCH  25  29
ATOM     29  C   UNL     1       3.689   0.610  -0.030  0.00  0.00    +0.244 C 
ATOM     30  O   UNL     1       4.439   1.568  -0.033  0.00  0.00    -0.270 OA
ATOM     31  N   UNL     1       4.192  -0.640  -0.042  0.00  0.00    -0.325 N 
ATOM     32  H   UNL     1       3.595  -1.404  -0.040  0.00  0.00    +0.145 HD
ATOM     33  H   UNL     1       5.153  -0.776  -0.052  0.00  0.00    +0.145 HD
ENDBRANCH  25  29
ENDBRANCH  22  24
ENDBRANCH  19  20
ENDBRANCH   5  19
TORSDOF 5
