REMARK  Name = ZINC40730635
REMARK  6 active torsions:
REMARK  status: ('A' for Active; 'I' for Inactive)
REMARK    1  A    between atoms: C_1  and  C_2
REMARK    2  A    between atoms: C_3  and  C_18
REMARK    3  A    between atoms: N_5  and  C_8
REMARK    4  A    between atoms: C_6  and  C_7
REMARK    5  A    between atoms: C_9  and  C_16
REMARK    6  A    between atoms: C_16  and  O_17
REMARK                            x       y       z     vdW  Elec       q    Type
REMARK                         _______ _______ _______ _____ _____    ______ ____
ROOT
ATOM      1  C   UNL     1       0.053  -3.233   1.473  0.00  0.00    +0.179 A 
ATOM      2  C   UNL     1       0.074  -4.510   1.038  0.00  0.00    +0.095 A 
ATOM      3  N   UNL     1       0.089  -5.338   2.159  0.00  0.00    -0.293 N 
ATOM      4  C   UNL     1       0.112  -6.686   2.441  0.00  0.00    +0.101 A 
ATOM      5  C   UNL     1       0.120  -7.121   3.700  0.00  0.00    +0.067 A 
ATOM      6  S   UNL     1       0.095  -5.589   4.618  0.00  0.00    -0.058 S 
ATOM      7  C   UNL     1       0.075  -4.481   3.228  0.00  0.00    +0.180 A 
ATOM      8  N   UNL     1       0.059  -3.246   2.817  0.00  0.00    -0.202 NA
ENDROOT
BRANCH   1  13
ATOM      9  C   UNL     1      -0.018   1.503   0.010  0.00  0.00    +0.047 C 
ATOM     10  C   UNL     1       0.002  -0.004   0.002  0.00  0.00    -0.007 A 
ATOM     11  C   UNL     1       0.009  -0.821  -1.133  0.00  0.00    +0.064 A 
ATOM     12  N   UNL     1       0.028  -2.069  -0.740  0.00  0.00    -0.170 NA
ATOM     13  N   UNL     1       0.034  -2.087   0.661  0.00  0.00    -0.217 N 
ATOM     14  C   UNL     1       0.023  -0.806   1.092  0.00  0.00    +0.047 A 
ATOM     15  C   UNL     1       0.031  -0.353   2.529  0.00  0.00    +0.066 C 
ATOM     16  C   UNL     1      -0.005  -0.345  -2.563  0.00  0.00    +0.068 C 
ENDBRANCH   1  13
BRANCH   2  17
ATOM     17  C   UNL     1       0.080  -4.960  -0.401  0.00  0.00    +0.213 C 
BRANCH  17  18
ATOM     18  O   UNL     1      -1.265  -5.125  -0.854  0.00  0.00    -0.389 OA
ATOM     19  H   UNL     1      -1.337  -5.414  -1.773  0.00  0.00    +0.210 HD
ENDBRANCH  17  18
ENDBRANCH   2  17
TORSDOF 3
