REMARK  Name = ZINC17905898
REMARK  5 active torsions:
REMARK  status: ('A' for Active; 'I' for Inactive)
REMARK    1  A    between atoms: C_5  and  C_7
REMARK    2  A    between atoms: N_9  and  C_10
REMARK    3  A    between atoms: C_10  and  C_11
REMARK    4  A    between atoms: C_13  and  N_18
REMARK    5  A    between atoms: C_16  and  O_17
REMARK                            x       y       z     vdW  Elec       q    Type
REMARK                         _______ _______ _______ _____ _____    ______ ____
ROOT
ATOM      1  C   UNL     1       0.122  -4.321  -0.025  0.00  0.00    +0.143 C 
ENDROOT
BRANCH   1   2
ATOM      2  C   UNL     1      -1.289  -4.849  -0.014  0.00  0.00    +0.013 A 
ATOM      3  C   UNL     1      -1.837  -5.380  -1.165  0.00  0.00    +0.041 A 
ATOM      4  C   UNL     1      -3.131  -5.865  -1.156  0.00  0.00    +0.127 A 
ATOM      5  C   UNL     1      -3.881  -5.821   0.005  0.00  0.00    +0.036 A 
ATOM      6  C   UNL     1      -3.337  -5.291   1.159  0.00  0.00    +0.048 A 
ATOM      7  C   UNL     1      -2.036  -4.809   1.154  0.00  0.00    +0.122 A 
BRANCH   4   8
ATOM      8  N   UNL     1      -3.716  -6.433  -2.392  0.00  0.00    +0.056 N 
ATOM      9  O   UNL     1      -3.062  -6.472  -3.408  0.00  0.00    -0.126 OA
ATOM     10  O   UNL     1      -4.848  -6.858  -2.385  0.00  0.00    -0.126 OA
ENDBRANCH   4   8
BRANCH   7  11
ATOM     11  O   UNL     1      -1.497  -4.292   2.290  0.00  0.00    -0.506 OA
ATOM     12  H   UNL     1      -1.643  -3.342   2.397  0.00  0.00    +0.292 HD
ENDBRANCH   7  11
ENDBRANCH   1   2
BRANCH   1  15
ATOM     13  C   UNL     1       1.250  -2.160  -0.023  0.00  0.00    +0.245 C 
ATOM     14  O   UNL     1       2.313  -2.748  -0.037  0.00  0.00    -0.270 OA
ATOM     15  N   UNL     1       0.095  -2.856  -0.015  0.00  0.00    -0.307 N 
ATOM     16  H   UNL     1      -0.754  -2.387  -0.004  0.00  0.00    +0.149 HD
BRANCH  13  21
ATOM     17  C   UNL     1      -0.017   1.375   0.010  0.00  0.00    +0.001 A 
ATOM     18  C   UNL     1       1.170   2.087   0.002  0.00  0.00    +0.001 A 
ATOM     19  C   UNL     1       2.383   1.421  -0.013  0.00  0.00    +0.015 A 
ATOM     20  C   UNL     1       2.416   0.041  -0.021  0.00  0.00    +0.025 A 
ATOM     21  C   UNL     1       1.222  -0.683  -0.014  0.00  0.00    +0.050 A 
ATOM     22  C   UNL     1       0.002  -0.004   0.002  0.00  0.00    +0.014 A 
ATOM     23  I   UNL     1       4.254  -0.965  -0.045  0.00  0.00    -0.043 I 
ENDBRANCH  13  21
ENDBRANCH   1  15
TORSDOF 5
