REMARK  Name = ZINC19234501
REMARK  10 active torsions:
REMARK  status: ('A' for Active; 'I' for Inactive)
REMARK    1  A    between atoms: C_1  and  C_2
REMARK    2  A    between atoms: C_6  and  C_8
REMARK    3  A    between atoms: C_8  and  O_33
REMARK    4  A    between atoms: N_11  and  C_14
REMARK    5  A    between atoms: C_14  and  C_15
REMARK    6  A    between atoms: C_15  and  C_17
REMARK    7  A    between atoms: C_15  and  O_32
REMARK    8  A    between atoms: C_24  and  C_31
REMARK    9  A    between atoms: N_26  and  S_27
REMARK   10  A    between atoms: S_27  and  C_30
REMARK                            x       y       z     vdW  Elec       q    Type
REMARK                         _______ _______ _______ _____ _____    ______ ____
ROOT
ATOM      1  C   UNL     1       1.313   9.308  -0.793  0.00  0.00    -0.042 C 
ENDROOT
BRANCH   1   5
ATOM      2  C   UNL     1       0.213   5.250  -1.571  0.00  0.00    +0.088 C 
ATOM      3  C   UNL     1       1.695   5.625  -1.481  0.00  0.00    +0.021 C 
ATOM      4  C   UNL     1       1.850   7.131  -1.706  0.00  0.00    -0.076 C 
ATOM      5  N   UNL     1       1.078   7.861  -0.693  0.00  0.00    +0.382 N 
ATOM      6  C   UNL     1      -0.355   7.553  -0.792  0.00  0.00    -0.076 C 
ATOM      7  C   UNL     1      -0.575   6.060  -0.538  0.00  0.00    +0.021 C 
ATOM      8  H   UNL     1       1.424   7.529   0.297  0.00  0.00    -0.082 HD
BRANCH   2  14
ATOM      9  C   UNL     1       0.015   0.522  -3.198  0.00  0.00    +0.044 C 
ATOM     10  C   UNL     1      -0.048   1.517  -2.068  0.00  0.00    -0.050 A 
ATOM     11  C   UNL     1      -0.257   1.080  -0.773  0.00  0.00    +0.003 A 
ATOM     12  C   UNL     1      -0.308   1.992   0.264  0.00  0.00    +0.001 A 
ATOM     13  C   UNL     1      -0.157   3.342   0.006  0.00  0.00    +0.006 A 
ATOM     14  C   UNL     1       0.048   3.779  -1.289  0.00  0.00    -0.016 A 
ATOM     15  C   UNL     1       0.100   2.866  -2.327  0.00  0.00    +0.009 A 
ENDBRANCH   2  14
BRANCH   2  16
ATOM     16  O   UNL     1      -0.275   5.543  -2.881  0.00  0.00    -0.384 OA
ATOM     17  H   UNL     1      -0.237   6.574  -3.265  0.00  0.00    +0.211 HD
ENDBRANCH   2  16
ENDBRANCH   1   5
BRANCH   1  18
ATOM     18  C   UNL     1       1.170   9.748  -2.252  0.00  0.00    +0.128 C 
BRANCH  18  19
ATOM     19  C   UNL     1       1.557  11.198  -2.379  0.00  0.00    -0.021 A 
ATOM     20  C   UNL     1       0.656  12.189  -2.034  0.00  0.00    +0.008 A 
ATOM     21  C   UNL     1       1.009  13.517  -2.144  0.00  0.00    +0.025 A 
ATOM     22  C   UNL     1       2.274  13.873  -2.616  0.00  0.00    +0.054 A 
ATOM     23  C   UNL     1       3.168  12.872  -2.964  0.00  0.00    -0.023 A 
ATOM     24  C   UNL     1       2.811  11.542  -2.847  0.00  0.00    +0.011 A 
ATOM     25  C   UNL     1       4.451  13.517  -3.438  0.00  0.00    +0.061 C 
ATOM     26  C   UNL     1       4.190  15.028  -3.321  0.00  0.00    +0.099 C 
ATOM     27  N   UNL     1       2.823  15.142  -2.806  0.00  0.00    -0.204 N 
ATOM     28  C   UNL     1       5.181  15.663  -2.344  0.00  0.00    +0.030 C 
BRANCH  27  29
ATOM     29  S   UNL     1       2.043  16.569  -2.494  0.00  0.00    +0.043 S 
ATOM     30  O   UNL     1       2.659  17.515  -3.357  0.00  0.00    -0.155 OA
ATOM     31  O   UNL     1       0.661  16.263  -2.623  0.00  0.00    -0.155 OA
ATOM     32  C   UNL     1       2.440  16.949  -0.765  0.00  0.00    +0.218 C 
ENDBRANCH  27  29
ENDBRANCH  18  19
BRANCH  18  33
ATOM     33  O   UNL     1      -0.186   9.578  -2.669  0.00  0.00    -0.389 OA
ATOM     34  H   UNL     1      -0.483   9.843  -3.694  0.00  0.00    +0.210 HD
ENDBRANCH  18  33
ENDBRANCH   1  18
TORSDOF 7
