REMARK  Name = ZINC40886079
REMARK  2 active torsions:
REMARK  status: ('A' for Active; 'I' for Inactive)
REMARK    1  A    between atoms: C_3  and  N_10
REMARK    2  A    between atoms: C_5  and  C_8
REMARK                            x       y       z     vdW  Elec       q    Type
REMARK                         _______ _______ _______ _____ _____    ______ ____
ROOT
ATOM      1  C   UNL     1      -0.017   1.384   0.010  0.00  0.00    +0.025 A 
ATOM      2  C   UNL     1       1.191   2.061   0.002  0.00  0.00    +0.049 A 
ATOM      3  C   UNL     1       2.374   1.333  -0.013  0.00  0.00    +0.154 A 
ATOM      4  N   UNL     1       2.351   0.009  -0.020  0.00  0.00    -0.230 NA
ATOM      5  C   UNL     1       1.217  -0.664  -0.013  0.00  0.00    +0.076 A 
ATOM      6  C   UNL     1       0.002  -0.004   0.002  0.00  0.00    +0.064 A 
ATOM      7 CL   UNL     1      -1.484  -0.902   0.012  0.00  0.00    -0.082 Cl
ENDROOT
BRANCH   3   8
ATOM      8  N   UNL     1       3.600   2.004  -0.022  0.00  0.00    -0.221 N 
ATOM      9  C   UNL     1       4.830   1.426  -0.042  0.00  0.00    +0.131 A 
ATOM     10  C   UNL     1       5.749   2.419  -0.044  0.00  0.00    +0.056 A 
ATOM     11  C   UNL     1       5.066   3.640  -0.024  0.00  0.00    +0.150 A 
ATOM     12  N   UNL     1       3.781   3.393  -0.017  0.00  0.00    -0.172 NA
ATOM     13 BR   UNL     1       7.627   2.196  -0.069  0.00  0.00    -0.047 Br
ENDBRANCH   3   8
BRANCH   5  14
ATOM     14  C   UNL     1       1.246  -2.170  -0.022  0.00  0.00    +0.165 C 
ATOM     15 CL   UNL     1       1.274  -2.781   1.674  0.00  0.00    -0.119 Cl
ENDBRANCH   5  14
TORSDOF 2
