REMARK  Name = ZINC02488333
REMARK  3 active torsions:
REMARK  status: ('A' for Active; 'I' for Inactive)
REMARK    1  A    between atoms: C_4  and  N_7
REMARK    2  A    between atoms: C_11  and  C_14
REMARK    3  A    between atoms: N_16  and  C_17
REMARK                            x       y       z     vdW  Elec       q    Type
REMARK                         _______ _______ _______ _____ _____    ______ ____
ROOT
ATOM      1  N   UNL     1      -1.226   2.018   0.230  0.00  0.00    -0.280 N 
ATOM      2  C   UNL     1      -1.175   3.357   0.060  0.00  0.00    +0.038 A 
ATOM      3  C   UNL     1      -2.312   4.064  -0.293  0.00  0.00    +0.038 A 
ATOM      4  C   UNL     1      -3.546   3.402  -0.470  0.00  0.00    +0.031 A 
ATOM      5  C   UNL     1      -3.600   2.026  -0.292  0.00  0.00    +0.102 A 
ATOM      6  C   UNL     1      -2.365   1.325   0.067  0.00  0.00    +0.268 A 
ATOM      7  O   UNL     1      -2.372   0.117   0.222  0.00  0.00    -0.266 OA
ATOM      8  C   UNL     1      -2.250   5.522  -0.491  0.00  0.00    +0.165 C 
ATOM      9  O   UNL     1      -3.174   6.125  -0.996  0.00  0.00    -0.292 OA
ATOM     10  C   UNL     1      -0.996   6.244  -0.046  0.00  0.00    +0.080 C 
ATOM     11  C   UNL     1       0.201   5.382  -0.469  0.00  0.00    +0.014 C 
ATOM     12  C   UNL     1       0.147   4.050   0.273  0.00  0.00    +0.055 C 
ENDROOT
BRANCH   1  16
ATOM     13  C   UNL     1       2.247  -0.032   1.278  0.00  0.00    +0.000 A 
ATOM     14  C   UNL     1       1.551   0.681   2.236  0.00  0.00    +0.002 A 
ATOM     15  C   UNL     1       0.401   1.363   1.892  0.00  0.00    +0.026 A 
ATOM     16  C   UNL     1      -0.057   1.332   0.582  0.00  0.00    +0.050 A 
ATOM     17  C   UNL     1       0.644   0.615  -0.379  0.00  0.00    +0.026 A 
ATOM     18  C   UNL     1       1.794  -0.065  -0.029  0.00  0.00    +0.002 A 
ENDBRANCH   1  16
BRANCH   5  19
ATOM     19  C   UNL     1      -4.863   1.291  -0.466  0.00  0.00    +0.254 C 
ATOM     20  O   UNL     1      -5.854   1.871  -0.868  0.00  0.00    -0.270 OA
ATOM     21  N   UNL     1      -4.922  -0.025  -0.180  0.00  0.00    -0.280 N 
ATOM     22  H   UNL     1      -4.139  -0.481   0.167  0.00  0.00    +0.155 HD
BRANCH  21  23
ATOM     23  C   UNL     1      -6.111  -0.733  -0.384  0.00  0.00    +0.052 A 
ATOM     24  C   UNL     1      -7.319  -0.053  -0.471  0.00  0.00    +0.025 A 
ATOM     25  C   UNL     1      -8.491  -0.754  -0.678  0.00  0.00    +0.002 A 
ATOM     26  C   UNL     1      -8.465  -2.132  -0.786  0.00  0.00    +0.002 A 
ATOM     27  C   UNL     1      -7.265  -2.813  -0.694  0.00  0.00    +0.022 A 
ATOM     28  C   UNL     1      -6.088  -2.118  -0.493  0.00  0.00    +0.062 A 
ATOM     29 CL   UNL     1      -4.582  -2.973  -0.376  0.00  0.00    -0.082 Cl
ENDBRANCH  21  23
ENDBRANCH   5  19
TORSDOF 3
