REMARK  Name = ZINC03355400
REMARK  3 active torsions:
REMARK  status: ('A' for Active; 'I' for Inactive)
REMARK    1  A    between atoms: C_1  and  C_2
REMARK    2  A    between atoms: N_11  and  C_15
REMARK    3  A    between atoms: C_15  and  C_16
REMARK                            x       y       z     vdW  Elec       q    Type
REMARK                         _______ _______ _______ _____ _____    ______ ____
ROOT
ATOM      1  C   UNL     1      -0.759   2.027  -1.229  0.00  0.00    +0.010 C 
ATOM      2  C   UNL     1      -0.019   1.520   0.010  0.00  0.00    +0.018 C 
ATOM      3  C   UNL     1       1.416   2.053  -0.000  0.00  0.00    +0.006 C 
ATOM      4  C   UNL     1       2.163   1.530   1.229  0.00  0.00    +0.000 C 
ATOM      5  C   UNL     1       2.196   0.001   1.193  0.00  0.00    +0.003 C 
ATOM      6  C   UNL     1       0.764  -0.541   1.208  0.00  0.00    +0.035 C 
ATOM      7  C   UNL     1       0.002  -0.004   0.002  0.00  0.00    +0.115 C 
ATOM      8  C   UNL     1       0.615  -0.517  -1.281  0.00  0.00    +0.247 C 
ATOM      9  O   UNL     1       1.742  -0.323  -1.684  0.00  0.00    -0.273 OA
ATOM     10  N   UNL     1      -0.356  -1.235  -1.882  0.00  0.00    -0.220 N 
ATOM     11  C   UNL     1      -1.483  -1.243  -1.160  0.00  0.00    +0.310 C 
ATOM     12  O   UNL     1      -2.496  -1.824  -1.495  0.00  0.00    -0.252 OA
ATOM     13  N   UNL     1      -1.367  -0.536  -0.019  0.00  0.00    -0.285 N 
ATOM     14  H   UNL     1      -2.051  -0.405   0.655  0.00  0.00    +0.151 HD
ENDROOT
BRANCH  10  15
ATOM     15  C   UNL     1      -0.196  -1.922  -3.166  0.00  0.00    +0.156 C 
BRANCH  15  16
ATOM     16  C   UNL     1      -0.585  -0.991  -4.286  0.00  0.00    +0.006 A 
ATOM     17  C   UNL     1      -1.830  -1.100  -4.875  0.00  0.00    +0.008 A 
ATOM     18  C   UNL     1      -2.189  -0.242  -5.898  0.00  0.00    +0.000 A 
ATOM     19  C   UNL     1      -1.298   0.718  -6.340  0.00  0.00    +0.003 A 
ATOM     20  C   UNL     1      -0.051   0.826  -5.757  0.00  0.00    +0.038 A 
ATOM     21  C   UNL     1       0.308  -0.029  -4.728  0.00  0.00    +0.128 A 
ATOM     22  F   UNL     1       1.528   0.074  -4.157  0.00  0.00    -0.205 F 
ENDBRANCH  15  16
ENDBRANCH  10  15
TORSDOF 2
