REMARK  Name = ZINC45036370
REMARK  8 active torsions:
REMARK  status: ('A' for Active; 'I' for Inactive)
REMARK    1  A    between atoms: C_1  and  C_2
REMARK    2  A    between atoms: C_9  and  C_11
REMARK    3  A    between atoms: C_11  and  N_12
REMARK    4  A    between atoms: N_20  and  C_21
REMARK    5  A    between atoms: C_21  and  C_23
REMARK    6  A    between atoms: C_21  and  C_24
REMARK    7  A    between atoms: C_24  and  C_25
REMARK    8  A    between atoms: C_25  and  C_26
REMARK                            x       y       z     vdW  Elec       q    Type
REMARK                         _______ _______ _______ _____ _____    ______ ____
ROOT
ATOM      1  N   UNL     1       3.049   0.970   3.677  0.00  0.00    -0.291 NA
ATOM      2  C   UNL     1       3.951   1.698   2.775  0.00  0.00    +0.104 C 
ATOM      3  C   UNL     1       4.451   2.968   3.472  0.00  0.00    +0.124 C 
ATOM      4  N   UNL     1       5.039   2.589   4.766  0.00  0.00    -0.283 N 
ATOM      5  C   UNL     1       4.245   1.742   5.670  0.00  0.00    +0.124 C 
ATOM      6  C   UNL     1       3.753   0.521   4.886  0.00  0.00    +0.104 C 
ATOM      7  C   UNL     1       6.271   3.007   5.115  0.00  0.00    +0.302 C 
ATOM      8  O   UNL     1       6.779   2.609   6.146  0.00  0.00    -0.253 OA
ATOM      9  N   UNL     1       6.941   3.867   4.322  0.00  0.00    -0.297 N 
ATOM     10  H   UNL     1       6.567   4.129   3.466  0.00  0.00    +0.151 HD
ENDROOT
BRANCH   9  11
ATOM     11  C   UNL     1       8.233   4.406   4.753  0.00  0.00    +0.072 C 
ATOM     12  C   UNL     1       9.346   3.424   4.379  0.00  0.00    +0.028 C 
BRANCH  11  13
ATOM     13  C   UNL     1       8.483   5.747   4.060  0.00  0.00    +0.030 C 
BRANCH  13  14
ATOM     14  C   UNL     1       7.443   6.766   4.530  0.00  0.00    +0.076 C 
BRANCH  14  15
ATOM     15  C   UNL     1       7.689   8.086   3.848  0.00  0.00    +0.105 A 
ATOM     16  C   UNL     1       7.152   8.480   2.679  0.00  0.00    +0.044 A 
ATOM     17  C   UNL     1       7.650   9.777   2.415  0.00  0.00    +0.041 A 
ATOM     18  C   UNL     1       8.461  10.098   3.439  0.00  0.00    +0.195 A 
ATOM     19  O   UNL     1       8.476   9.073   4.306  0.00  0.00    -0.468 OA
ENDBRANCH  14  15
ENDBRANCH  13  14
ENDBRANCH  11  13
ENDBRANCH   9  11
BRANCH   1  20
ATOM     20  C   UNL     1       2.414  -0.161   2.987  0.00  0.00    +0.180 C 
BRANCH  20  28
ATOM     21  C   UNL     1      -0.017   1.511   0.011  0.00  0.00    +0.028 C 
ATOM     22  C   UNL     1       0.006  -0.019   0.005  0.00  0.00    +0.073 C 
ATOM     23  C   UNL     1      -1.422  -0.555   0.150  0.00  0.00    +0.022 C 
ATOM     24  C   UNL     1      -1.379  -2.079   0.284  0.00  0.00    +0.003 C 
ATOM     25  C   UNL     1      -0.590  -2.461   1.538  0.00  0.00    +0.019 C 
ATOM     26  C   UNL     1       0.847  -1.947   1.408  0.00  0.00    +0.108 C 
ATOM     27  N   UNL     1       0.813  -0.504   1.133  0.00  0.00    -0.298 N 
ATOM     28  C   UNL     1       1.506   0.359   1.903  0.00  0.00    +0.230 C 
ATOM     29  O   UNL     1       1.398   1.553   1.722  0.00  0.00    -0.274 OA
ENDBRANCH  20  28
ENDBRANCH   1  20
TORSDOF 6
