REMARK  Name = ZINC02693294
REMARK  4 active torsions:
REMARK  status: ('A' for Active; 'I' for Inactive)
REMARK    1  A    between atoms: C_4  and  C_7
REMARK    2  A    between atoms: C_7  and  N_8
REMARK    3  A    between atoms: C_19  and  S_22
REMARK    4  A    between atoms: S_22  and  C_25
REMARK                            x       y       z     vdW  Elec       q    Type
REMARK                         _______ _______ _______ _____ _____    ______ ____
ROOT
ATOM      1  N   UNL     1       2.700   2.680  -4.704  0.00  0.00    -0.324 N 
ATOM      2  C   UNL     1       3.021   2.773  -3.365  0.00  0.00    +0.131 A 
ATOM      3  C   UNL     1       4.364   3.205  -2.948  0.00  0.00    +0.040 A 
ATOM      4  C   UNL     1       5.350   3.532  -3.878  0.00  0.00    +0.013 A 
ATOM      5  C   UNL     1       6.593   3.930  -3.438  0.00  0.00    +0.001 A 
ATOM      6  C   UNL     1       6.867   4.009  -2.080  0.00  0.00    +0.002 A 
ATOM      7  C   UNL     1       5.901   3.688  -1.149  0.00  0.00    +0.028 A 
ATOM      8  C   UNL     1       4.643   3.284  -1.572  0.00  0.00    +0.080 A 
ATOM      9  N   UNL     1       3.643   2.952  -0.676  0.00  0.00    -0.192 N 
ATOM     10  C   UNL     1       2.412   2.557  -1.131  0.00  0.00    +0.204 A 
ATOM     11  N   UNL     1       2.131   2.477  -2.443  0.00  0.00    -0.209 NA
ATOM     12  C   UNL     1       1.654   2.302  -0.001  0.00  0.00    +0.249 A 
ATOM     13  N   UNL     1       2.400   2.541   1.071  0.00  0.00    -0.108 NA
ATOM     14  N   UNL     1       3.580   2.920   0.723  0.00  0.00    -0.057 NA
ATOM     15  H   UNL     1       3.362   2.900  -5.378  0.00  0.00    +0.148 HD
ENDROOT
BRANCH  12  16
ATOM     16  S   UNL     1      -0.022   1.758   0.012  0.00  0.00    +0.047 S 
ATOM     17  O   UNL     1      -0.590   2.163  -1.226  0.00  0.00    -0.163 OA
ATOM     18  O   UNL     1      -0.566   2.150   1.264  0.00  0.00    -0.163 OA
BRANCH  16  19
ATOM     19  C   UNL     1       0.002  -0.004   0.002  0.00  0.00    +0.096 A 
ATOM     20  C   UNL     1      -0.006  -0.689  -1.199  0.00  0.00    +0.029 A 
ATOM     21  C   UNL     1       0.019  -2.071  -1.207  0.00  0.00    +0.022 A 
ATOM     22  C   UNL     1       0.040  -2.769  -0.013  0.00  0.00    +0.041 A 
ATOM     23  C   UNL     1       0.042  -2.083   1.188  0.00  0.00    +0.022 A 
ATOM     24  C   UNL     1       0.023  -0.701   1.196  0.00  0.00    +0.029 A 
ATOM     25 CL   UNL     1       0.064  -4.505  -0.023  0.00  0.00    -0.084 Cl
ENDBRANCH  16  19
ENDBRANCH  12  16
BRANCH   1  26
ATOM     26  C   UNL     1       1.360   2.249  -5.108  0.00  0.00    +0.138 C 
BRANCH  26  30
ATOM     27  C   UNL     1       1.103   2.202  -9.371  0.00  0.00    +0.000 A 
ATOM     28  C   UNL     1       1.513   1.071  -8.691  0.00  0.00    +0.000 A 
ATOM     29  C   UNL     1       1.597   1.086  -7.311  0.00  0.00    +0.005 A 
ATOM     30  C   UNL     1       1.269   2.232  -6.612  0.00  0.00    -0.030 A 
ATOM     31  C   UNL     1       0.853   3.362  -7.292  0.00  0.00    +0.005 A 
ATOM     32  C   UNL     1       0.775   3.348  -8.672  0.00  0.00    +0.000 A 
ENDBRANCH  26  30
ENDBRANCH   1  26
TORSDOF 4
