REMARK  Name = ZINC18023505
REMARK  5 active torsions:
REMARK  status: ('A' for Active; 'I' for Inactive)
REMARK    1  A    between atoms: C_1  and  C_2
REMARK    2  A    between atoms: N_10  and  N_14
REMARK    3  A    between atoms: C_15  and  C_17
REMARK    4  A    between atoms: C_20  and  O_23
REMARK    5  A    between atoms: O_23  and  C_24
REMARK                            x       y       z     vdW  Elec       q    Type
REMARK                         _______ _______ _______ _____ _____    ______ ____
ROOT
ATOM      1  N   UNL     1       0.050   1.267   0.022  0.00  0.00    -0.220 N 
ATOM      2  C   UNL     1       0.046  -0.080  -0.040  0.00  0.00    +0.261 C 
ATOM      3  O   UNL     1       1.096  -0.688  -0.113  0.00  0.00    -0.269 OA
ATOM      4  H   UNL     1      -0.787   1.752   0.076  0.00  0.00    +0.174 HD
ENDROOT
BRANCH   1  14
ATOM      5  C   UNL     1       6.814   5.368  -0.629  0.00  0.00    +0.007 C 
ATOM      6  C   UNL     1       5.478   4.788  -1.097  0.00  0.00    -0.014 C 
ATOM      7  C   UNL     1       5.524   3.261  -1.003  0.00  0.00    +0.006 C 
ATOM      8  C   UNL     1       4.191   2.681  -1.483  0.00  0.00    +0.035 C 
ATOM      9  C   UNL     1       3.057   3.226  -0.622  0.00  0.00    +0.114 C 
ATOM     10  C   UNL     1       3.014   4.749  -0.687  0.00  0.00    +0.035 C 
ATOM     11  C   UNL     1       4.351   5.321  -0.210  0.00  0.00    +0.006 C 
ATOM     12  C   UNL     1       1.734   2.643  -1.064  0.00  0.00    +0.263 C 
ATOM     13  O   UNL     1       1.206   2.759  -2.149  0.00  0.00    -0.271 OA
ATOM     14  N   UNL     1       1.265   1.965   0.004  0.00  0.00    -0.137 N 
ATOM     15  C   UNL     1       2.102   2.046   1.046  0.00  0.00    +0.326 C 
ATOM     16  O   UNL     1       1.894   1.521   2.122  0.00  0.00    -0.251 OA
ATOM     17  N   UNL     1       3.200   2.773   0.767  0.00  0.00    -0.284 N 
ATOM     18  H   UNL     1       3.939   2.963   1.367  0.00  0.00    +0.151 HD
ENDBRANCH   1  14
BRANCH   2  19
ATOM     19  C   UNL     1      -1.234  -0.815  -0.021  0.00  0.00    +0.038 A 
ATOM     20  C   UNL     1      -2.441  -0.117   0.068  0.00  0.00    +0.017 A 
ATOM     21  C   UNL     1      -3.633  -0.807   0.080  0.00  0.00    +0.047 A 
ATOM     22  C   UNL     1      -3.636  -2.196   0.016  0.00  0.00    +0.128 A 
ATOM     23  C   UNL     1      -2.436  -2.893  -0.067  0.00  0.00    +0.047 A 
ATOM     24  C   UNL     1      -1.240  -2.211  -0.086  0.00  0.00    +0.017 A 
BRANCH  22  25
ATOM     25  O   UNL     1      -4.812  -2.872   0.034  0.00  0.00    -0.456 OA
BRANCH  25  26
ATOM     26  C   UNL     1      -5.090  -3.640   1.120  0.00  0.00    +0.128 A 
ATOM     27  C   UNL     1      -4.243  -3.622   2.219  0.00  0.00    +0.046 A 
ATOM     28  C   UNL     1      -4.530  -4.399   3.324  0.00  0.00    +0.004 A 
ATOM     29  C   UNL     1      -5.655  -5.204   3.331  0.00  0.00    +0.000 A 
ATOM     30  C   UNL     1      -6.498  -5.228   2.235  0.00  0.00    +0.004 A 
ATOM     31  C   UNL     1      -6.218  -4.447   1.130  0.00  0.00    +0.046 A 
ENDBRANCH  25  26
ENDBRANCH  22  25
ENDBRANCH   2  19
TORSDOF 4
