REMARK  Name = ZINC34762264
REMARK  12 active torsions:
REMARK  status: ('A' for Active; 'I' for Inactive)
REMARK    1  A    between atoms: C_1  and  C_2
REMARK    2  A    between atoms: C_2  and  C_3
REMARK    3  A    between atoms: C_4  and  C_29
REMARK    4  A    between atoms: C_8  and  N_19
REMARK    5  A    between atoms: C_10  and  S_12
REMARK    6  A    between atoms: S_12  and  C_13
REMARK    7  A    between atoms: C_13  and  C_14
REMARK    8  A    between atoms: N_16  and  C_17
REMARK    9  A    between atoms: N_16  and  C_18
REMARK   10  A    between atoms: N_22  and  C_25
REMARK   11  A    between atoms: C_25  and  C_26
REMARK   12  A    between atoms: C_26  and  C_28
REMARK                            x       y       z     vdW  Elec       q    Type
REMARK                         _______ _______ _______ _____ _____    ______ ____
ROOT
ATOM      1  C   UNL     1       0.895  -1.051  -1.308  0.00  0.00    -0.025 A 
ATOM      2  C   UNL     1       0.174  -1.312  -2.408  0.00  0.00    -0.007 A 
ATOM      3  S   UNL     1       1.384  -1.933  -3.561  0.00  0.00    -0.073 S 
ATOM      4  C   UNL     1       2.826  -1.824  -2.534  0.00  0.00    +0.115 A 
ATOM      5  C   UNL     1       2.326  -1.302  -1.321  0.00  0.00    +0.051 A 
ATOM      6  C   UNL     1       3.292  -1.103  -0.296  0.00  0.00    +0.134 A 
ATOM      7  N   UNL     1       4.558  -1.405  -0.531  0.00  0.00    -0.206 NA
ATOM      8  C   UNL     1       4.962  -1.890  -1.699  0.00  0.00    +0.191 A 
ATOM      9  N   UNL     1       4.105  -2.105  -2.688  0.00  0.00    -0.214 NA
ATOM     10  C   UNL     1      -1.306  -1.126  -2.620  0.00  0.00    +0.052 C 
ENDROOT
BRANCH   6  11
ATOM     11  N   UNL     1       2.911  -0.600   0.935  0.00  0.00    -0.318 N 
ATOM     12  C   UNL     1       2.539  -1.499   2.038  0.00  0.00    +0.088 C 
ATOM     13  C   UNL     1       3.326  -1.087   3.287  0.00  0.00    -0.059 C 
ATOM     14  N   UNL     1       3.097   0.337   3.562  0.00  0.00    +0.384 N 
ATOM     15  C   UNL     1       3.639   1.151   2.467  0.00  0.00    -0.059 C 
ATOM     16  C   UNL     1       2.872   0.851   1.179  0.00  0.00    +0.088 C 
ATOM     17  H   UNL     1       2.106   0.506   3.647  0.00  0.00    -0.081 HD
BRANCH  14  18
ATOM     18  C   UNL     1       3.762   0.704   4.819  0.00  0.00    -0.048 C 
BRANCH  18  19
ATOM     19  C   UNL     1       3.098  -0.011   5.967  0.00  0.00    -0.096 C 
ATOM     20  C   UNL     1       3.592  -1.141   6.409  0.00  0.00    +0.005 C 
ATOM     21  C   UNL     1       1.864   0.573   6.605  0.00  0.00    +0.036 C 
ENDBRANCH  18  19
ENDBRANCH  14  18
ENDBRANCH   6  11
BRANCH   1  23
ATOM     22  C   UNL     1       0.097   1.022  -0.205  0.00  0.00    +0.009 C 
ATOM     23  C   UNL     1       0.229  -0.497  -0.075  0.00  0.00    +0.033 C 
ENDBRANCH   1  23
BRANCH   8  24
ATOM     24  S   UNL     1       6.667  -2.268  -1.935  0.00  0.00    -0.077 S 
BRANCH  24  25
ATOM     25  C   UNL     1       6.747  -2.888  -3.638  0.00  0.00    +0.173 C 
BRANCH  25  26
ATOM     26  C   UNL     1       8.171  -3.252  -3.973  0.00  0.00    +0.225 C 
ATOM     27  O   UNL     1       9.045  -3.108  -3.144  0.00  0.00    -0.275 OA
ATOM     28  N   UNL     1       8.473  -3.738  -5.193  0.00  0.00    -0.307 N 
ATOM     29  C   UNL     1       9.856  -4.093  -5.519  0.00  0.00    +0.131 C 
ATOM     30  C   UNL     1       7.417  -3.912  -6.194  0.00  0.00    +0.131 C 
ENDBRANCH  25  26
ENDBRANCH  24  25
ENDBRANCH   8  24
TORSDOF 7
