REMARK  Name = ZINC33193778
REMARK  2 active torsions:
REMARK  status: ('A' for Active; 'I' for Inactive)
REMARK    1  A    between atoms: C_3  and  C_8
REMARK    2  A    between atoms: N_10  and  C_11
REMARK                            x       y       z     vdW  Elec       q    Type
REMARK                         _______ _______ _______ _____ _____    ______ ____
ROOT
ATOM      1  C   UNL     1       6.005   2.263  -0.137  0.00  0.00    +0.056 A 
ATOM      2  C   UNL     1       5.938   3.651  -0.115  0.00  0.00    +0.072 A 
ATOM      3  C   UNL     1       7.098   4.397  -0.214  0.00  0.00    +0.144 A 
ATOM      4  C   UNL     1       8.331   3.755  -0.335  0.00  0.00    +0.077 A 
ATOM      5  C   UNL     1       8.395   2.372  -0.355  0.00  0.00    +0.048 A 
ATOM      6  C   UNL     1       7.235   1.626  -0.251  0.00  0.00    +0.064 A 
ATOM      7 CL   UNL     1       7.314  -0.108  -0.270  0.00  0.00    -0.082 Cl
ATOM      8  N   UNL     1       9.499   4.528  -0.435  0.00  0.00    -0.280 N 
ATOM      9  C   UNL     1       9.449   5.835  -0.100  0.00  0.00    +0.255 C 
ATOM     10  O   UNL     1      10.438   6.529  -0.208  0.00  0.00    -0.272 OA
ATOM     11  C   UNL     1       8.160   6.429   0.408  0.00  0.00    +0.325 C 
ATOM     12  O   UNL     1       7.051   5.756  -0.193  0.00  0.00    -0.481 OA
ATOM     13  H   UNL     1      10.328   4.129  -0.741  0.00  0.00    +0.155 HD
ENDROOT
BRANCH   1  16
ATOM     14  C   UNL     1       3.742   2.025   0.562  0.00  0.00    +0.248 C 
ATOM     15  O   UNL     1       3.807   3.112   1.104  0.00  0.00    -0.270 OA
ATOM     16  N   UNL     1       4.832   1.505  -0.036  0.00  0.00    -0.280 N 
ATOM     17  H   UNL     1       4.803   0.606  -0.398  0.00  0.00    +0.155 HD
BRANCH  14  20
ATOM     18  C   UNL     1       0.152   1.107   1.175  0.00  0.00    +0.004 A 
ATOM     19  C   UNL     1       1.339   1.811   1.180  0.00  0.00    +0.013 A 
ATOM     20  C   UNL     1       2.469   1.275   0.561  0.00  0.00    +0.040 A 
ATOM     21  C   UNL     1       2.391   0.028  -0.061  0.00  0.00    +0.051 A 
ATOM     22  C   UNL     1       1.197  -0.668  -0.059  0.00  0.00    +0.124 A 
ATOM     23  C   UNL     1       0.080  -0.128   0.558  0.00  0.00    +0.038 A 
ATOM     24  F   UNL     1       1.119  -1.875  -0.660  0.00  0.00    -0.205 F 
ENDBRANCH  14  20
ENDBRANCH   1  16
TORSDOF 2
