REMARK  Name = ZINC55667725
REMARK  6 active torsions:
REMARK  status: ('A' for Active; 'I' for Inactive)
REMARK    1  A    between atoms: C_1  and  C_2
REMARK    2  A    between atoms: C_5  and  N_9
REMARK    3  A    between atoms: C_6  and  C_8
REMARK    4  A    between atoms: N_9  and  C_10
REMARK    5  A    between atoms: N_9  and  S_11
REMARK    6  A    between atoms: S_11  and  C_14
REMARK                            x       y       z     vdW  Elec       q    Type
REMARK                         _______ _______ _______ _____ _____    ______ ____
ROOT
ATOM      1  C   UNL     1      -1.960  -5.274  -1.529  0.00  0.00    +0.111 A 
ATOM      2  C   UNL     1      -2.801  -4.345  -2.114  0.00  0.00    +0.031 A 
ATOM      3  C   UNL     1      -3.269  -4.552  -3.394  0.00  0.00    +0.027 A 
ATOM      4  C   UNL     1      -2.902  -5.692  -4.112  0.00  0.00    +0.055 A 
ATOM      5  C   UNL     1      -2.060  -6.623  -3.527  0.00  0.00    +0.057 A 
ATOM      6  C   UNL     1      -1.588  -6.401  -2.231  0.00  0.00    +0.054 A 
ATOM      7  N   UNL     1      -1.637  -7.789  -4.158  0.00  0.00    -0.284 N 
ATOM      8  C   UNL     1      -2.398  -8.584  -4.907  0.00  0.00    +0.226 C 
ATOM      9  O   UNL     1      -1.921  -9.597  -5.373  0.00  0.00    -0.275 OA
ATOM     10  C   UNL     1      -3.840  -8.248  -5.188  0.00  0.00    +0.192 C 
ATOM     11  C   UNL     1      -3.883  -6.943  -5.940  0.00  0.00    +0.226 C 
ATOM     12  O   UNL     1      -4.348  -6.916  -7.060  0.00  0.00    -0.275 OA
ATOM     13  N   UNL     1      -3.421  -5.819  -5.397  0.00  0.00    -0.284 N 
ATOM     14  H   UNL     1      -0.709  -8.044  -4.042  0.00  0.00    +0.155 HD
ATOM     15  H   UNL     1      -3.448  -5.019  -5.945  0.00  0.00    +0.155 HD
ENDROOT
BRANCH   1  16
ATOM     16  S   UNL     1      -1.359  -5.015   0.106  0.00  0.00    +0.075 S 
ATOM     17  O   UNL     1      -1.021  -6.295   0.623  0.00  0.00    -0.150 OA
ATOM     18  O   UNL     1      -2.290  -4.155   0.750  0.00  0.00    -0.150 OA
BRANCH  16  19
ATOM     19  N   UNL     1       0.058  -4.167  -0.021  0.00  0.00    -0.206 N 
ATOM     20  C   UNL     1       1.331  -4.882  -0.142  0.00  0.00    +0.157 C 
BRANCH  19  25
ATOM     21  C   UNL     1      -0.018   1.503   0.010  0.00  0.00    +0.044 C 
ATOM     22  C   UNL     1       0.002  -0.004   0.002  0.00  0.00    -0.050 A 
ATOM     23  C   UNL     1       0.006  -0.687  -1.200  0.00  0.00    +0.005 A 
ATOM     24  C   UNL     1       0.024  -2.068  -1.212  0.00  0.00    +0.025 A 
ATOM     25  C   UNL     1       0.040  -2.771  -0.013  0.00  0.00    +0.054 A 
ATOM     26  C   UNL     1       0.036  -2.081   1.192  0.00  0.00    -0.028 A 
ATOM     27  C   UNL     1       0.023  -0.700   1.196  0.00  0.00    +0.008 A 
ATOM     28  C   UNL     1       0.052  -2.839   2.495  0.00  0.00    +0.046 C 
ENDBRANCH  19  25
ENDBRANCH  16  19
ENDBRANCH   1  16
TORSDOF 3
