REMARK  Name = ZINC40291045
REMARK  4 active torsions:
REMARK  status: ('A' for Active; 'I' for Inactive)
REMARK    1  A    between atoms: C_1  and  C_2
REMARK    2  A    between atoms: C_3  and  C_21
REMARK    3  A    between atoms: C_7  and  C_8
REMARK    4  A    between atoms: C_8  and  N_10
REMARK                            x       y       z     vdW  Elec       q    Type
REMARK                         _______ _______ _______ _____ _____    ______ ____
ROOT
ATOM      1  C   UNL     1      -2.364  -0.785  -1.497  0.00  0.00    +0.046 C 
ATOM      2  C   UNL     1      -1.117  -1.100  -0.712  0.00  0.00    -0.015 A 
ATOM      3  C   UNL     1       0.134  -0.734  -1.180  0.00  0.00    +0.064 A 
ATOM      4  N   UNL     1       1.214  -1.020  -0.479  0.00  0.00    -0.152 NA
ATOM      5  N   UNL     1       1.167  -1.635   0.645  0.00  0.00    -0.133 NA
ATOM      6  C   UNL     1       0.024  -2.031   1.187  0.00  0.00    +0.158 A 
ATOM      7  C   UNL     1      -1.187  -1.768   0.518  0.00  0.00    +0.050 A 
ATOM      8  N   UNL     1       0.020  -2.693   2.404  0.00  0.00    -0.283 N 
ATOM      9  C   UNL     1       0.103  -4.159   2.456  0.00  0.00    +0.113 C 
ATOM     10  C   UNL     1      -0.933  -4.651   3.475  0.00  0.00    +0.024 C 
ATOM     11  C   UNL     1      -0.563  -4.111   4.856  0.00  0.00    +0.038 C 
ATOM     12  C   UNL     1      -0.344  -2.622   4.798  0.00  0.00    -0.026 A 
ATOM     13  C   UNL     1      -0.059  -1.976   3.604  0.00  0.00    +0.038 A 
ATOM     14  C   UNL     1       0.148  -0.601   3.586  0.00  0.00    +0.024 A 
ATOM     15  C   UNL     1       0.072   0.124   4.758  0.00  0.00    +0.002 A 
ATOM     16  C   UNL     1      -0.210  -0.518   5.949  0.00  0.00    +0.000 A 
ATOM     17  C   UNL     1      -0.426  -1.887   5.969  0.00  0.00    +0.005 A 
ATOM     18  C   UNL     1       0.261  -0.008  -2.494  0.00  0.00    +0.068 C 
ENDROOT
BRANCH   7  19
ATOM     19  C   UNL     1      -2.482  -2.187   1.088  0.00  0.00    +0.081 C 
ATOM     20  S   UNL     1      -3.387  -1.095   2.048  0.00  0.00    -0.035 S 
BRANCH  19  21
ATOM     21  N   UNL     1      -2.952  -3.428   0.853  0.00  0.00    -0.352 N 
ATOM     22  H   UNL     1      -2.479  -4.019   0.246  0.00  0.00    +0.143 HD
ATOM     23  H   UNL     1      -3.764  -3.729   1.290  0.00  0.00    +0.143 HD
ENDBRANCH  19  21
ENDBRANCH   7  19
TORSDOF 2
