REMARK  Name = ZINC66567798
REMARK  11 active torsions:
REMARK  status: ('A' for Active; 'I' for Inactive)
REMARK    1  A    between atoms: C_1  and  C_2
REMARK    2  A    between atoms: C_2  and  C_4
REMARK    3  A    between atoms: C_2  and  N_13
REMARK    4  A    between atoms: C_16  and  C_19
REMARK    5  A    between atoms: C_16  and  N_20
REMARK    6  A    between atoms: N_20  and  C_21
REMARK    7  A    between atoms: C_22  and  O_24
REMARK    8  A    between atoms: O_24  and  C_25
REMARK    9  A    between atoms: C_25  and  C_26
REMARK   10  A    between atoms: C_25  and  C_27
REMARK   11  A    between atoms: C_25  and  C_28
REMARK                            x       y       z     vdW  Elec       q    Type
REMARK                         _______ _______ _______ _____ _____    ______ ____
ROOT
ATOM      1  N   UNL     1       0.832  -0.944   0.690  0.00  0.00    +0.387 N 
ATOM      2  C   UNL     1       0.721  -2.393   0.891  0.00  0.00    -0.076 C 
ATOM      3  C   UNL     1       1.113  -2.743   2.329  0.00  0.00    +0.007 C 
ATOM      4  C   UNL     1       0.176  -2.018   3.299  0.00  0.00    +0.034 C 
ATOM      5  C   UNL     1       0.243  -0.512   3.029  0.00  0.00    +0.007 C 
ATOM      6  C   UNL     1      -0.116  -0.245   1.566  0.00  0.00    -0.076 C 
ATOM      7  C   UNL     1       0.611  -2.300   4.738  0.00  0.00    +0.032 C 
ATOM      8  H   UNL     1       1.771  -0.647   0.907  0.00  0.00    -0.081 HD
ENDROOT
BRANCH   4   9
ATOM      9  N   UNL     1      -1.197  -2.490   3.099  0.00  0.00    -0.265 N 
ATOM     10  C   UNL     1      -2.274  -1.528   2.852  0.00  0.00    +0.136 C 
ATOM     11  C   UNL     1      -1.469  -3.810   3.142  0.00  0.00    +0.404 C 
ATOM     12  O   UNL     1      -0.575  -4.608   3.348  0.00  0.00    -0.226 OA
BRANCH  11  13
ATOM     13  O   UNL     1      -2.730  -4.244   2.959  0.00  0.00    -0.445 OA
BRANCH  13  14
ATOM     14  C   UNL     1      -2.946  -5.655   3.018  0.00  0.00    +0.107 C 
ATOM     15  C   UNL     1      -2.527  -6.177   4.394  0.00  0.00    +0.055 C 
ATOM     16  C   UNL     1      -4.428  -5.955   2.788  0.00  0.00    +0.055 C 
ATOM     17  C   UNL     1      -2.112  -6.344   1.936  0.00  0.00    +0.055 C 
ENDBRANCH  13  14
ENDBRANCH  11  13
ENDBRANCH   4   9
BRANCH   1  19
ATOM     18  C   UNL     1       0.574   0.895  -0.907  0.00  0.00    -0.004 C 
ATOM     19  C   UNL     1       0.530  -0.622  -0.712  0.00  0.00    +0.016 C 
BRANCH  19  20
ATOM     20  C   UNL     1       1.551  -1.274  -1.608  0.00  0.00    +0.202 C 
ATOM     21  O   UNL     1       2.655  -1.534  -1.180  0.00  0.00    -0.277 OA
ATOM     22  N   UNL     1       1.236  -1.567  -2.885  0.00  0.00    -0.303 N 
ATOM     23  C   UNL     1      -0.119  -1.340  -3.335  0.00  0.00    +0.107 C 
ATOM     24  C   UNL     1      -0.971  -2.608  -3.079  0.00  0.00    +0.019 C 
ATOM     25  C   UNL     1      -0.581  -3.681  -4.006  0.00  0.00    +0.002 C 
ATOM     26  C   UNL     1       0.860  -4.156  -3.847  0.00  0.00    +0.002 C 
ATOM     27  C   UNL     1       1.773  -3.261  -4.647  0.00  0.00    +0.019 C 
ATOM     28  C   UNL     1       2.291  -2.103  -3.768  0.00  0.00    +0.107 C 
ENDBRANCH  19  20
ENDBRANCH   1  19
TORSDOF 5
