REMARK  Name = ZINC38756950
REMARK  5 active torsions:
REMARK  status: ('A' for Active; 'I' for Inactive)
REMARK    1  A    between atoms: C_1  and  C_2
REMARK    2  A    between atoms: C_12  and  C_14
REMARK    3  A    between atoms: N_17  and  S_20
REMARK    4  A    between atoms: S_20  and  C_23
REMARK    5  A    between atoms: C_23  and  C_24
REMARK                            x       y       z     vdW  Elec       q    Type
REMARK                         _______ _______ _______ _____ _____    ______ ____
ROOT
ATOM      1  C   UNL     1       1.045  -0.768   3.499  0.00  0.00    +0.078 C 
ATOM      2  C   UNL     1       2.357   0.019   3.541  0.00  0.00    +0.030 C 
ATOM      3  C   UNL     1       3.199  -0.461   4.727  0.00  0.00    +0.110 C 
ATOM      4  N   UNL     1       2.393  -0.357   5.952  0.00  0.00    -0.181 NA
ATOM      5  C   UNL     1       1.073  -1.001   5.986  0.00  0.00    +0.110 C 
ATOM      6  C   UNL     1       0.255  -0.515   4.786  0.00  0.00    +0.030 C 
ENDROOT
BRANCH   1  17
ATOM      7  C   UNL     1       1.583  -2.875   1.288  0.00  0.00    +0.029 C 
ATOM      8  C   UNL     1       1.789  -1.463   0.735  0.00  0.00    +0.083 C 
ATOM      9  C   UNL     1       1.843  -1.494  -0.801  0.00  0.00    +0.059 C 
ATOM     10  C   UNL     1       0.679  -0.635  -1.240  0.00  0.00    -0.024 A 
ATOM     11  C   UNL     1       0.229  -0.295  -2.502  0.00  0.00    +0.005 A 
ATOM     12  C   UNL     1      -0.878   0.520  -2.648  0.00  0.00    +0.000 A 
ATOM     13  C   UNL     1      -1.534   0.997  -1.528  0.00  0.00    +0.002 A 
ATOM     14  C   UNL     1      -1.088   0.661  -0.268  0.00  0.00    +0.024 A 
ATOM     15  C   UNL     1       0.029  -0.162  -0.112  0.00  0.00    +0.040 A 
ATOM     16  N   UNL     1       0.639  -0.617   1.064  0.00  0.00    -0.268 N 
ATOM     17  C   UNL     1       0.229  -0.321   2.314  0.00  0.00    +0.223 C 
ATOM     18  O   UNL     1      -0.796   0.304   2.484  0.00  0.00    -0.275 OA
ENDBRANCH   1  17
BRANCH   4  19
ATOM     19  S   UNL     1       2.963   0.471   7.268  0.00  0.00    +0.036 S 
ATOM     20  O   UNL     1       2.302  -0.117   8.380  0.00  0.00    -0.158 OA
ATOM     21  O   UNL     1       4.378   0.410   7.151  0.00  0.00    -0.158 OA
BRANCH  19  22
ATOM     22  C   UNL     1       2.389   2.176   7.030  0.00  0.00    +0.224 C 
BRANCH  22  23
ATOM     23  C   UNL     1       2.855   3.028   8.183  0.00  0.00    +0.028 A 
ATOM     24  C   UNL     1       2.064   3.159   9.311  0.00  0.00    +0.130 A 
ATOM     25  C   UNL     1       2.494   3.942  10.369  0.00  0.00    +0.039 A 
ATOM     26  C   UNL     1       3.712   4.592  10.298  0.00  0.00    +0.004 A 
ATOM     27  C   UNL     1       4.501   4.461   9.171  0.00  0.00    +0.020 A 
ATOM     28  C   UNL     1       4.076   3.674   8.115  0.00  0.00    +0.048 A 
ATOM     29 CL   UNL     1       5.072   3.505   6.704  0.00  0.00    -0.083 Cl
ATOM     30  F   UNL     1       0.874   2.524   9.380  0.00  0.00    -0.205 F 
ENDBRANCH  22  23
ENDBRANCH  19  22
ENDBRANCH   4  19
TORSDOF 4
