REMARK  Name = ZINC16834594
REMARK  3 active torsions:
REMARK  status: ('A' for Active; 'I' for Inactive)
REMARK    1  A    between atoms: C_5  and  N_7
REMARK    2  A    between atoms: N_10  and  C_13
REMARK    3  A    between atoms: C_13  and  N_14
REMARK                            x       y       z     vdW  Elec       q    Type
REMARK                         _______ _______ _______ _____ _____    ______ ____
ROOT
ATOM      1  N   UNL     1       1.236  -2.079  -0.021  0.00  0.00    -0.325 N 
ATOM      2  C   UNL     1       1.254  -2.841   1.237  0.00  0.00    +0.120 C 
ATOM      3  C   UNL     1       2.403  -3.854   1.175  0.00  0.00    +0.105 C 
ATOM      4  N   UNL     1       2.270  -4.667  -0.041  0.00  0.00    -0.282 NA
ATOM      5  C   UNL     1       2.391  -3.840  -1.250  0.00  0.00    +0.105 C 
ATOM      6  C   UNL     1       1.236  -2.827  -1.288  0.00  0.00    +0.120 C 
ENDROOT
BRANCH   1  11
ATOM      7  C   UNL     1      -0.017   1.377   0.010  0.00  0.00    +0.002 A 
ATOM      8  C   UNL     1       1.170   2.087   0.002  0.00  0.00    +0.003 A 
ATOM      9  C   UNL     1       2.380   1.418  -0.013  0.00  0.00    +0.040 A 
ATOM     10  C   UNL     1       2.406   0.035  -0.021  0.00  0.00    +0.144 A 
ATOM     11  C   UNL     1       1.214  -0.681  -0.013  0.00  0.00    +0.065 A 
ATOM     12  C   UNL     1       0.002  -0.004   0.002  0.00  0.00    +0.026 A 
ATOM     13  F   UNL     1       3.588  -0.619  -0.036  0.00  0.00    -0.204 F 
ENDBRANCH   1  11
BRANCH   4  14
ATOM     14  C   UNL     1       3.250  -5.761  -0.052  0.00  0.00    +0.216 C 
BRANCH  14  15
ATOM     15  N   UNL     1       2.751  -6.854  -0.890  0.00  0.00    -0.261 N 
ATOM     16  C   UNL     1       1.963  -7.925  -0.467  0.00  0.00    +0.092 A 
ATOM     17  C   UNL     1       1.435  -8.291   0.761  0.00  0.00    +0.031 A 
ATOM     18  C   UNL     1       0.674  -9.439   0.869  0.00  0.00    +0.022 A 
ATOM     19  C   UNL     1       0.439 -10.225  -0.247  0.00  0.00    +0.045 A 
ATOM     20  C   UNL     1       0.963  -9.866  -1.475  0.00  0.00    +0.068 A 
ATOM     21  C   UNL     1       1.727  -8.716  -1.591  0.00  0.00    +0.158 A 
ATOM     22  O   UNL     1       2.356  -8.126  -2.637  0.00  0.00    -0.407 OA
ATOM     23  C   UNL     1       2.964  -7.006  -2.212  0.00  0.00    +0.422 A 
ATOM     24  O   UNL     1       3.609  -6.249  -2.911  0.00  0.00    -0.223 OA
ATOM     25 CL   UNL     1      -0.517 -11.666  -0.103  0.00  0.00    -0.083 Cl
ENDBRANCH  14  15
ENDBRANCH   4  14
TORSDOF 3
