REMARK  Name = ZINC51732399
REMARK  4 active torsions:
REMARK  status: ('A' for Active; 'I' for Inactive)
REMARK    1  A    between atoms: C_1  and  C_2
REMARK    2  A    between atoms: C_7  and  C_10
REMARK    3  A    between atoms: C_11  and  C_13
REMARK    4  A    between atoms: C_18  and  N_19
REMARK                            x       y       z     vdW  Elec       q    Type
REMARK                         _______ _______ _______ _____ _____    ______ ____
ROOT
ATOM      1  C   UNL     1      -2.468  -3.909   1.878  0.00  0.00    +0.070 A 
ATOM      2  C   UNL     1      -2.925  -4.608   0.759  0.00  0.00    +0.056 A 
ATOM      3  C   UNL     1      -4.251  -4.980   0.675  0.00  0.00    +0.159 A 
ATOM      4  C   UNL     1      -5.130  -4.659   1.702  0.00  0.00    +0.161 A 
ATOM      5  C   UNL     1      -4.680  -3.965   2.814  0.00  0.00    +0.074 A 
ATOM      6  C   UNL     1      -3.355  -3.594   2.909  0.00  0.00    +0.141 A 
ATOM      7  F   UNL     1      -6.428  -5.024   1.616  0.00  0.00    -0.202 F 
ATOM      8  F   UNL     1      -4.696  -5.657  -0.406  0.00  0.00    -0.202 F 
ENDROOT
BRANCH   1  17
ATOM      9  C   UNL     1       0.169   1.364  -0.146  0.00  0.00    +0.007 C 
ATOM     10  C   UNL     1       0.142  -0.165  -0.094  0.00  0.00    -0.011 C 
ATOM     11  C   UNL     1      -1.309  -0.649  -0.080  0.00  0.00    +0.022 C 
ATOM     12  C   UNL     1      -1.332  -2.181  -0.064  0.00  0.00    +0.108 C 
ATOM     13  N   UNL     1      -0.528  -2.654   1.071  0.00  0.00    -0.295 N 
ATOM     14  C   UNL     1       0.856  -2.177   1.204  0.00  0.00    +0.074 C 
ATOM     15  C   UNL     1       0.854  -0.645   1.173  0.00  0.00    +0.025 C 
ATOM     16  C   UNL     1       1.697  -2.715   0.045  0.00  0.00    +0.028 C 
ATOM     17  C   UNL     1      -1.049  -3.509   1.974  0.00  0.00    +0.249 C 
ATOM     18  O   UNL     1      -0.351  -3.950   2.866  0.00  0.00    -0.270 OA
ENDBRANCH   1  17
BRANCH   6  19
ATOM     19  N   UNL     1      -2.875  -2.859   4.101  0.00  0.00    +0.057 N 
ATOM     20  O   UNL     1      -3.614  -2.686   5.042  0.00  0.00    -0.126 OA
ATOM     21  O   UNL     1      -1.745  -2.431   4.133  0.00  0.00    -0.126 OA
ENDBRANCH   6  19
TORSDOF 2
