REMARK  Name = ZINC38757399
REMARK  5 active torsions:
REMARK  status: ('A' for Active; 'I' for Inactive)
REMARK    1  A    between atoms: C_8  and  C_10
REMARK    2  A    between atoms: C_12  and  C_15
REMARK    3  A    between atoms: C_15  and  O_16
REMARK    4  A    between atoms: O_16  and  C_17
REMARK    5  A    between atoms: C_17  and  C_19
REMARK                            x       y       z     vdW  Elec       q    Type
REMARK                         _______ _______ _______ _____ _____    ______ ____
ROOT
ATOM      1  C   UNL     1       3.796  -3.326  -0.051  0.00  0.00    +0.202 A 
ATOM      2  C   UNL     1       5.159  -3.371  -0.059  0.00  0.00    +0.082 A 
ATOM      3  C   UNL     1       5.547  -4.717  -0.071  0.00  0.00    +0.122 A 
ATOM      4  N   UNL     1       4.471  -5.454  -0.070  0.00  0.00    -0.079 NA
ATOM      5  O   UNL     1       3.345  -4.596  -0.053  0.00  0.00    -0.351 OA
ENDROOT
BRANCH   1  13
ATOM      6  C   UNL     1      -0.017   1.363   0.009  0.00  0.00    +0.001 A 
ATOM      7  C   UNL     1       1.171   2.082   0.002  0.00  0.00    +0.004 A 
ATOM      8  C   UNL     1       2.387   1.433  -0.013  0.00  0.00    +0.047 A 
ATOM      9  C   UNL     1       2.430   0.044  -0.021  0.00  0.00    +0.136 A 
ATOM     10  C   UNL     1       1.224  -0.679  -0.013  0.00  0.00    +0.021 A 
ATOM     11  C   UNL     1       0.002  -0.004   0.002  0.00  0.00    +0.011 A 
ATOM     12  C   UNL     1       1.609  -2.091  -0.025  0.00  0.00    +0.061 A 
ATOM     13  C   UNL     1       2.967  -2.111  -0.038  0.00  0.00    +0.174 A 
ATOM     14  O   UNL     1       3.441  -0.848  -0.035  0.00  0.00    -0.452 OA
ENDBRANCH   1  13
BRANCH   3  15
ATOM     15  C   UNL     1       6.966  -5.226  -0.082  0.00  0.00    +0.291 C 
BRANCH  15  16
ATOM     16  O   UNL     1       7.869  -4.119  -0.080  0.00  0.00    -0.455 OA
BRANCH  16  17
ATOM     17  C   UNL     1       9.186  -4.404  -0.090  0.00  0.00    +0.342 C 
ATOM     18  O   UNL     1       9.557  -5.561  -0.100  0.00  0.00    -0.245 OA
BRANCH  17  19
ATOM     19  C   UNL     1      10.178  -3.311  -0.088  0.00  0.00    +0.094 A 
ATOM     20  C   UNL     1       9.755  -1.980  -0.070  0.00  0.00    +0.018 A 
ATOM     21  C   UNL     1      10.686  -0.964  -0.069  0.00  0.00    +0.001 A 
ATOM     22  C   UNL     1      12.039  -1.258  -0.084  0.00  0.00    +0.003 A 
ATOM     23  C   UNL     1      12.468  -2.572  -0.101  0.00  0.00    +0.039 A 
ATOM     24  C   UNL     1      11.546  -3.603  -0.098  0.00  0.00    +0.137 A 
ATOM     25  F   UNL     1      11.964  -4.887  -0.110  0.00  0.00    -0.205 F 
ENDBRANCH  17  19
ENDBRANCH  16  17
ENDBRANCH  15  16
ENDBRANCH   3  15
TORSDOF 5
