REMARK  Name = ZINC64411207
REMARK  7 active torsions:
REMARK  status: ('A' for Active; 'I' for Inactive)
REMARK    1  A    between atoms: C_1  and  C_2
REMARK    2  A    between atoms: C_2  and  O_3
REMARK    3  A    between atoms: O_3  and  C_4
REMARK    4  A    between atoms: C_4  and  C_6
REMARK    5  A    between atoms: C_13  and  N_16
REMARK    6  A    between atoms: C_17  and  C_19
REMARK    7  A    between atoms: C_22  and  C_24
REMARK                            x       y       z     vdW  Elec       q    Type
REMARK                         _______ _______ _______ _____ _____    ______ ____
ROOT
ATOM      1  N   UNL     1       0.863  -7.144  -3.061  0.00  0.00    -0.283 N 
ATOM      2  C   UNL     1       0.146  -8.095  -3.693  0.00  0.00    +0.265 C 
ATOM      3  O   UNL     1      -0.747  -7.777  -4.455  0.00  0.00    -0.268 OA
ATOM      4  H   UNL     1       1.575  -7.397  -2.453  0.00  0.00    +0.152 HD
ENDROOT
BRANCH   1  12
ATOM      5  C   UNL     1       1.425  -2.325  -2.474  0.00  0.00    +0.054 C 
ATOM      6  H   UNL     1       1.333  -5.159  -1.340  0.00  0.00    +0.148 HD
ATOM      7  C   UNL     1       2.037  -1.489  -3.572  0.00  0.00    +0.045 C 
ATOM      8  C   UNL     1       2.226  -2.469  -4.755  0.00  0.00    +0.025 C 
ATOM      9  C   UNL     1       2.399  -3.805  -4.017  0.00  0.00    +0.094 C 
ATOM     10  C   UNL     1       1.587  -3.644  -2.725  0.00  0.00    +0.029 C 
ATOM     11  N   UNL     1       1.202  -4.874  -2.258  0.00  0.00    -0.320 N 
ATOM     12  C   UNL     1       0.565  -5.728  -3.292  0.00  0.00    +0.220 C 
ATOM     13  S   UNL     1       1.386  -5.111  -4.832  0.00  0.00    -0.110 S 
BRANCH   5  14
ATOM     14  C   UNL     1       0.776  -1.801  -1.335  0.00  0.00    +0.337 C 
ATOM     15  O   UNL     1       0.311  -2.553  -0.499  0.00  0.00    -0.245 OA
BRANCH  14  16
ATOM     16  O   UNL     1       0.671  -0.465  -1.174  0.00  0.00    -0.462 OA
BRANCH  16  18
ATOM     17  C   UNL     1      -0.019   1.526   0.010  0.00  0.00    +0.048 C 
ATOM     18  C   UNL     1       0.002  -0.004   0.002  0.00  0.00    +0.229 C 
ENDBRANCH  16  18
ENDBRANCH  14  16
ENDBRANCH   5  14
ENDBRANCH   1  12
BRANCH   2  19
ATOM     19  C   UNL     1       0.445  -9.518  -3.461  0.00  0.00    +0.133 A 
ATOM     20  C   UNL     1      -0.254 -10.516  -4.085  0.00  0.00    +0.080 A 
ATOM     21  S   UNL     1       0.476 -11.903  -3.479  0.00  0.00    -0.077 S 
ATOM     22  C   UNL     1       1.618 -11.191  -2.475  0.00  0.00    +0.105 A 
ATOM     23  N   UNL     1       1.417  -9.911  -2.632  0.00  0.00    -0.237 NA
BRANCH  22  24
ATOM     24  C   UNL     1       2.640 -11.871  -1.601  0.00  0.00    +0.159 C 
ATOM     25  C   UNL     1       3.740 -12.466  -2.452  0.00  0.00    +0.014 C 
ATOM     26  C   UNL     1       3.718 -13.797  -2.216  0.00  0.00    -0.004 A 
ATOM     27  C   UNL     1       4.524 -14.912  -2.729  0.00  0.00    +0.010 A 
ATOM     28  C   UNL     1       4.260 -16.166  -2.298  0.00  0.00    +0.001 A 
ATOM     29  C   UNL     1       3.238 -16.427  -1.375  0.00  0.00    +0.002 A 
ATOM     30  C   UNL     1       2.455 -15.456  -0.858  0.00  0.00    +0.026 A 
ATOM     31  C   UNL     1       2.645 -14.100  -1.242  0.00  0.00    +0.043 A 
ATOM     32  N   UNL     1       2.027 -12.998  -0.888  0.00  0.00    -0.372 N 
ATOM     33  H   UNL     1       1.289 -12.937  -0.262  0.00  0.00    +0.161 HD
ENDBRANCH  22  24
ENDBRANCH   2  19
TORSDOF 6
