REMARK  Name = ZINC22582748
REMARK  10 active torsions:
REMARK  status: ('A' for Active; 'I' for Inactive)
REMARK    1  A    between atoms: C_1  and  C_2
REMARK    2  A    between atoms: C_2  and  C_3
REMARK    3  A    between atoms: C_6  and  N_9
REMARK    4  A    between atoms: C_10  and  C_12
REMARK    5  A    between atoms: N_14  and  C_15
REMARK    6  A    between atoms: C_15  and  C_16
REMARK    7  A    between atoms: C_16  and  C_18
REMARK    8  A    between atoms: C_16  and  N_25
REMARK    9  A    between atoms: C_21  and  C_24
REMARK   10  A    between atoms: N_28  and  C_31
REMARK                            x       y       z     vdW  Elec       q    Type
REMARK                         _______ _______ _______ _____ _____    ______ ____
ROOT
ATOM      1  C   UNL     1      -3.262   6.337   7.667  0.00  0.00    +0.128 C 
ENDROOT
BRANCH   1   4
ATOM      2  C   UNL     1      -5.429   5.443   7.002  0.00  0.00    +0.299 C 
ATOM      3  O   UNL     1      -4.901   4.362   6.841  0.00  0.00    -0.265 OA
ATOM      4  N   UNL     1      -4.696   6.496   7.413  0.00  0.00    -0.306 N 
ATOM      5  H   UNL     1      -5.174   7.476   7.559  0.00  0.00    +0.149 HD
BRANCH   2   7
ATOM      6  N   UNL     1      -7.624   4.552   6.332  0.00  0.00    -0.278 N 
ATOM      7  C   UNL     1      -6.891   5.606   6.743  0.00  0.00    +0.303 C 
ATOM      8  O   UNL     1      -7.419   6.687   6.904  0.00  0.00    -0.265 OA
ATOM      9  H   UNL     1      -7.164   3.555   6.265  0.00  0.00    +0.155 HD
BRANCH   6  13
ATOM     10  C   UNL     1     -11.627   5.073   5.311  0.00  0.00    -0.048 A 
ATOM     11  C   UNL     1     -10.713   6.077   5.051  0.00  0.00    +0.005 A 
ATOM     12  C   UNL     1      -9.385   5.910   5.393  0.00  0.00    +0.023 A 
ATOM     13  C   UNL     1      -8.967   4.727   5.989  0.00  0.00    +0.034 A 
ATOM     14  C   UNL     1      -9.887   3.718   6.244  0.00  0.00    +0.023 A 
ATOM     15  C   UNL     1     -11.214   3.894   5.905  0.00  0.00    +0.005 A 
BRANCH  10  17
ATOM     16  C   UNL     1     -13.825   5.891   6.119  0.00  0.00    +0.009 C 
ATOM     17  C   UNL     1     -13.076   5.262   4.942  0.00  0.00    +0.032 C 
ENDBRANCH  10  17
ENDBRANCH   6  13
ENDBRANCH   2   7
ENDBRANCH   1   4
BRANCH   1  18
ATOM     18  C   UNL     1      -2.698   7.637   8.244  0.00  0.00    +0.104 C 
BRANCH  18  19
ATOM     19  N   UNL     1      -1.245   7.507   8.414  0.00  0.00    -0.297 NA
ATOM     20  C   UNL     1      -0.678   8.712   9.036  0.00  0.00    +0.066 C 
ATOM     21  C   UNL     1       0.821   8.506   9.268  0.00  0.00    -0.064 C 
ATOM     22  N   UNL     1       1.478   8.220   7.985  0.00  0.00    +0.379 N 
ATOM     23  C   UNL     1       0.911   7.016   7.363  0.00  0.00    -0.064 C 
ATOM     24  C   UNL     1      -0.588   7.222   7.131  0.00  0.00    +0.066 C 
ATOM     25  C   UNL     1       2.931   8.091   8.155  0.00  0.00    -0.096 C 
ATOM     26  H   UNL     1       1.292   9.070   7.312  0.00  0.00    -0.082 HD
ENDBRANCH  18  19
BRANCH  18  27
ATOM     27  C   UNL     1      -3.338   7.912   9.580  0.00  0.00    -0.029 A 
ATOM     28  C   UNL     1      -2.891   7.251  10.710  0.00  0.00    +0.005 A 
ATOM     29  C   UNL     1      -3.475   7.507  11.936  0.00  0.00    +0.003 A 
ATOM     30  C   UNL     1      -4.511   8.417  12.032  0.00  0.00    -0.050 A 
ATOM     31  C   UNL     1      -4.962   9.073  10.902  0.00  0.00    +0.003 A 
ATOM     32  C   UNL     1      -4.375   8.821   9.676  0.00  0.00    +0.005 A 
ATOM     33  C   UNL     1      -5.151   8.692  13.369  0.00  0.00    +0.044 C 
ENDBRANCH  18  27
ENDBRANCH   1  18
TORSDOF 7
