REMARK  Name = ZINC13331870
REMARK  3 active torsions:
REMARK  status: ('A' for Active; 'I' for Inactive)
REMARK    1  A    between atoms: C_3  and  S_10
REMARK    2  A    between atoms: C_6  and  N_7
REMARK    3  A    between atoms: S_10  and  N_13
REMARK                            x       y       z     vdW  Elec       q    Type
REMARK                         _______ _______ _______ _____ _____    ______ ____
ROOT
ATOM      1  S   UNL     1       5.009   1.139  -0.040  0.00  0.00    +0.073 S 
ATOM      2  O   UNL     1       6.063   2.091  -0.072  0.00  0.00    -0.150 OA
ATOM      3  O   UNL     1       4.900   0.157   0.982  0.00  0.00    -0.150 OA
ENDROOT
BRANCH   1   4
ATOM      4  N   UNL     1       3.594   2.000  -0.021  0.00  0.00    -0.199 N 
ATOM      5  C   UNL     1       2.374   1.332  -0.013  0.00  0.00    +0.138 A 
ATOM      6  C   UNL     1       1.190   2.062   0.002  0.00  0.00    +0.046 A 
ATOM      7  C   UNL     1      -0.017   1.385   0.010  0.00  0.00    +0.020 A 
ATOM      8  C   UNL     1       0.002  -0.004   0.002  0.00  0.00    +0.036 A 
ATOM      9  C   UNL     1       1.215  -0.664  -0.013  0.00  0.00    +0.128 A 
ATOM     10  N   UNL     1       2.351   0.009  -0.020  0.00  0.00    -0.238 NA
ATOM     11 BR   UNL     1      -1.617  -0.982   0.013  0.00  0.00    -0.049 Br
ATOM     12  H   UNL     1       3.616   2.970  -0.017  0.00  0.00    +0.175 HD
ENDBRANCH   1   4
BRANCH   1  15
ATOM     13  C   UNL     1       5.700   0.174  -3.878  0.00  0.00    +0.034 A 
ATOM     14  C   UNL     1       5.652   0.857  -2.677  0.00  0.00    +0.031 A 
ATOM     15  C   UNL     1       5.069   0.269  -1.571  0.00  0.00    +0.109 A 
ATOM     16  C   UNL     1       4.539  -1.004  -1.663  0.00  0.00    +0.031 A 
ATOM     17  C   UNL     1       4.583  -1.685  -2.865  0.00  0.00    +0.034 A 
ATOM     18  C   UNL     1       5.166  -1.097  -3.972  0.00  0.00    +0.126 A 
BRANCH  18  19
ATOM     19  N   UNL     1       5.217  -1.828  -5.258  0.00  0.00    +0.056 N 
ATOM     20  O   UNL     1       5.730  -1.309  -6.234  0.00  0.00    -0.126 OA
ATOM     21  O   UNL     1       4.746  -2.948  -5.341  0.00  0.00    -0.126 OA
ENDBRANCH  18  19
ENDBRANCH   1  15
TORSDOF 3
