REMARK  Name = ZINC05234896
REMARK  11 active torsions:
REMARK  status: ('A' for Active; 'I' for Inactive)
REMARK    1  A    between atoms: C_1  and  C_2
REMARK    2  A    between atoms: C_5  and  S_8
REMARK    3  A    between atoms: S_8  and  N_11
REMARK    4  A    between atoms: N_11  and  C_12
REMARK    5  A    between atoms: C_18  and  C_22
REMARK    6  A    between atoms: C_19  and  C_21
REMARK    7  A    between atoms: C_22  and  O_24
REMARK    8  A    between atoms: O_24  and  C_25
REMARK    9  A    between atoms: C_25  and  C_26
REMARK   10  A    between atoms: C_25  and  C_27
REMARK   11  A    between atoms: C_25  and  C_28
REMARK                            x       y       z     vdW  Elec       q    Type
REMARK                         _______ _______ _______ _____ _____    ______ ____
ROOT
ATOM      1  C   UNL     1       1.320   1.927   0.014  0.00  0.00    +0.049 A 
ATOM      2  C   UNL     1       1.458   3.313  -0.022  0.00  0.00    +0.028 A 
ATOM      3  C   UNL     1       0.348   4.128  -0.014  0.00  0.00    +0.049 A 
ATOM      4  C   UNL     1      -0.924   3.572   0.032  0.00  0.00    +0.136 A 
ATOM      5  C   UNL     1      -1.065   2.177   0.064  0.00  0.00    +0.036 A 
ATOM      6  C   UNL     1       0.059   1.358   0.060  0.00  0.00    +0.037 A 
ATOM      7  C   UNL     1      -2.520   1.929   0.101  0.00  0.00    +0.107 A 
ATOM      8  C   UNL     1      -3.105   3.159   0.084  0.00  0.00    +0.117 A 
ATOM      9  O   UNL     1      -2.163   4.108   0.051  0.00  0.00    -0.459 OA
ATOM     10  C   UNL     1      -4.590   3.412   0.109  0.00  0.00    +0.087 C 
ENDROOT
BRANCH   1  11
ATOM     11  N   UNL     1       2.456   1.111   0.005  0.00  0.00    -0.216 N 
ATOM     12  H   UNL     1       3.000   1.028   0.803  0.00  0.00    +0.174 HD
BRANCH  11  13
ATOM     13  S   UNL     1       2.871   0.286  -1.370  0.00  0.00    +0.072 S 
ATOM     14  O   UNL     1       4.083  -0.398  -1.082  0.00  0.00    -0.150 OA
ATOM     15  O   UNL     1       1.700  -0.390  -1.807  0.00  0.00    -0.150 OA
BRANCH  13  20
ATOM     16  C   UNL     1       4.169   4.394  -5.594  0.00  0.00    +0.044 C 
ATOM     17  C   UNL     1       3.845   3.368  -4.539  0.00  0.00    -0.050 A 
ATOM     18  C   UNL     1       4.852   2.852  -3.744  0.00  0.00    +0.005 A 
ATOM     19  C   UNL     1       4.554   1.910  -2.777  0.00  0.00    +0.029 A 
ATOM     20  C   UNL     1       3.250   1.486  -2.603  0.00  0.00    +0.109 A 
ATOM     21  C   UNL     1       2.244   1.999  -3.401  0.00  0.00    +0.029 A 
ATOM     22  C   UNL     1       2.541   2.943  -4.365  0.00  0.00    +0.005 A 
ENDBRANCH  13  20
ENDBRANCH  11  13
ENDBRANCH   1  11
BRANCH   7  23
ATOM     23  C   UNL     1      -3.197   0.626   0.147  0.00  0.00    +0.344 C 
ATOM     24  O   UNL     1      -3.454   0.112   1.219  0.00  0.00    -0.245 OA
BRANCH  23  25
ATOM     25  O   UNL     1      -3.532  -0.001  -0.999  0.00  0.00    -0.455 OA
BRANCH  25  26
ATOM     26  C   UNL     1      -4.198  -1.285  -0.877  0.00  0.00    +0.106 C 
ATOM     27  C   UNL     1      -5.508  -1.109  -0.106  0.00  0.00    +0.055 C 
ATOM     28  C   UNL     1      -4.497  -1.839  -2.272  0.00  0.00    +0.055 C 
ATOM     29  C   UNL     1      -3.291  -2.261  -0.125  0.00  0.00    +0.055 C 
ENDBRANCH  25  26
ENDBRANCH  23  25
ENDBRANCH   7  23
TORSDOF 6
