REMARK  Name = ZINC66795125
REMARK  4 active torsions:
REMARK  status: ('A' for Active; 'I' for Inactive)
REMARK    1  A    between atoms: C_1  and  C_2
REMARK    2  A    between atoms: C_6  and  C_21
REMARK    3  A    between atoms: N_9  and  C_10
REMARK    4  A    between atoms: C_10  and  N_11
REMARK                            x       y       z     vdW  Elec       q    Type
REMARK                         _______ _______ _______ _____ _____    ______ ____
ROOT
ATOM      1  C   UNL     1      -0.224   1.406  -0.026  0.00  0.00    +0.026 C 
ATOM      2  C   UNL     1      -0.072  -0.116   0.016  0.00  0.00    +0.081 C 
ATOM      3  C   UNL     1       0.532  -0.605  -1.303  0.00  0.00    +0.179 C 
ATOM      4  O   UNL     1       0.741  -2.018  -1.230  0.00  0.00    -0.369 OA
ATOM      5  C   UNL     1       1.603  -2.418  -0.161  0.00  0.00    +0.162 C 
ATOM      6  C   UNL     1       1.010  -1.947   1.169  0.00  0.00    +0.123 C 
ATOM      7  N   UNL     1       0.816  -0.490   1.126  0.00  0.00    -0.276 NA
ENDROOT
BRANCH   5   8
ATOM      8  C   UNL     1       1.730  -3.920  -0.153  0.00  0.00    -0.018 A 
ATOM      9  C   UNL     1       0.651  -4.707  -0.510  0.00  0.00    +0.006 A 
ATOM     10  C   UNL     1       0.768  -6.084  -0.502  0.00  0.00    +0.000 A 
ATOM     11  C   UNL     1       1.964  -6.674  -0.138  0.00  0.00    +0.000 A 
ATOM     12  C   UNL     1       3.043  -5.887   0.218  0.00  0.00    +0.000 A 
ATOM     13  C   UNL     1       2.928  -4.510   0.206  0.00  0.00    +0.006 A 
ENDBRANCH   5   8
BRANCH   7  14
ATOM     14  C   UNL     1       0.299   0.011   2.406  0.00  0.00    +0.236 C 
BRANCH  14  15
ATOM     15  N   UNL     1       1.404   0.154   3.357  0.00  0.00    -0.198 N 
ATOM     16  C   UNL     1       1.676  -0.668   4.392  0.00  0.00    +0.352 A 
ATOM     17  O   UNL     1       1.044  -1.662   4.703  0.00  0.00    -0.244 OA
ATOM     18  N   UNL     1       2.770  -0.194   5.021  0.00  0.00    -0.251 N 
ATOM     19  C   UNL     1       3.462  -0.643   6.120  0.00  0.00    +0.098 A 
ATOM     20  C   UNL     1       4.545   0.017   6.566  0.00  0.00    +0.018 A 
ATOM     21  C   UNL     1       4.994   1.183   5.913  0.00  0.00    +0.005 A 
ATOM     22  C   UNL     1       4.330   1.647   4.827  0.00  0.00    +0.049 A 
ATOM     23  C   UNL     1       3.187   0.948   4.361  0.00  0.00    +0.162 A 
ATOM     24  N   UNL     1       2.375   1.164   3.353  0.00  0.00    -0.148 NA
ENDBRANCH  14  15
ENDBRANCH   7  14
TORSDOF 3
