REMARK  Name = ZINC58553463
REMARK  2 active torsions:
REMARK  status: ('A' for Active; 'I' for Inactive)
REMARK    1  A    between atoms: C_2  and  C_6
REMARK    2  A    between atoms: C_12  and  C_13
REMARK                            x       y       z     vdW  Elec       q    Type
REMARK                         _______ _______ _______ _____ _____    ______ ____
ROOT
ATOM      1  C   UNL     1       2.156   3.074   0.316  0.00  0.00    +0.268 C 
ATOM      2  O   UNL     1       1.236   3.868   0.376  0.00  0.00    -0.268 OA
ATOM      3  N   UNL     1       3.416   3.515   0.129  0.00  0.00    -0.293 N 
ATOM      4  C   UNL     1       4.628   2.677   0.126  0.00  0.00    +0.108 C 
ATOM      5  C   UNL     1       5.660   3.474  -0.710  0.00  0.00    +0.021 C 
ATOM      6  C   UNL     1       5.340   4.933  -0.290  0.00  0.00    +0.024 C 
ATOM      7  C   UNL     1       3.808   4.912  -0.112  0.00  0.00    +0.080 C 
ENDROOT
BRANCH   7   8
ATOM      8  C   UNL     1       3.413   5.777   1.087  0.00  0.00    +0.010 C 
ATOM      9  C   UNL     1       3.875   7.216   0.851  0.00  0.00    +0.005 C 
ATOM     10  C   UNL     1       3.481   8.082   2.049  0.00  0.00    +0.000 C 
ATOM     11  C   UNL     1       4.145   7.534   3.314  0.00  0.00    +0.000 C 
ATOM     12  C   UNL     1       3.684   6.094   3.550  0.00  0.00    +0.000 C 
ATOM     13  C   UNL     1       4.078   5.229   2.351  0.00  0.00    +0.005 C 
ENDBRANCH   7   8
BRANCH   1  15
ATOM     14  C   UNL     1       0.624   1.111   0.640  0.00  0.00    +0.101 A 
ATOM     15  C   UNL     1       1.893   1.629   0.446  0.00  0.00    +0.156 A 
ATOM     16  N   UNL     1       2.852   0.714   0.389  0.00  0.00    -0.136 NA
ATOM     17  N   UNL     1       2.535  -0.527   0.513  0.00  0.00    -0.110 NA
ATOM     18  S   UNL     1       0.931  -0.539   0.713  0.00  0.00    +0.029 S 
ENDBRANCH   1  15
TORSDOF 2
