REMARK  Name = ZINC40427546
REMARK  13 active torsions:
REMARK  status: ('A' for Active; 'I' for Inactive)
REMARK    1  A    between atoms: C_1  and  C_2
REMARK    2  A    between atoms: C_3  and  C_23
REMARK    3  A    between atoms: C_4  and  N_14
REMARK    4  A    between atoms: N_5  and  C_7
REMARK    5  A    between atoms: N_17  and  C_20
REMARK    6  A    between atoms: C_20  and  C_21
REMARK    7  A    between atoms: C_20  and  C_22
REMARK    8  A    between atoms: C_23  and  N_24
REMARK    9  A    between atoms: N_24  and  C_25
REMARK   10  A    between atoms: N_24  and  S_28
REMARK   11  A    between atoms: C_25  and  C_26
REMARK   12  A    between atoms: C_25  and  C_27
REMARK   13  A    between atoms: S_28  and  C_31
REMARK                            x       y       z     vdW  Elec       q    Type
REMARK                         _______ _______ _______ _____ _____    ______ ____
ROOT
ATOM      1  C   UNL     1       0.521   1.696  -0.235  0.00  0.00    +0.068 C 
ATOM      2  C   UNL     1       0.292   0.208  -0.174  0.00  0.00    +0.067 A 
ATOM      3  C   UNL     1       0.245  -0.657  -1.271  0.00  0.00    +0.031 A 
ATOM      4  C   UNL     1       0.021  -1.916  -0.801  0.00  0.00    +0.129 A 
ATOM      5  N   UNL     1      -0.070  -1.835   0.555  0.00  0.00    -0.218 N 
ATOM      6  N   UNL     1       0.110  -0.494   0.916  0.00  0.00    -0.170 NA
ENDROOT
BRANCH   5   7
ATOM      7  C   UNL     1      -0.297  -2.904   1.433  0.00  0.00    +0.070 A 
ATOM      8  C   UNL     1      -1.293  -3.831   1.156  0.00  0.00    +0.028 A 
ATOM      9  C   UNL     1      -1.516  -4.884   2.022  0.00  0.00    +0.005 A 
ATOM     10  C   UNL     1      -0.748  -5.015   3.165  0.00  0.00    +0.038 A 
ATOM     11  C   UNL     1       0.246  -4.093   3.444  0.00  0.00    +0.125 A 
ATOM     12  C   UNL     1       0.477  -3.040   2.576  0.00  0.00    +0.066 A 
ATOM     13  F   UNL     1       0.995  -4.224   4.561  0.00  0.00    -0.205 F 
ENDBRANCH   5   7
BRANCH   4  14
ATOM     14  N   UNL     1      -0.096  -3.072  -1.567  0.00  0.00    -0.318 N 
ATOM     15  C   UNL     1       0.629  -4.298  -1.199  0.00  0.00    +0.088 C 
ATOM     16  C   UNL     1      -0.365  -5.464  -1.185  0.00  0.00    -0.059 C 
ATOM     17  N   UNL     1      -1.057  -5.533  -2.478  0.00  0.00    +0.383 N 
ATOM     18  C   UNL     1      -1.867  -4.325  -2.677  0.00  0.00    -0.059 C 
ATOM     19  C   UNL     1      -0.952  -3.104  -2.763  0.00  0.00    +0.088 C 
ATOM     20  H   UNL     1      -0.375  -5.605  -3.219  0.00  0.00    -0.081 HD
BRANCH  17  21
ATOM     21  C   UNL     1      -1.929  -6.715  -2.503  0.00  0.00    -0.075 C 
ATOM     22  C   UNL     1      -2.650  -6.788  -3.851  0.00  0.00    -0.014 C 
ATOM     23  C   UNL     1      -1.084  -7.976  -2.308  0.00  0.00    -0.014 C 
ENDBRANCH  17  21
ENDBRANCH   4  14
BRANCH   3  24
ATOM     24  C   UNL     1       0.413  -0.267  -2.716  0.00  0.00    +0.149 C 
BRANCH  24  25
ATOM     25  N   UNL     1       1.840  -0.156  -3.030  0.00  0.00    -0.174 NA
BRANCH  25  26
ATOM     26  S   UNL     1       2.642   1.264  -2.746  0.00  0.00    +0.029 S 
ATOM     27  O   UNL     1       3.619   1.341  -3.776  0.00  0.00    -0.158 OA
ATOM     28  O   UNL     1       1.619   2.245  -2.645  0.00  0.00    -0.158 OA
ATOM     29  C   UNL     1       3.447   1.032  -1.137  0.00  0.00    +0.215 C 
ENDBRANCH  25  26
BRANCH  25  30
ATOM     30  C   UNL     1       2.557  -1.302  -3.595  0.00  0.00    +0.074 C 
ATOM     31  C   UNL     1       2.443  -2.495  -2.643  0.00  0.00    +0.025 C 
ATOM     32  C   UNL     1       1.945  -1.670  -4.948  0.00  0.00    +0.025 C 
ENDBRANCH  25  30
ENDBRANCH  24  25
ENDBRANCH   3  24
TORSDOF 7
