REMARK  Name = ZINC65494485
REMARK  5 active torsions:
REMARK  status: ('A' for Active; 'I' for Inactive)
REMARK    1  A    between atoms: C_1  and  N_2
REMARK    2  A    between atoms: N_2  and  C_3
REMARK    3  A    between atoms: N_2  and  C_4
REMARK    4  A    between atoms: C_7  and  C_10
REMARK    5  A    between atoms: C_18  and  C_22
REMARK                            x       y       z     vdW  Elec       q    Type
REMARK                         _______ _______ _______ _____ _____    ______ ____
ROOT
ATOM      1  C   UNL     1      -0.008  -2.809  -4.924  0.00  0.00    +0.063 C 
ATOM      2  C   UNL     1      -1.316  -2.535  -5.673  0.00  0.00    +0.109 C 
ATOM      3  C   UNL     1      -1.220  -2.935  -7.117  0.00  0.00    +0.219 C 
ATOM      4  O   UNL     1      -2.178  -3.466  -7.639  0.00  0.00    -0.275 OA
ATOM      5  N   UNL     1      -0.112  -2.726  -7.857  0.00  0.00    -0.269 N 
ATOM      6  C   UNL     1       1.053  -2.308  -7.192  0.00  0.00    +0.151 A 
ATOM      7  C   UNL     1       1.137  -2.334  -5.783  0.00  0.00    +0.027 A 
ATOM      8  C   UNL     1       2.361  -1.879  -5.428  0.00  0.00    +0.071 A 
ATOM      9  N   UNL     1       3.034  -1.585  -6.581  0.00  0.00    -0.275 N 
ATOM     10  H   UNL     1       3.937  -1.237  -6.641  0.00  0.00    +0.189 HD
ATOM     11  N   UNL     1       2.185  -1.875  -7.663  0.00  0.00    -0.158 NA
ATOM     12  H   UNL     1      -0.118  -2.861  -8.817  0.00  0.00    +0.156 HD
ENDROOT
BRANCH   1  16
ATOM     13  C   UNL     1       0.001  -0.690  -1.212  0.00  0.00    +0.029 A 
ATOM     14  C   UNL     1      -0.018  -2.079  -1.221  0.00  0.00    +0.023 A 
ATOM     15  C   UNL     1      -0.022  -2.761  -2.422  0.00  0.00    +0.006 A 
ATOM     16  C   UNL     1      -0.005  -2.062  -3.615  0.00  0.00    -0.039 A 
ATOM     17  C   UNL     1       0.014  -0.679  -3.610  0.00  0.00    +0.006 A 
ATOM     18  C   UNL     1       0.012   0.008  -2.413  0.00  0.00    +0.023 A 
BRANCH  13  20
ATOM     19  C   UNL     1       0.018   1.467   0.008  0.00  0.00    +0.129 C 
ATOM     20  N   UNL     1       0.004   0.002   0.001  0.00  0.00    -0.336 N 
ATOM     21  C   UNL     1      -0.007  -0.737   1.266  0.00  0.00    +0.129 C 
ENDBRANCH  13  20
ENDBRANCH   1  16
BRANCH   8  22
ATOM     22  C   UNL     1       2.874  -1.727  -4.049  0.00  0.00    +0.000 A 
ATOM     23  C   UNL     1       2.781  -2.786  -3.146  0.00  0.00    +0.010 A 
ATOM     24  C   UNL     1       3.262  -2.638  -1.861  0.00  0.00    +0.001 A 
ATOM     25  C   UNL     1       3.836  -1.442  -1.468  0.00  0.00    +0.000 A 
ATOM     26  C   UNL     1       3.931  -0.388  -2.358  0.00  0.00    +0.001 A 
ATOM     27  C   UNL     1       3.459  -0.525  -3.647  0.00  0.00    +0.010 A 
ENDBRANCH   8  22
TORSDOF 3
