REMARK  Name = ZINC08197017
REMARK  7 active torsions:
REMARK  status: ('A' for Active; 'I' for Inactive)
REMARK    1  A    between atoms: C_1  and  N_53
REMARK    2  A    between atoms: C_2  and  C_3
REMARK    3  A    between atoms: C_2  and  N_53
REMARK    4  A    between atoms: N_5  and  C_14
REMARK    5  A    between atoms: C_7  and  C_8
REMARK    6  A    between atoms: C_20  and  N_21
REMARK    7  A    between atoms: C_20  and  N_53
REMARK                            x       y       z     vdW  Elec       q    Type
REMARK                         _______ _______ _______ _____ _____    ______ ____
ROOT
ATOM      1  C   UNL     1       1.068   1.886   0.002  0.00  0.00    -0.018 A 
ATOM      2  C   UNL     1      -0.013   1.076   0.008  0.00  0.00    +0.116 A 
ATOM      3  N   UNL     1      -1.121   1.861   0.017  0.00  0.00    -0.239 N 
ATOM      4  N   UNL     1      -0.705   3.198   0.025  0.00  0.00    -0.166 NA
ATOM      5  C   UNL     1       0.611   3.218   0.013  0.00  0.00    +0.094 A 
ENDROOT
BRANCH   5   6
ATOM      6  C   UNL     1       1.464   4.433   0.012  0.00  0.00    +0.002 A 
ATOM      7  C   UNL     1       2.677   4.436   0.697  0.00  0.00    +0.010 A 
ATOM      8  C   UNL     1       3.469   5.566   0.688  0.00  0.00    +0.001 A 
ATOM      9  C   UNL     1       3.055   6.698   0.010  0.00  0.00    +0.000 A 
ATOM     10  C   UNL     1       1.849   6.702  -0.668  0.00  0.00    +0.001 A 
ATOM     11  C   UNL     1       1.052   5.576  -0.670  0.00  0.00    +0.010 A 
ENDBRANCH   5   6
BRANCH   3  12
ATOM     12  C   UNL     1      -2.449   1.411   0.020  0.00  0.00    +0.065 A 
ATOM     13  C   UNL     1      -2.722   0.050   0.009  0.00  0.00    +0.028 A 
ATOM     14  C   UNL     1      -4.031  -0.390   0.017  0.00  0.00    +0.002 A 
ATOM     15  C   UNL     1      -5.069   0.523   0.026  0.00  0.00    +0.000 A 
ATOM     16  C   UNL     1      -4.800   1.880   0.032  0.00  0.00    +0.002 A 
ATOM     17  C   UNL     1      -3.493   2.326   0.029  0.00  0.00    +0.028 A 
ENDBRANCH   3  12
BRANCH   1  18
ATOM     18  C   UNL     1       2.509   1.443  -0.014  0.00  0.00    -0.037 C 
BRANCH  18  20
ATOM     19  C   UNL     1       2.406   0.553   2.236  0.00  0.00    -0.093 C 
ATOM     20  N   UNL     1       3.055   1.548   1.356  0.00  0.00    +0.393 N 
ATOM     21  H   UNL     1       2.864   2.489   1.720  0.00  0.00    -0.079 HD
BRANCH  20  22
ATOM     22  C   UNL     1       4.516   1.327   1.335  0.00  0.00    +0.054 C 
BRANCH  22  23
ATOM     23  N   UNL     1       5.103   1.973   2.512  0.00  0.00    -0.291 N 
ATOM     24  C   UNL     1       5.311   1.383   3.759  0.00  0.00    +0.088 A 
ATOM     25  C   UNL     1       5.061   0.118   4.267  0.00  0.00    +0.029 A 
ATOM     26  C   UNL     1       5.386  -0.173   5.577  0.00  0.00    +0.002 A 
ATOM     27  C   UNL     1       5.960   0.795   6.383  0.00  0.00    +0.004 A 
ATOM     28  C   UNL     1       6.212   2.058   5.884  0.00  0.00    +0.048 A 
ATOM     29  C   UNL     1       5.889   2.359   4.570  0.00  0.00    +0.157 A 
ATOM     30  O   UNL     1       6.015   3.482   3.821  0.00  0.00    -0.407 OA
ATOM     31  C   UNL     1       5.547   3.243   2.586  0.00  0.00    +0.420 A 
ATOM     32  O   UNL     1       5.524   4.049   1.675  0.00  0.00    -0.223 OA
ENDBRANCH  22  23
ENDBRANCH  20  22
ENDBRANCH  18  20
ENDBRANCH   1  18
TORSDOF 6
