REMARK  Name = ZINC40861194
REMARK  3 active torsions:
REMARK  status: ('A' for Active; 'I' for Inactive)
REMARK    1  A    between atoms: C_6  and  N_7
REMARK    2  A    between atoms: N_7  and  S_8
REMARK    3  A    between atoms: S_8  and  N_11
REMARK                            x       y       z     vdW  Elec       q    Type
REMARK                         _______ _______ _______ _____ _____    ______ ____
ROOT
ATOM      1  C   UNL     1      -0.017   1.385   0.010  0.00  0.00    +0.026 A 
ATOM      2  C   UNL     1       1.169   2.091   0.002  0.00  0.00    +0.025 A 
ATOM      3  C   UNL     1       2.381   1.414  -0.013  0.00  0.00    +0.037 A 
ATOM      4  C   UNL     1       2.400   0.025  -0.020  0.00  0.00    -0.024 A 
ATOM      5  C   UNL     1       1.215  -0.682  -0.013  0.00  0.00    +0.030 A 
ATOM      6  C   UNL     1       0.002  -0.004   0.002  0.00  0.00    +0.049 A 
ATOM      7  C   UNL     1       3.717  -0.707  -0.035  0.00  0.00    +0.046 C 
ATOM      8  C   UNL     1       4.737   0.093  -0.846  0.00  0.00    +0.101 C 
ATOM      9  C   UNL     1       4.730   1.531  -0.402  0.00  0.00    +0.218 C 
ATOM     10  O   UNL     1       5.767   2.160  -0.389  0.00  0.00    -0.275 OA
ATOM     11  N   UNL     1       3.586   2.128  -0.020  0.00  0.00    -0.285 N 
ATOM     12  H   UNL     1       3.596   3.059   0.252  0.00  0.00    +0.155 HD
ENDROOT
BRANCH   6  13
ATOM     13  N   UNL     1      -1.200  -0.720   0.010  0.00  0.00    -0.206 N 
ATOM     14  H   UNL     1      -1.307  -1.482   0.601  0.00  0.00    +0.175 HD
BRANCH  13  15
ATOM     15  S   UNL     1      -2.440  -0.267  -0.990  0.00  0.00    +0.112 S 
ATOM     16  O   UNL     1      -3.496  -1.192  -0.771  0.00  0.00    -0.138 OA
ATOM     17  O   UNL     1      -2.607   1.134  -0.821  0.00  0.00    -0.138 OA
BRANCH  15  18
ATOM     18  N   UNL     1      -1.923  -0.498  -2.546  0.00  0.00    -0.161 NA
ATOM     19  C   UNL     1      -1.231   0.573  -3.279  0.00  0.00    +0.126 C 
ATOM     20  C   UNL     1      -1.922   0.761  -4.634  0.00  0.00    +0.098 C 
ATOM     21  N   UNL     1      -1.983  -0.530  -5.332  0.00  0.00    -0.313 NA
ATOM     22  C   UNL     1      -2.799  -1.500  -4.589  0.00  0.00    +0.098 C 
ATOM     23  C   UNL     1      -2.138  -1.782  -3.231  0.00  0.00    +0.126 C 
ATOM     24  H   UNL     1      -2.326  -0.415  -6.274  0.00  0.00    +0.122 HD
ENDBRANCH  15  18
ENDBRANCH  13  15
ENDBRANCH   6  13
TORSDOF 3
