REMARK  Name = ZINC15224374
REMARK  3 active torsions:
REMARK  status: ('A' for Active; 'I' for Inactive)
REMARK    1  A    between atoms: C_6  and  N_7
REMARK    2  A    between atoms: C_13  and  C_14
REMARK    3  A    between atoms: C_17  and  N_19
REMARK                            x       y       z     vdW  Elec       q    Type
REMARK                         _______ _______ _______ _____ _____    ______ ____
ROOT
ATOM      1  N   UNL     1      -1.173  -0.707   0.010  0.00  0.00    -0.226 NA
ATOM      2  C   UNL     1      -1.331  -1.732  -0.799  0.00  0.00    +0.166 C 
ATOM      3  N   UNL     1      -0.444  -2.256  -1.718  0.00  0.00    -0.260 N 
ATOM      4  C   UNL     1      -0.788  -3.301  -2.449  0.00  0.00    +0.257 C 
ATOM      5  O   UNL     1      -0.015  -3.775  -3.264  0.00  0.00    -0.269 OA
ATOM      6  C   UNL     1      -2.082  -3.862  -2.264  0.00  0.00    +0.081 C 
ATOM      7  C   UNL     1      -2.665  -4.937  -2.897  0.00  0.00    +0.066 C 
ATOM      8  S   UNL     1      -2.747  -2.805  -0.986  0.00  0.00    -0.049 S 
ATOM      9  H   UNL     1       0.434  -1.857  -1.826  0.00  0.00    +0.157 HD
ENDROOT
BRANCH   1  15
ATOM     10  C   UNL     1      -0.017   1.392   0.010  0.00  0.00    +0.030 A 
ATOM     11  C   UNL     1       1.170   2.095   0.002  0.00  0.00    +0.040 A 
ATOM     12  C   UNL     1       2.379   1.419  -0.013  0.00  0.00    +0.124 A 
ATOM     13  C   UNL     1       2.404   0.034  -0.022  0.00  0.00    +0.040 A 
ATOM     14  C   UNL     1       1.224  -0.680  -0.014  0.00  0.00    +0.030 A 
ATOM     15  C   UNL     1       0.002  -0.004   0.002  0.00  0.00    +0.067 A 
ATOM     16  F   UNL     1       3.538   2.113  -0.021  0.00  0.00    -0.205 F 
ENDBRANCH   1  15
BRANCH   7  17
ATOM     17  C   UNL     1      -3.973  -5.329  -2.557  0.00  0.00    +0.131 A 
ATOM     18  C   UNL     1      -4.675  -6.389  -3.107  0.00  0.00    +0.051 A 
ATOM     19  C   UNL     1      -5.923  -6.412  -2.479  0.00  0.00    +0.066 A 
ATOM     20  C   UNL     1      -5.943  -5.383  -1.583  0.00  0.00    +0.189 A 
ATOM     21  O   UNL     1      -4.765  -4.742  -1.632  0.00  0.00    -0.442 OA
BRANCH  20  22
ATOM     22  N   UNL     1      -7.000  -5.059  -0.755  0.00  0.00    -0.301 N 
ATOM     23  C   UNL     1      -8.287  -5.768  -0.691  0.00  0.00    +0.108 C 
ATOM     24  C   UNL     1      -9.161  -5.037   0.351  0.00  0.00    +0.020 C 
ATOM     25  C   UNL     1      -8.528  -3.622   0.404  0.00  0.00    +0.020 C 
ATOM     26  C   UNL     1      -7.024  -3.949   0.214  0.00  0.00    +0.108 C 
ENDBRANCH  20  22
ENDBRANCH   7  17
TORSDOF 3
