REMARK  Name = ZINC07668241
REMARK  9 active torsions:
REMARK  status: ('A' for Active; 'I' for Inactive)
REMARK    1  A    between atoms: C_1  and  N_43
REMARK    2  A    between atoms: C_2  and  C_3
REMARK    3  A    between atoms: C_2  and  N_43
REMARK    4  A    between atoms: C_6  and  O_9
REMARK    5  A    between atoms: O_9  and  C_10
REMARK    6  A    between atoms: C_11  and  C_12
REMARK    7  A    between atoms: C_11  and  N_43
REMARK    8  A    between atoms: N_14  and  C_15
REMARK    9  A    between atoms: C_20  and  N_21
REMARK                            x       y       z     vdW  Elec       q    Type
REMARK                         _______ _______ _______ _____ _____    ______ ____
ROOT
ATOM      1  C   UNL     1       0.752  -4.543  -2.885  0.00  0.00    +0.201 C 
ATOM      2  O   UNL     1       0.774  -3.717  -3.773  0.00  0.00    -0.278 OA
ATOM      3  N   UNL     1       0.518  -5.838  -3.175  0.00  0.00    -0.285 N 
ATOM      4  H   UNL     1       0.579  -6.510  -2.478  0.00  0.00    +0.155 HD
ENDROOT
BRANCH   3   5
ATOM      5  C   UNL     1       0.187  -6.214  -4.482  0.00  0.00    +0.064 A 
ATOM      6  C   UNL     1      -0.405  -5.297  -5.341  0.00  0.00    +0.027 A 
ATOM      7  C   UNL     1      -0.730  -5.670  -6.630  0.00  0.00    +0.022 A 
ATOM      8  C   UNL     1      -0.466  -6.957  -7.067  0.00  0.00    +0.043 A 
ATOM      9  C   UNL     1       0.124  -7.872  -6.213  0.00  0.00    +0.054 A 
ATOM     10  C   UNL     1       0.456  -7.502  -4.925  0.00  0.00    +0.149 A 
ATOM     11 CL   UNL     1      -0.876  -7.423  -8.688  0.00  0.00    -0.083 Cl
BRANCH  10  12
ATOM     12  N   UNL     1       1.093  -8.480  -4.014  0.00  0.00    +0.058 N 
ATOM     13  O   UNL     1       1.411  -9.581  -4.428  0.00  0.00    -0.126 OA
ATOM     14  O   UNL     1       1.299  -8.184  -2.851  0.00  0.00    -0.126 OA
ENDBRANCH  10  12
ENDBRANCH   3   5
BRANCH   1  15
ATOM     15  C   UNL     1       0.984  -4.120  -1.458  0.00  0.00    +0.019 C 
BRANCH  15  17
ATOM     16  C   UNL     1       2.466  -2.312  -2.086  0.00  0.00    -0.095 C 
ATOM     17  N   UNL     1       1.192  -2.658  -1.421  0.00  0.00    +0.386 N 
ATOM     18  H   UNL     1       0.420  -2.199  -1.919  0.00  0.00    -0.081 HD
BRANCH  17  19
ATOM     19  C   UNL     1       1.209  -2.185  -0.021  0.00  0.00    -0.043 C 
BRANCH  19  20
ATOM     20  C   UNL     1       1.200  -0.678  -0.016  0.00  0.00    -0.064 A 
ATOM     21  C   UNL     1      -0.002   0.005  -0.016  0.00  0.00    +0.005 A 
ATOM     22  C   UNL     1      -0.013   1.387  -0.012  0.00  0.00    +0.046 A 
ATOM     23  C   UNL     1       1.183   2.089  -0.008  0.00  0.00    +0.120 A 
ATOM     24  C   UNL     1       2.388   1.401  -0.008  0.00  0.00    +0.046 A 
ATOM     25  C   UNL     1       2.394   0.020  -0.012  0.00  0.00    +0.005 A 
BRANCH  23  26
ATOM     26  O   UNL     1       1.175   3.448  -0.004  0.00  0.00    -0.495 OA
ATOM     27  C   UNL     1       2.445   4.104   0.000  0.00  0.00    +0.277 C 
ENDBRANCH  23  26
ENDBRANCH  19  20
ENDBRANCH  17  19
ENDBRANCH  15  17
ENDBRANCH   1  15
TORSDOF 7
