REMARK  Name = ZINC39542585
REMARK  6 active torsions:
REMARK  status: ('A' for Active; 'I' for Inactive)
REMARK    1  A    between atoms: C_1  and  C_2
REMARK    2  A    between atoms: C_3  and  C_8
REMARK    3  A    between atoms: C_4  and  C_7
REMARK    4  A    between atoms: C_18  and  C_20
REMARK    5  A    between atoms: C_21  and  C_27
REMARK    6  A    between atoms: N_25  and  C_26
REMARK                            x       y       z     vdW  Elec       q    Type
REMARK                         _______ _______ _______ _____ _____    ______ ____
ROOT
ATOM      1  C   UNL     1      -0.453  -0.113  -1.951  0.00  0.00    +0.086 C 
ATOM      2  N   UNL     1       0.462   0.681  -2.448  0.00  0.00    -0.153 NA
ATOM      3  N   UNL     1       0.006   1.367  -3.574  0.00  0.00    -0.158 NA
ATOM      4  C   UNL     1      -1.190   1.046  -3.885  0.00  0.00    +0.053 C 
ATOM      5  C   UNL     1      -1.683   0.100  -2.796  0.00  0.00    +0.104 C 
ATOM      6  C   UNL     1      -2.124  -1.181  -3.511  0.00  0.00    +0.123 C 
ATOM      7  N   UNL     1      -3.016  -0.790  -4.614  0.00  0.00    -0.296 N 
ATOM      8  C   UNL     1      -2.550   0.101  -5.681  0.00  0.00    +0.114 C 
ATOM      9  C   UNL     1      -2.050   1.427  -5.063  0.00  0.00    +0.072 C 
ATOM     10  C   UNL     1      -4.280  -1.257  -4.644  0.00  0.00    +0.255 C 
ATOM     11  O   UNL     1      -4.696  -1.946  -3.731  0.00  0.00    -0.269 OA
ENDROOT
BRANCH  10  12
ATOM     12  C   UNL     1      -5.152  -0.937  -5.774  0.00  0.00    +0.098 A 
ATOM     13  C   UNL     1      -6.533  -0.819  -5.822  0.00  0.00    +0.060 A 
ATOM     14  N   UNL     1      -7.052  -0.518  -6.986  0.00  0.00    -0.229 NA
ATOM     15  C   UNL     1      -6.293  -0.338  -8.053  0.00  0.00    +0.159 A 
ATOM     16  S   UNL     1      -4.732  -0.581  -7.473  0.00  0.00    -0.048 S 
ATOM     17  N   UNL     1      -6.686  -0.021  -9.335  0.00  0.00    -0.327 N 
ATOM     18  C   UNL     1      -8.108   0.157  -9.643  0.00  0.00    +0.127 C 
ATOM     19  C   UNL     1      -7.391  -1.026  -4.600  0.00  0.00    +0.067 C 
ATOM     20  H   UNL     1      -6.022   0.084 -10.034  0.00  0.00    +0.148 HD
ENDBRANCH  10  12
BRANCH   1  23
ATOM     21  C   UNL     1      -1.050   0.603   1.148  0.00  0.00    +0.070 C 
ATOM     22  C   UNL     1      -0.575  -0.717   0.597  0.00  0.00    +0.090 A 
ATOM     23  C   UNL     1      -0.308  -1.027  -0.809  0.00  0.00    +0.063 A 
ATOM     24  C   UNL     1       0.101  -2.331  -0.855  0.00  0.00    +0.143 A 
ATOM     25  O   UNL     1       0.098  -2.809   0.393  0.00  0.00    -0.359 OA
ATOM     26  N   UNL     1      -0.319  -1.792   1.282  0.00  0.00    -0.083 NA
ATOM     27  C   UNL     1       0.487  -3.095  -2.096  0.00  0.00    +0.090 C 
ENDBRANCH   1  23
TORSDOF 2
