REMARK  Name = ZINC01057502
REMARK  8 active torsions:
REMARK  status: ('A' for Active; 'I' for Inactive)
REMARK    1  A    between atoms: C_1  and  C_2
REMARK    2  A    between atoms: C_2  and  C_3
REMARK    3  A    between atoms: C_2  and  C_4
REMARK    4  A    between atoms: C_2  and  C_5
REMARK    5  A    between atoms: C_5  and  C_7
REMARK    6  A    between atoms: C_9  and  C_27
REMARK    7  A    between atoms: C_11  and  C_23
REMARK    8  A    between atoms: C_11  and  C_25
REMARK                            x       y       z     vdW  Elec       q    Type
REMARK                         _______ _______ _______ _____ _____    ______ ____
ROOT
ATOM      1  C   UNL     1      -0.793  -0.547  -1.212  0.00  0.00    +0.151 C 
ATOM      2  C   UNL     1       0.002  -0.004   0.002  0.00  0.00    +0.083 C 
ATOM      3  C   UNL     1      -0.739  -0.561   1.249  0.00  0.00    +0.173 C 
ATOM      4  C   UNL     1      -1.479  -1.777   0.666  0.00  0.00    +0.132 C 
ATOM      5  N   UNL     1      -1.936  -1.261  -0.651  0.00  0.00    -0.310 N 
ATOM      6  C   UNL     1      -2.530  -2.267  -1.371  0.00  0.00    +0.038 A 
ATOM      7  C   UNL     1      -2.309  -2.481  -2.718  0.00  0.00    +0.024 A 
ATOM      8  C   UNL     1      -2.945  -3.525  -3.364  0.00  0.00    +0.002 A 
ATOM      9  C   UNL     1      -3.806  -4.360  -2.672  0.00  0.00    +0.001 A 
ATOM     10  C   UNL     1      -4.042  -4.160  -1.325  0.00  0.00    +0.010 A 
ATOM     11  C   UNL     1      -3.411  -3.115  -0.664  0.00  0.00    -0.004 A 
ATOM     12  C   UNL     1      -3.644  -2.852   0.775  0.00  0.00    +0.007 C 
ATOM     13  C   UNL     1      -2.676  -2.201   1.463  0.00  0.00    -0.002 C 
ENDROOT
BRANCH   2  14
ATOM     14  C   UNL     1      -0.018   1.503   0.010  0.00  0.00    -0.040 A 
ATOM     15  C   UNL     1      -1.225   2.178   0.020  0.00  0.00    +0.004 A 
ATOM     16  C   UNL     1      -1.244   3.560   0.032  0.00  0.00    +0.000 A 
ATOM     17  C   UNL     1      -0.056   4.267   0.025  0.00  0.00    +0.000 A 
ATOM     18  C   UNL     1       1.151   3.592   0.010  0.00  0.00    +0.000 A 
ATOM     19  C   UNL     1       1.169   2.210   0.003  0.00  0.00    +0.004 A 
ENDBRANCH   2  14
BRANCH   1  20
ATOM     20  C   UNL     1       0.065  -1.488  -2.017  0.00  0.00    +0.159 C 
ATOM     21  O   UNL     1      -0.122  -2.680  -1.952  0.00  0.00    -0.295 OA
BRANCH  20  23
ATOM     22  C   UNL     1       1.870  -2.101  -3.602  0.00  0.00    +0.018 C 
ATOM     23  C   UNL     1       1.155  -0.944  -2.902  0.00  0.00    +0.022 C 
ATOM     24  C   UNL     1       0.543  -0.013  -3.951  0.00  0.00    +0.018 C 
ATOM     25  C   UNL     1       2.160  -0.163  -2.053  0.00  0.00    +0.018 C 
ENDBRANCH  20  23
ENDBRANCH   1  20
BRANCH   3  26
ATOM     26  C   UNL     1       0.218  -0.977   2.287  0.00  0.00    +0.087 C 
ATOM     27  N   UNL     1       0.957  -1.298   3.088  0.00  0.00    -0.195 NA
ENDBRANCH   3  26
BRANCH   3  28
ATOM     28  C   UNL     1      -1.691   0.428   1.781  0.00  0.00    +0.087 C 
ATOM     29  N   UNL     1      -2.425   1.191   2.191  0.00  0.00    -0.195 NA
ENDBRANCH   3  28
TORSDOF 5
