REMARK  Name = ZINC06993191
REMARK  3 active torsions:
REMARK  status: ('A' for Active; 'I' for Inactive)
REMARK    1  A    between atoms: C_3  and  O_23
REMARK    2  A    between atoms: C_6  and  C_7
REMARK    3  A    between atoms: N_9  and  N_10
REMARK                            x       y       z     vdW  Elec       q    Type
REMARK                         _______ _______ _______ _____ _____    ______ ____
ROOT
ATOM      1  C   UNL     1       0.002  -0.004   0.002  0.00  0.00    +0.261 C 
ATOM      2  O   UNL     1       1.063  -0.598  -0.011  0.00  0.00    -0.269 OA
ATOM      3  N   UNL     1      -0.016   1.344   0.009  0.00  0.00    -0.220 N 
ATOM      4  H   UNL     1      -0.863   1.817   0.016  0.00  0.00    +0.174 HD
ENDROOT
BRANCH   3   5
ATOM      5  N   UNL     1       1.187   2.061   0.002  0.00  0.00    -0.137 N 
ATOM      6  C   UNL     1       1.681   2.702  -1.077  0.00  0.00    +0.263 C 
ATOM      7  O   UNL     1       1.187   2.767  -2.183  0.00  0.00    -0.271 OA
ATOM      8  C   UNL     1       2.979   3.325  -0.618  0.00  0.00    +0.114 C 
ATOM      9  C   UNL     1       2.916   4.843  -0.746  0.00  0.00    +0.035 C 
ATOM     10  C   UNL     1       4.228   5.455  -0.250  0.00  0.00    +0.003 C 
ATOM     11  C   UNL     1       5.391   4.905  -1.079  0.00  0.00    +0.000 C 
ATOM     12  C   UNL     1       5.457   3.385  -0.920  0.00  0.00    +0.003 C 
ATOM     13  C   UNL     1       4.150   2.764  -1.419  0.00  0.00    +0.035 C 
ATOM     14  N   UNL     1       3.084   2.931   0.792  0.00  0.00    -0.284 N 
ATOM     15  C   UNL     1       1.988   2.198   1.066  0.00  0.00    +0.326 C 
ATOM     16  O   UNL     1       1.753   1.714   2.156  0.00  0.00    -0.251 OA
ATOM     17  H   UNL     1       3.800   3.157   1.407  0.00  0.00    +0.151 HD
ENDBRANCH   3   5
BRANCH   1  23
ATOM     18  C   UNL     1      -2.486  -0.079   0.031  0.00  0.00    +0.017 A 
ATOM     19  C   UNL     1      -3.668  -0.787   0.035  0.00  0.00    +0.047 A 
ATOM     20  C   UNL     1      -3.648  -2.176   0.027  0.00  0.00    +0.135 A 
ATOM     21  C   UNL     1      -2.435  -2.858   0.010  0.00  0.00    +0.083 A 
ATOM     22  C   UNL     1      -1.249  -2.157   0.002  0.00  0.00    +0.036 A 
ATOM     23  C   UNL     1      -1.266  -0.759   0.010  0.00  0.00    +0.040 A 
ATOM     24 CL   UNL     1      -2.416  -4.594   0.001  0.00  0.00    -0.080 Cl
BRANCH  20  25
ATOM     25  O   UNL     1      -4.814  -2.870   0.035  0.00  0.00    -0.505 OA
ATOM     26  H   UNL     1      -5.143  -3.076   0.921  0.00  0.00    +0.292 HD
ENDBRANCH  20  25
ENDBRANCH   1  23
TORSDOF 3
