REMARK  Name = ZINC65232322
REMARK  5 active torsions:
REMARK  status: ('A' for Active; 'I' for Inactive)
REMARK    1  A    between atoms: C_1  and  C_2
REMARK    2  A    between atoms: C_3  and  C_23
REMARK    3  A    between atoms: C_5  and  C_7
REMARK    4  A    between atoms: N_15  and  C_16
REMARK    5  A    between atoms: C_16  and  C_17
REMARK                            x       y       z     vdW  Elec       q    Type
REMARK                         _______ _______ _______ _____ _____    ______ ____
ROOT
ATOM      1  C   UNL     1       1.599  -3.264  -0.025  0.00  0.00    +0.078 C 
ATOM      2  C   UNL     1       2.474  -3.231  -1.280  0.00  0.00    +0.032 C 
ATOM      3  C   UNL     1       3.371  -4.473  -1.305  0.00  0.00    +0.110 C 
ATOM      4  N   UNL     1       4.124  -4.538  -0.045  0.00  0.00    -0.286 N 
ATOM      5  C   UNL     1       3.385  -4.486   1.223  0.00  0.00    +0.110 C 
ATOM      6  C   UNL     1       2.488  -3.244   1.220  0.00  0.00    +0.032 C 
ATOM      7  C   UNL     1       5.468  -4.644  -0.053  0.00  0.00    +0.302 C 
ATOM      8  O   UNL     1       6.061  -4.779  -1.105  0.00  0.00    -0.253 OA
ATOM      9  N   UNL     1       6.154  -4.601   1.107  0.00  0.00    -0.297 N 
ATOM     10  H   UNL     1       5.677  -4.568   1.951  0.00  0.00    +0.150 HD
ENDROOT
BRANCH   1  15
ATOM     11  C   UNL     1      -0.012   1.509   0.010  0.00  0.00    +0.089 C 
ATOM     12  C   UNL     1       0.007   0.002   0.001  0.00  0.00    +0.135 A 
ATOM     13  C   UNL     1      -1.076  -0.822   0.002  0.00  0.00    +0.167 A 
ATOM     14  N   UNL     1      -0.608  -2.099  -0.008  0.00  0.00    -0.208 NA
ATOM     15  C   UNL     1       0.691  -2.061  -0.014  0.00  0.00    +0.200 A 
ATOM     16  O   UNL     1       1.096  -0.783  -0.014  0.00  0.00    -0.444 OA
BRANCH  13  17
ATOM     17  C   UNL     1      -2.491  -0.408   0.012  0.00  0.00    +0.268 C 
ATOM     18  O   UNL     1      -2.779   0.774   0.021  0.00  0.00    -0.268 OA
ATOM     19  N   UNL     1      -3.466  -1.339   0.011  0.00  0.00    -0.296 N 
ATOM     20  C   UNL     1      -3.260  -2.794   0.007  0.00  0.00    +0.108 C 
ATOM     21  C   UNL     1      -4.655  -3.454  -0.019  0.00  0.00    +0.020 C 
ATOM     22  C   UNL     1      -5.558  -2.334  -0.599  0.00  0.00    +0.020 C 
ATOM     23  C   UNL     1      -4.914  -1.066   0.020  0.00  0.00    +0.108 C 
ENDBRANCH  13  17
ENDBRANCH   1  15
BRANCH   9  24
ATOM     24  C   UNL     1       7.619  -4.605   1.091  0.00  0.00    +0.137 C 
BRANCH  24  25
ATOM     25  C   UNL     1       8.144  -4.551   2.528  0.00  0.00    +0.135 C 
ATOM     26  C   UNL     1       9.683  -4.432   2.518  0.00  0.00    +0.035 C 
ATOM     27  C   UNL     1      10.091  -5.350   3.703  0.00  0.00    +0.031 C 
ATOM     28  C   UNL     1       9.004  -6.450   3.611  0.00  0.00    +0.160 C 
ATOM     29  O   UNL     1       7.805  -5.761   3.215  0.00  0.00    -0.375 OA
ENDBRANCH  24  25
ENDBRANCH   9  24
TORSDOF 4
