REMARK  Name = ZINC64452285
REMARK  5 active torsions:
REMARK  status: ('A' for Active; 'I' for Inactive)
REMARK    1  A    between atoms: C_5  and  C_12
REMARK    2  A    between atoms: C_15  and  C_18
REMARK    3  A    between atoms: C_18  and  N_19
REMARK    4  A    between atoms: C_21  and  S_24
REMARK    5  A    between atoms: S_24  and  N_27
REMARK                            x       y       z     vdW  Elec       q    Type
REMARK                         _______ _______ _______ _____ _____    ______ ____
ROOT
ATOM      1  C   UNL     1       5.444   0.947   1.208  0.00  0.00    +0.318 C 
ATOM      2  N   UNL     1       6.434  -0.141   1.178  0.00  0.00    -0.290 N 
ATOM      3  C   UNL     1       7.676   0.451   1.169  0.00  0.00    +0.157 C 
ATOM      4  N   UNL     1       7.587   1.731   1.188  0.00  0.00    -0.070 NA
ATOM      5  O   UNL     1       6.232   2.148   1.215  0.00  0.00    -0.367 OA
ATOM      6  H   UNL     1       6.247  -1.093   1.167  0.00  0.00    +0.151 HD
ENDROOT
BRANCH   1  11
ATOM      7  C   UNL     1      -0.017   1.399   0.010  0.00  0.00    +0.022 A 
ATOM      8  C   UNL     1       1.109   2.143   0.003  0.00  0.00    +0.027 A 
ATOM      9  C   UNL     1       2.385   1.516  -0.013  0.00  0.00    +0.043 A 
ATOM     10  N   UNL     1       3.600   2.009  -0.022  0.00  0.00    -0.373 N 
ATOM     11  C   UNL     1       4.557   0.897  -0.038  0.00  0.00    +0.165 C 
ATOM     12  C   UNL     1       3.724  -0.366  -0.036  0.00  0.00    +0.012 C 
ATOM     13  C   UNL     1       2.433   0.036  -0.021  0.00  0.00    -0.002 A 
ATOM     14  C   UNL     1       1.163  -0.699  -0.013  0.00  0.00    +0.029 A 
ATOM     15  C   UNL     1       0.002  -0.004   0.002  0.00  0.00    +0.042 A 
ATOM     16 CL   UNL     1      -1.502  -0.870   0.012  0.00  0.00    -0.084 Cl
ATOM     17  H   UNL     1       3.828   2.952  -0.020  0.00  0.00    +0.160 HD
ENDBRANCH   1  11
BRANCH   3  18
ATOM     18  C   UNL     1       8.977  -0.309   1.140  0.00  0.00    +0.197 C 
BRANCH  18  19
ATOM     19  N   UNL     1      10.095   0.638   1.137  0.00  0.00    -0.328 N 
ATOM     20  C   UNL     1      10.696   1.182   0.034  0.00  0.00    +0.136 A 
ATOM     21  C   UNL     1      11.671   1.995   0.482  0.00  0.00    +0.211 A 
ATOM     22  N   UNL     1      11.667   1.948   1.823  0.00  0.00    -0.216 NA
ATOM     23  C   UNL     1      10.722   1.141   2.222  0.00  0.00    +0.202 A 
BRANCH  21  24
ATOM     24  S   UNL     1      12.763   2.951  -0.516  0.00  0.00    +0.080 S 
ATOM     25  O   UNL     1      13.954   2.191  -0.660  0.00  0.00    -0.151 OA
ATOM     26  O   UNL     1      12.005   3.398  -1.633  0.00  0.00    -0.151 OA
BRANCH  24  27
ATOM     27  N   UNL     1      13.165   4.302   0.353  0.00  0.00    -0.171 NA
ATOM     28  C   UNL     1      12.359   5.529   0.263  0.00  0.00    +0.137 C 
ATOM     29  C   UNL     1      12.020   5.991   1.685  0.00  0.00    +0.177 C 
ATOM     30  O   UNL     1      13.224   6.077   2.451  0.00  0.00    -0.377 OA
ATOM     31  C   UNL     1      13.905   4.831   2.614  0.00  0.00    +0.177 C 
ATOM     32  C   UNL     1      14.337   4.308   1.244  0.00  0.00    +0.137 C 
ENDBRANCH  24  27
ENDBRANCH  21  24
ENDBRANCH  18  19
ENDBRANCH   3  18
TORSDOF 5
