REMARK  Name = ZINC15319645
REMARK  9 active torsions:
REMARK  status: ('A' for Active; 'I' for Inactive)
REMARK    1  A    between atoms: C_1  and  C_2
REMARK    2  A    between atoms: C_3  and  C_31
REMARK    3  A    between atoms: C_4  and  C_25
REMARK    4  A    between atoms: C_10  and  C_20
REMARK    5  A    between atoms: C_12  and  C_16
REMARK    6  A    between atoms: C_16  and  O_18
REMARK    7  A    between atoms: O_18  and  C_19
REMARK    8  A    between atoms: C_31  and  O_33
REMARK    9  A    between atoms: O_33  and  C_34
REMARK                            x       y       z     vdW  Elec       q    Type
REMARK                         _______ _______ _______ _____ _____    ______ ____
ROOT
ATOM      1  C   UNL     1       0.304   2.730   0.354  0.00  0.00    +0.061 C 
ATOM      2  C   UNL     1      -0.602   2.911   1.544  0.00  0.00    +0.031 C 
ATOM      3  C   UNL     1      -1.118   4.123   1.812  0.00  0.00    +0.154 C 
ATOM      4  C   UNL     1      -2.025   4.340   2.989  0.00  0.00    +0.075 C 
ATOM      5  C   UNL     1      -2.578   3.031   3.494  0.00  0.00    +0.026 C 
ATOM      6  C   UNL     1      -1.987   1.864   3.168  0.00  0.00    +0.049 C 
ATOM      7  N   UNL     1      -0.894   1.842   2.344  0.00  0.00    -0.260 NA
ATOM      8  C   UNL     1      -2.523   0.550   3.685  0.00  0.00    +0.065 C 
ATOM      9  C   UNL     1      -4.040   0.653   3.873  0.00  0.00    +0.053 C 
ATOM     10  C   UNL     1      -4.331   1.798   4.849  0.00  0.00    +0.176 C 
ATOM     11  C   UNL     1      -3.718   3.064   4.316  0.00  0.00    +0.176 C 
ATOM     12  O   UNL     1      -4.216   4.134   4.602  0.00  0.00    -0.291 OA
ENDROOT
BRANCH   4  13
ATOM     13  C   UNL     1      -1.251   5.010   4.095  0.00  0.00    -0.021 A 
ATOM     14  C   UNL     1      -1.626   6.263   4.556  0.00  0.00    +0.007 A 
ATOM     15  C   UNL     1      -0.885   6.841   5.575  0.00  0.00    +0.020 A 
ATOM     16  C   UNL     1       0.197   6.154   6.093  0.00  0.00    +0.111 A 
ATOM     17  N   UNL     1       0.525   4.964   5.630  0.00  0.00    -0.263 NA
ATOM     18  C   UNL     1      -0.161   4.382   4.666  0.00  0.00    +0.115 A 
ENDBRANCH   4  13
BRANCH   9  19
ATOM     19  C   UNL     1      -4.568  -0.641   4.438  0.00  0.00    -0.006 A 
ATOM     20  C   UNL     1      -5.591  -1.411   3.994  0.00  0.00    +0.011 A 
ATOM     21  C   UNL     1      -5.901  -2.573   4.677  0.00  0.00    +0.008 A 
ATOM     22  C   UNL     1      -5.178  -2.901   5.776  0.00  0.00    +0.045 A 
ATOM     23  S   UNL     1      -4.014  -1.552   5.870  0.00  0.00    -0.101 S 
ENDBRANCH   9  19
BRANCH  10  24
ATOM     24  C   UNL     1      -3.736   1.475   6.196  0.00  0.00    +0.318 C 
ATOM     25  O   UNL     1      -2.550   1.609   6.380  0.00  0.00    -0.250 OA
BRANCH  24  26
ATOM     26  O   UNL     1      -4.525   1.039   7.191  0.00  0.00    -0.467 OA
ATOM     27  C   UNL     1      -3.884   0.748   8.461  0.00  0.00    +0.280 C 
ENDBRANCH  24  26
ENDBRANCH  10  24
BRANCH   3  28
ATOM     28  C   UNL     1      -0.801   5.214   0.969  0.00  0.00    +0.316 C 
ATOM     29  O   UNL     1      -0.068   5.050   0.012  0.00  0.00    -0.250 OA
BRANCH  28  30
ATOM     30  O   UNL     1      -1.312   6.436   1.227  0.00  0.00    -0.467 OA
ATOM     31  C   UNL     1      -0.950   7.492   0.334  0.00  0.00    +0.280 C 
ENDBRANCH  28  30
ENDBRANCH   3  28
TORSDOF 6
