REMARK  Name = ZINC04483483
REMARK  3 active torsions:
REMARK  status: ('A' for Active; 'I' for Inactive)
REMARK    1  A    between atoms: C_6  and  C_7
REMARK    2  A    between atoms: C_7  and  N_8
REMARK    3  A    between atoms: N_15  and  C_18
REMARK                            x       y       z     vdW  Elec       q    Type
REMARK                         _______ _______ _______ _____ _____    ______ ____
ROOT
ATOM      1  N   UNL     1      -1.726  -1.017  -1.368  0.00  0.00    -0.219 N 
ATOM      2  C   UNL     1      -1.411  -2.152  -2.223  0.00  0.00    +0.216 C 
ATOM      3  C   UNL     1      -1.325  -1.310  -3.550  0.00  0.00    +0.246 C 
ATOM      4  C   UNL     1      -0.638  -2.218  -4.438  0.00  0.00    +0.255 C 
ATOM      5  O   UNL     1      -0.807  -2.361  -5.630  0.00  0.00    -0.272 OA
ATOM      6  N   UNL     1       0.251  -2.883  -3.627  0.00  0.00    -0.207 N 
ATOM      7  C   UNL     1      -0.039  -2.744  -2.283  0.00  0.00    +0.251 C 
ATOM      8  O   UNL     1       0.668  -3.034  -1.342  0.00  0.00    -0.273 OA
ATOM      9  N   UNL     1      -2.340  -0.372  -3.426  0.00  0.00    -0.156 NA
ATOM     10  N   UNL     1      -2.559  -0.200  -2.185  0.00  0.00    -0.082 NA
ENDROOT
BRANCH   6  11
ATOM     11  C   UNL     1       1.333  -3.635  -4.109  0.00  0.00    +0.044 A 
ATOM     12  C   UNL     1       2.182  -4.281  -3.221  0.00  0.00    +0.027 A 
ATOM     13  C   UNL     1       3.246  -5.021  -3.698  0.00  0.00    +0.040 A 
ATOM     14  C   UNL     1       3.466  -5.118  -5.062  0.00  0.00    +0.124 A 
ATOM     15  C   UNL     1       2.621  -4.474  -5.949  0.00  0.00    +0.040 A 
ATOM     16  C   UNL     1       1.552  -3.738  -5.476  0.00  0.00    +0.027 A 
ATOM     17  F   UNL     1       4.508  -5.842  -5.527  0.00  0.00    -0.205 F 
ENDBRANCH   6  11
BRANCH   1  18
ATOM     18  C   UNL     1      -1.293  -0.775   0.010  0.00  0.00    +0.163 C 
BRANCH  18  24
ATOM     19  C   UNL     1      -0.017   1.378   0.010  0.00  0.00    +0.008 A 
ATOM     20  C   UNL     1       1.170   2.086   0.002  0.00  0.00    +0.038 A 
ATOM     21  C   UNL     1       2.379   1.410  -0.013  0.00  0.00    +0.123 A 
ATOM     22  C   UNL     1       2.396   0.026  -0.021  0.00  0.00    +0.038 A 
ATOM     23  C   UNL     1       1.208  -0.680  -0.013  0.00  0.00    +0.008 A 
ATOM     24  C   UNL     1       0.002  -0.004   0.002  0.00  0.00    -0.028 A 
ATOM     25  F   UNL     1       3.540   2.101  -0.021  0.00  0.00    -0.205 F 
ENDBRANCH  18  24
ENDBRANCH   1  18
TORSDOF 3
