REMARK  Name = ZINC12416174
REMARK  4 active torsions:
REMARK  status: ('A' for Active; 'I' for Inactive)
REMARK    1  A    between atoms: C_1  and  C_2
REMARK    2  A    between atoms: C_5  and  N_8
REMARK    3  A    between atoms: C_10  and  C_15
REMARK    4  A    between atoms: C_17  and  C_20
REMARK                            x       y       z     vdW  Elec       q    Type
REMARK                         _______ _______ _______ _____ _____    ______ ____
ROOT
ATOM      1  N   UNL     1       0.002  -0.004   0.002  0.00  0.00    -0.271 N 
ATOM      2  C   UNL     1       1.377  -0.518  -0.007  0.00  0.00    +0.127 C 
ATOM      3  C   UNL     1       2.265   0.673   0.414  0.00  0.00    +0.104 C 
ATOM      4  C   UNL     1       1.397   1.880  -0.011  0.00  0.00    +0.111 C 
ATOM      5  C   UNL     1      -0.016   1.340  -0.006  0.00  0.00    +0.221 C 
ATOM      6  O   UNL     1      -1.020   2.021  -0.013  0.00  0.00    -0.275 OA
ENDROOT
BRANCH   1  11
ATOM      7  C   UNL     1      -4.637  -3.269   0.067  0.00  0.00    +0.044 C 
ATOM      8  C   UNL     1      -3.405  -2.402   0.049  0.00  0.00    -0.050 A 
ATOM      9  C   UNL     1      -2.156  -2.980  -0.081  0.00  0.00    +0.005 A 
ATOM     10  C   UNL     1      -1.024  -2.188  -0.097  0.00  0.00    +0.024 A 
ATOM     11  C   UNL     1      -1.142  -0.809   0.017  0.00  0.00    +0.036 A 
ATOM     12  C   UNL     1      -2.398  -0.232   0.152  0.00  0.00    +0.024 A 
ATOM     13  C   UNL     1      -3.526  -1.029   0.163  0.00  0.00    +0.005 A 
ENDBRANCH   1  11
BRANCH   3  14
ATOM     14  C   UNL     1       3.574   0.660  -0.333  0.00  0.00    +0.233 A 
ATOM     15  N   UNL     1       4.770   0.581   0.194  0.00  0.00    -0.191 NA
ATOM     16  C   UNL     1       5.629   0.603  -0.850  0.00  0.00    +0.202 A 
ATOM     17  N   UNL     1       4.911   0.694  -1.939  0.00  0.00    -0.056 NA
ATOM     18  O   UNL     1       3.732   0.722  -1.659  0.00  0.00    -0.337 OA
BRANCH  16  19
ATOM     19  C   UNL     1       7.110   0.537  -0.774  0.00  0.00    +0.023 A 
ATOM     20  C   UNL     1       7.743   0.448   0.464  0.00  0.00    +0.013 A 
ATOM     21  C   UNL     1       9.120   0.381   0.530  0.00  0.00    +0.016 A 
ATOM     22  C   UNL     1       9.872   0.415  -0.631  0.00  0.00    +0.018 A 
ATOM     23  C   UNL     1       9.249   0.510  -1.864  0.00  0.00    +0.016 A 
ATOM     24  C   UNL     1       7.872   0.571  -1.940  0.00  0.00    +0.013 A 
ATOM     25 BR   UNL     1      11.759   0.332  -0.534  0.00  0.00    -0.050 Br
ENDBRANCH  16  19
ENDBRANCH   3  14
TORSDOF 3
