REMARK  Name = ZINC04312355
REMARK  8 active torsions:
REMARK  status: ('A' for Active; 'I' for Inactive)
REMARK    1  A    between atoms: C_1  and  C_2
REMARK    2  A    between atoms: C_2  and  C_3
REMARK    3  A    between atoms: C_3  and  C_4
REMARK    4  A    between atoms: C_11  and  N_28
REMARK    5  A    between atoms: C_12  and  C_26
REMARK    6  A    between atoms: C_13  and  C_15
REMARK    7  A    between atoms: C_18  and  O_21
REMARK    8  A    between atoms: O_21  and  C_22
REMARK                            x       y       z     vdW  Elec       q    Type
REMARK                         _______ _______ _______ _____ _____    ______ ____
ROOT
ATOM      1  C   UNL     1      -1.413  -2.041   0.005  0.00  0.00    +0.044 A 
ATOM      2  C   UNL     1      -1.303  -2.837   1.079  0.00  0.00    +0.049 A 
ATOM      3  C   UNL     1      -1.327  -4.178   0.635  0.00  0.00    +0.245 A 
ATOM      4  N   UNL     1      -1.446  -4.171  -0.661  0.00  0.00    -0.135 NA
ATOM      5  N   UNL     1      -1.508  -2.835  -1.087  0.00  0.00    -0.278 N 
ATOM      6  H   UNL     1      -1.601  -2.533  -2.004  0.00  0.00    +0.189 HD
ATOM      7  O   UNL     1      -1.237  -5.224   1.499  0.00  0.00    -0.421 OA
ATOM      8  C   UNL     1      -1.395  -4.962   2.811  0.00  0.00    +0.201 C 
ATOM      9  C   UNL     1      -1.378  -3.725   3.352  0.00  0.00    +0.098 C 
ATOM     10  C   UNL     1      -1.171  -2.474   2.536  0.00  0.00    +0.101 C 
ENDROOT
BRANCH  10  11
ATOM     11  C   UNL     1       0.203  -1.916   2.799  0.00  0.00    -0.034 A 
ATOM     12  C   UNL     1       1.322  -2.688   2.543  0.00  0.00    +0.008 A 
ATOM     13  C   UNL     1       2.583  -2.179   2.784  0.00  0.00    +0.046 A 
ATOM     14  C   UNL     1       2.727  -0.893   3.283  0.00  0.00    +0.130 A 
ATOM     15  C   UNL     1       1.604  -0.120   3.539  0.00  0.00    +0.046 A 
ATOM     16  C   UNL     1       0.344  -0.632   3.291  0.00  0.00    +0.008 A 
BRANCH  14  17
ATOM     17  O   UNL     1       3.967  -0.390   3.522  0.00  0.00    -0.406 OA
BRANCH  17  18
ATOM     18  C   UNL     1       4.040   0.942   4.035  0.00  0.00    +0.575 C 
ATOM     19  F   UNL     1       3.366   1.007   5.260  0.00  0.00    -0.133 F 
ATOM     20  F   UNL     1       5.380   1.298   4.221  0.00  0.00    -0.133 F 
ATOM     21  F   UNL     1       3.444   1.825   3.128  0.00  0.00    -0.133 F 
ENDBRANCH  17  18
ENDBRANCH  14  17
ENDBRANCH  10  11
BRANCH   8  22
ATOM     22  N   UNL     1      -1.588  -6.026   3.657  0.00  0.00    -0.328 N 
ATOM     23  H   UNL     1      -1.607  -6.929   3.303  0.00  0.00    +0.145 HD
ATOM     24  H   UNL     1      -1.706  -5.874   4.608  0.00  0.00    +0.145 HD
ENDBRANCH   8  22
BRANCH   9  25
ATOM     25  C   UNL     1      -1.565  -3.595   4.765  0.00  0.00    +0.101 C 
ATOM     26  N   UNL     1      -1.714  -3.493   5.887  0.00  0.00    -0.191 NA
ENDBRANCH   9  25
BRANCH   1  27
ATOM     27  C   UNL     1      -1.433  -0.534   0.013  0.00  0.00    +0.055 C 
BRANCH  27  29
ATOM     28  C   UNL     1      -0.019   1.526   0.010  0.00  0.00    +0.004 C 
ATOM     29  C   UNL     1       0.002  -0.004   0.002  0.00  0.00    +0.003 C 
ENDBRANCH  27  29
ENDBRANCH   1  27
TORSDOF 7
