REMARK  Name = ZINC20739185
REMARK  8 active torsions:
REMARK  status: ('A' for Active; 'I' for Inactive)
REMARK    1  A    between atoms: C_1  and  C_2
REMARK    2  A    between atoms: C_2  and  C_3
REMARK    3  A    between atoms: C_2  and  C_4
REMARK    4  A    between atoms: C_2  and  O_5
REMARK    5  A    between atoms: O_5  and  C_6
REMARK    6  A    between atoms: N_11  and  C_14
REMARK    7  A    between atoms: C_14  and  C_16
REMARK    8  A    between atoms: C_14  and  C_27
REMARK                            x       y       z     vdW  Elec       q    Type
REMARK                         _______ _______ _______ _____ _____    ______ ____
ROOT
ATOM      1  C   UNL     1       5.119  -3.185  -4.444  0.00  0.00    +0.080 C 
ENDROOT
BRANCH   1   2
ATOM      2  C   UNL     1       6.495  -2.690  -4.807  0.00  0.00    -0.024 A 
ATOM      3  C   UNL     1       6.825  -1.438  -5.163  0.00  0.00    +0.086 A 
ATOM      4  N   UNL     1       8.167  -1.366  -5.420  0.00  0.00    -0.360 N 
ATOM      5  H   UNL     1       8.639  -0.564  -5.695  0.00  0.00    +0.165 HD
ATOM      6  C   UNL     1       8.748  -2.600  -5.232  0.00  0.00    +0.048 A 
ATOM      7  C   UNL     1       7.727  -3.482  -4.833  0.00  0.00    +0.020 A 
ATOM      8  C   UNL     1       8.027  -4.819  -4.562  0.00  0.00    +0.050 A 
ATOM      9  C   UNL     1       9.325  -5.264  -4.685  0.00  0.00    +0.021 A 
ATOM     10  C   UNL     1      10.332  -4.392  -5.074  0.00  0.00    +0.003 A 
ATOM     11  C   UNL     1      10.050  -3.073  -5.353  0.00  0.00    +0.026 A 
ATOM     12 CL   UNL     1       6.771  -5.914  -4.074  0.00  0.00    -0.083 Cl
ENDBRANCH   1   2
BRANCH   1  18
ATOM     13  C   UNL     1       1.952  -0.085  -1.337  0.00  0.00    +0.403 C 
ATOM     14  O   UNL     1       2.488   0.619  -0.503  0.00  0.00    -0.226 OA
ATOM     15  N   UNL     1       2.641  -0.485  -2.424  0.00  0.00    -0.271 N 
ATOM     16  C   UNL     1       2.011  -1.332  -3.449  0.00  0.00    +0.092 C 
ATOM     17  C   UNL     1       2.929  -2.528  -3.722  0.00  0.00    -0.058 C 
ATOM     18  N   UNL     1       4.269  -2.044  -4.076  0.00  0.00    +0.394 N 
ATOM     19  C   UNL     1       4.865  -1.341  -2.932  0.00  0.00    -0.058 C 
ATOM     20  C   UNL     1       4.042  -0.082  -2.623  0.00  0.00    +0.092 C 
ATOM     21  H   UNL     1       4.201  -1.412  -4.859  0.00  0.00    -0.080 HD
BRANCH  13  22
ATOM     22  O   UNL     1       0.671  -0.465  -1.174  0.00  0.00    -0.445 OA
BRANCH  22  24
ATOM     23  C   UNL     1      -0.019   1.526   0.010  0.00  0.00    +0.055 C 
ATOM     24  C   UNL     1       0.002  -0.004   0.002  0.00  0.00    +0.107 C 
ATOM     25  C   UNL     1       0.742  -0.511   1.242  0.00  0.00    +0.055 C 
ATOM     26  C   UNL     1      -1.433  -0.534   0.013  0.00  0.00    +0.055 C 
ENDBRANCH  22  24
ENDBRANCH  13  22
ENDBRANCH   1  18
BRANCH   1  27
ATOM     27  C   UNL     1       4.514  -3.901  -5.624  0.00  0.00    +0.347 C 
ATOM     28  O   UNL     1       3.853  -3.281  -6.440  0.00  0.00    -0.248 OA
ATOM     29  O   UNL     1       4.686  -5.100  -5.763  0.00  0.00    -0.248 OA
ENDBRANCH   1  27
TORSDOF 5
