REMARK  Name = ZINC63623189
REMARK  7 active torsions:
REMARK  status: ('A' for Active; 'I' for Inactive)
REMARK    1  A    between atoms: C_7  and  C_10
REMARK    2  A    between atoms: C_10  and  C_11
REMARK    3  A    between atoms: C_11  and  N_12
REMARK    4  A    between atoms: C_13  and  C_15
REMARK    5  A    between atoms: C_15  and  C_29
REMARK    6  A    between atoms: C_16  and  C_17
REMARK    7  A    between atoms: C_20  and  N_23
REMARK                            x       y       z     vdW  Elec       q    Type
REMARK                         _______ _______ _______ _____ _____    ______ ____
ROOT
ATOM      1  N   UNL     1      -0.662  -4.665  -1.463  0.00  0.00    -0.310 N 
ATOM      2  C   UNL     1      -1.029  -5.238  -2.626  0.00  0.00    +0.254 C 
ATOM      3  O   UNL     1      -0.792  -4.679  -3.680  0.00  0.00    -0.269 OA
ATOM      4  H   UNL     1      -0.850  -5.111  -0.622  0.00  0.00    +0.149 HD
ENDROOT
BRANCH   2   5
ATOM      5  C   UNL     1      -1.714  -6.539  -2.621  0.00  0.00    +0.114 C 
ATOM      6  C   UNL     1      -2.090  -7.125  -3.812  0.00  0.00    +0.032 C 
BRANCH   6   7
ATOM      7  C   UNL     1      -2.915  -8.334  -3.804  0.00  0.00    -0.024 A 
ATOM      8  C   UNL     1      -2.740  -9.312  -4.795  0.00  0.00    +0.010 A 
ATOM      9  C   UNL     1      -3.512 -10.437  -4.784  0.00  0.00    +0.024 A 
ATOM     10  C   UNL     1      -4.473 -10.616  -3.790  0.00  0.00    +0.030 A 
ATOM     11  C   UNL     1      -4.650  -9.648  -2.803  0.00  0.00    +0.024 A 
ATOM     12  C   UNL     1      -3.879  -8.521  -2.802  0.00  0.00    +0.010 A 
BRANCH  10  13
ATOM     13  N   UNL     1      -5.256 -11.763  -3.783  0.00  0.00    -0.330 N 
ATOM     14  C   UNL     1      -4.976 -12.866  -4.713  0.00  0.00    +0.105 C 
ATOM     15  C   UNL     1      -4.829 -14.162  -3.910  0.00  0.00    +0.019 C 
ATOM     16  C   UNL     1      -6.076 -14.368  -3.047  0.00  0.00    +0.003 C 
ATOM     17  C   UNL     1      -6.216 -13.204  -2.063  0.00  0.00    +0.019 C 
ATOM     18  C   UNL     1      -6.375 -11.900  -2.841  0.00  0.00    +0.105 C 
ENDBRANCH  10  13
ENDBRANCH   6   7
BRANCH   5  19
ATOM     19  C   UNL     1      -1.992  -7.197  -1.380  0.00  0.00    +0.104 C 
ATOM     20  N   UNL     1      -2.213  -7.720  -0.396  0.00  0.00    -0.191 NA
ENDBRANCH   5  19
ENDBRANCH   2   5
BRANCH   1  21
ATOM     21  C   UNL     1       0.021  -3.369  -1.468  0.00  0.00    +0.109 C 
BRANCH  21  22
ATOM     22  C   UNL     1       0.324  -2.947  -0.028  0.00  0.00    +0.052 C 
BRANCH  22  29
ATOM     23  C   UNL     1      -1.195   1.360   0.420  0.00  0.00    +0.001 A 
ATOM     24  C   UNL     1      -0.179   2.324   0.353  0.00  0.00    +0.002 A 
ATOM     25  C   UNL     1       1.119   2.003   0.174  0.00  0.00    +0.026 A 
ATOM     26  C   UNL     1       1.513   0.643   0.044  0.00  0.00    +0.043 A 
ATOM     27  N   UNL     1       2.687   0.087  -0.135  0.00  0.00    -0.380 N 
ATOM     28  C   UNL     1       2.510  -1.368  -0.201  0.00  0.00    +0.144 C 
ATOM     29  C   UNL     1       1.027  -1.614  -0.033  0.00  0.00    -0.040 C 
ATOM     30  C   UNL     1       0.459  -0.395   0.111  0.00  0.00    -0.001 A 
ATOM     31  C   UNL     1      -0.929   0.038   0.308  0.00  0.00    +0.010 A 
ATOM     32  H   UNL     1       3.531   0.558  -0.211  0.00  0.00    +0.160 HD
ENDBRANCH  22  29
ENDBRANCH  21  22
ENDBRANCH   1  21
TORSDOF 7
