REMARK  Name = ZINC42023829
REMARK  7 active torsions:
REMARK  status: ('A' for Active; 'I' for Inactive)
REMARK    1  A    between atoms: C_1  and  C_2
REMARK    2  A    between atoms: N_6  and  C_24
REMARK    3  A    between atoms: C_8  and  C_10
REMARK    4  A    between atoms: N_12  and  C_13
REMARK    5  A    between atoms: C_18  and  S_19
REMARK    6  A    between atoms: S_19  and  C_20
REMARK    7  A    between atoms: C_20  and  C_21
REMARK                            x       y       z     vdW  Elec       q    Type
REMARK                         _______ _______ _______ _____ _____    ______ ____
ROOT
ATOM      1  C   UNL     1       0.569   0.595   3.208  0.00  0.00    +0.283 C 
ATOM      2  O   UNL     1       1.715   0.987   3.100  0.00  0.00    -0.267 OA
ATOM      3  N   UNL     1      -0.032   0.591   4.415  0.00  0.00    -0.278 N 
ATOM      4  H   UNL     1      -0.915   0.203   4.517  0.00  0.00    +0.155 HD
ENDROOT
BRANCH   1  11
ATOM      5  C   UNL     1      -0.751   1.793  -0.574  0.00  0.00    +0.038 C 
ATOM      6  C   UNL     1      -0.393   0.313  -0.424  0.00  0.00    +0.157 C 
ATOM      7  C   UNL     1      -1.653  -0.500  -0.237  0.00  0.00    +0.259 C 
ATOM      8  O   UNL     1      -2.260  -0.917  -1.200  0.00  0.00    -0.271 OA
ATOM      9  N   UNL     1      -2.096  -0.758   1.010  0.00  0.00    -0.157 N 
ATOM     10  N   UNL     1      -1.393  -0.299   2.129  0.00  0.00    -0.152 NA
ATOM     11  C   UNL     1      -0.164   0.123   2.020  0.00  0.00    +0.201 C 
ATOM     12  N   UNL     1       0.454   0.124   0.764  0.00  0.00    -0.313 N 
ATOM     13  H   UNL     1       1.412   0.003   0.679  0.00  0.00    +0.148 HD
BRANCH   9  14
ATOM     14  C   UNL     1      -3.273  -1.493   1.187  0.00  0.00    +0.060 A 
ATOM     15  C   UNL     1      -3.304  -2.552   2.085  0.00  0.00    +0.025 A 
ATOM     16  C   UNL     1      -4.468  -3.276   2.257  0.00  0.00    +0.002 A 
ATOM     17  C   UNL     1      -5.601  -2.947   1.536  0.00  0.00    +0.000 A 
ATOM     18  C   UNL     1      -5.574  -1.894   0.641  0.00  0.00    +0.002 A 
ATOM     19  C   UNL     1      -4.415  -1.162   0.469  0.00  0.00    +0.025 A 
ENDBRANCH   9  14
ENDBRANCH   1  11
BRANCH   3  20
ATOM     20  C   UNL     1       0.619   1.148   5.522  0.00  0.00    +0.047 A 
ATOM     21  C   UNL     1       1.657   2.050   5.338  0.00  0.00    +0.024 A 
ATOM     22  C   UNL     1       2.299   2.598   6.433  0.00  0.00    +0.002 A 
ATOM     23  C   UNL     1       1.909   2.252   7.714  0.00  0.00    +0.001 A 
ATOM     24  C   UNL     1       0.876   1.355   7.908  0.00  0.00    +0.016 A 
ATOM     25  C   UNL     1       0.222   0.803   6.815  0.00  0.00    +0.030 A 
BRANCH  25  26
ATOM     26  S   UNL     1      -1.101  -0.335   7.058  0.00  0.00    -0.114 S 
BRANCH  26  27
ATOM     27  C   UNL     1      -1.243  -0.463   8.862  0.00  0.00    +0.169 C 
BRANCH  27  28
ATOM     28  C   UNL     1      -2.354  -1.419   9.212  0.00  0.00    +0.221 C 
ATOM     29  O   UNL     1      -2.987  -1.961   8.331  0.00  0.00    -0.275 OA
ATOM     30  N   UNL     1      -2.644  -1.672  10.504  0.00  0.00    -0.329 N 
ATOM     31  H   UNL     1      -2.137  -1.239  11.208  0.00  0.00    +0.145 HD
ATOM     32  H   UNL     1      -3.359  -2.288  10.729  0.00  0.00    +0.145 HD
ENDBRANCH  27  28
ENDBRANCH  26  27
ENDBRANCH  25  26
ENDBRANCH   3  20
TORSDOF 6
