REMARK  Name = ZINC36113789
REMARK  2 active torsions:
REMARK  status: ('A' for Active; 'I' for Inactive)
REMARK    1  A    between atoms: C_10  and  C_12
REMARK    2  A    between atoms: C_19  and  C_21
REMARK                            x       y       z     vdW  Elec       q    Type
REMARK                         _______ _______ _______ _____ _____    ______ ____
ROOT
ATOM      1  C   UNL     1      -0.107   1.202  -0.055  0.00  0.00    +0.000 A 
ATOM      2  C   UNL     1       1.050   1.959  -0.071  0.00  0.00    +0.000 A 
ATOM      3  C   UNL     1       2.278   1.332  -0.070  0.00  0.00    +0.006 A 
ATOM      4  C   UNL     1       2.362  -0.054  -0.051  0.00  0.00    -0.019 A 
ATOM      5  C   UNL     1       1.211  -0.809  -0.025  0.00  0.00    -0.041 A 
ATOM      6  C   UNL     1      -0.025  -0.175  -0.034  0.00  0.00    +0.004 A 
ATOM      7  C   UNL     1       1.223  -2.314   0.027  0.00  0.00    +0.054 C 
ATOM      8  C   UNL     1       2.567  -2.865  -0.448  0.00  0.00    +0.113 C 
ATOM      9  N   UNL     1       3.632  -2.109   0.231  0.00  0.00    -0.288 N 
ATOM     10  C   UNL     1       3.735  -0.676  -0.066  0.00  0.00    +0.140 C 
ATOM     11  C   UNL     1       4.478  -2.709   1.092  0.00  0.00    +0.245 C 
ATOM     12  O   UNL     1       5.347  -2.063   1.638  0.00  0.00    -0.273 OA
ENDROOT
BRANCH  10  13
ATOM     13  C   UNL     1       4.355  -0.490  -1.427  0.00  0.00    +0.013 A 
ATOM     14  C   UNL     1       3.561  -0.159  -2.509  0.00  0.00    +0.008 A 
ATOM     15  C   UNL     1       4.129   0.012  -3.757  0.00  0.00    +0.001 A 
ATOM     16  C   UNL     1       5.492  -0.148  -3.925  0.00  0.00    +0.003 A 
ATOM     17  C   UNL     1       6.288  -0.478  -2.845  0.00  0.00    +0.039 A 
ATOM     18  C   UNL     1       5.721  -0.644  -1.593  0.00  0.00    +0.129 A 
ATOM     19  F   UNL     1       6.499  -0.962  -0.535  0.00  0.00    -0.205 F 
ENDBRANCH  10  13
BRANCH  11  20
ATOM     20  C   UNL     1       4.344  -4.183   1.375  0.00  0.00    +0.204 C 
ATOM     21  C   UNL     1       3.002  -4.460   2.085  0.00  0.00    +0.043 C 
ATOM     22  C   UNL     1       3.397  -5.543   3.127  0.00  0.00    +0.031 C 
ATOM     23  C   UNL     1       4.837  -5.095   3.484  0.00  0.00    +0.161 C 
ATOM     24  O   UNL     1       5.395  -4.607   2.251  0.00  0.00    -0.367 OA
ENDBRANCH  11  20
TORSDOF 2
