REMARK  Name = ZINC66872168
REMARK  6 active torsions:
REMARK  status: ('A' for Active; 'I' for Inactive)
REMARK    1  A    between atoms: C_1  and  C_2
REMARK    2  A    between atoms: C_5  and  C_8
REMARK    3  A    between atoms: C_8  and  C_10
REMARK    4  A    between atoms: C_8  and  O_11
REMARK    5  A    between atoms: O_11  and  C_12
REMARK    6  A    between atoms: C_12  and  C_14
REMARK                            x       y       z     vdW  Elec       q    Type
REMARK                         _______ _______ _______ _____ _____    ______ ____
ROOT
ATOM      1  C   UNL     1      -1.389  -5.960   0.800  0.00  0.00    +0.347 C 
ATOM      2  O   UNL     1      -1.187  -6.564  -0.236  0.00  0.00    -0.245 OA
ENDROOT
BRANCH   1   3
ATOM      3  C   UNL     1      -2.278  -6.528   1.817  0.00  0.00    +0.142 A 
ATOM      4  C   UNL     1      -2.900  -7.769   1.615  0.00  0.00    +0.133 A 
ATOM      5  N   UNL     1      -3.695  -8.261   2.541  0.00  0.00    -0.236 NA
ATOM      6  C   UNL     1      -3.932  -7.608   3.683  0.00  0.00    +0.140 A 
ATOM      7  C   UNL     1      -4.790  -8.182   4.636  0.00  0.00    +0.048 A 
ATOM      8  C   UNL     1      -5.037  -7.521   5.803  0.00  0.00    +0.020 A 
ATOM      9  C   UNL     1      -4.431  -6.279   6.035  0.00  0.00    +0.035 A 
ATOM     10  C   UNL     1      -3.607  -5.743   5.104  0.00  0.00    +0.111 A 
ATOM     11  N   UNL     1      -3.356  -6.396   3.937  0.00  0.00    -0.266 N 
ATOM     12  C   UNL     1      -2.525  -5.839   3.030  0.00  0.00    +0.272 A 
ATOM     13  O   UNL     1      -2.001  -4.760   3.248  0.00  0.00    -0.266 OA
ATOM     14 BR   UNL     1      -4.764  -5.352   7.649  0.00  0.00    -0.049 Br
ENDBRANCH   1   3
BRANCH   1  15
ATOM     15  O   UNL     1      -0.795  -4.768   1.013  0.00  0.00    -0.453 OA
BRANCH  15  16
ATOM     16  C   UNL     1       0.059  -4.275  -0.021  0.00  0.00    +0.204 C 
ATOM     17  C   UNL     1       1.488  -4.768   0.218  0.00  0.00    +0.057 C 
BRANCH  16  22
ATOM     18  C   UNL     1      -0.018   1.503   0.010  0.00  0.00    +0.044 C 
ATOM     19  C   UNL     1       0.002  -0.004   0.002  0.00  0.00    -0.050 A 
ATOM     20  C   UNL     1       0.006  -0.689  -1.199  0.00  0.00    +0.004 A 
ATOM     21  C   UNL     1       0.025  -2.071  -1.206  0.00  0.00    +0.007 A 
ATOM     22  C   UNL     1       0.040  -2.768  -0.013  0.00  0.00    -0.008 A 
ATOM     23  C   UNL     1       0.037  -2.084   1.188  0.00  0.00    +0.007 A 
ATOM     24  C   UNL     1       0.023  -0.702   1.195  0.00  0.00    +0.004 A 
ENDBRANCH  16  22
ENDBRANCH  15  16
ENDBRANCH   1  15
TORSDOF 4
