REMARK  Name = ZINC67432099
REMARK  4 active torsions:
REMARK  status: ('A' for Active; 'I' for Inactive)
REMARK    1  A    between atoms: C_10  and  N_12
REMARK    2  A    between atoms: C_13  and  C_15
REMARK    3  A    between atoms: N_17  and  C_18
REMARK    4  A    between atoms: C_20  and  N_26
REMARK                            x       y       z     vdW  Elec       q    Type
REMARK                         _______ _______ _______ _____ _____    ______ ____
ROOT
ATOM      1  C   UNL     1       4.309   4.068   3.102  0.00  0.00    +0.303 C 
ATOM      2  O   UNL     1       4.890   3.300   3.842  0.00  0.00    -0.265 OA
ATOM      3  N   UNL     1       4.015   5.315   3.521  0.00  0.00    -0.275 N 
ATOM      4  H   UNL     1       3.610   5.949   2.909  0.00  0.00    +0.155 HD
ENDROOT
BRANCH   3   5
ATOM      5  C   UNL     1       4.295   5.695   4.838  0.00  0.00    +0.072 A 
ATOM      6  C   UNL     1       5.418   5.194   5.482  0.00  0.00    +0.062 A 
ATOM      7  C   UNL     1       5.693   5.570   6.783  0.00  0.00    +0.163 A 
ATOM      8  C   UNL     1       4.850   6.447   7.444  0.00  0.00    +0.156 A 
ATOM      9  C   UNL     1       3.728   6.949   6.805  0.00  0.00    +0.081 A 
ATOM     10  C   UNL     1       3.452   6.580   5.502  0.00  0.00    +0.147 A 
ATOM     11  F   UNL     1       2.362   7.074   4.875  0.00  0.00    -0.203 F 
ATOM     12  F   UNL     1       5.121   6.813   8.716  0.00  0.00    -0.203 F 
BRANCH   7  13
ATOM     13  N   UNL     1       6.890   5.035   7.470  0.00  0.00    +0.059 N 
ATOM     14  O   UNL     1       7.626   4.269   6.893  0.00  0.00    -0.126 OA
ATOM     15  O   UNL     1       7.131   5.364   8.608  0.00  0.00    -0.126 OA
ENDBRANCH   7  13
ENDBRANCH   3   5
BRANCH   1  17
ATOM     16  N   UNL     1       4.214   2.383   1.310  0.00  0.00    -0.301 N 
ATOM     17  C   UNL     1       3.920   3.630   1.728  0.00  0.00    +0.300 C 
ATOM     18  O   UNL     1       3.340   4.397   0.989  0.00  0.00    -0.265 OA
ATOM     19  H   UNL     1       4.678   1.770   1.901  0.00  0.00    +0.150 HD
BRANCH  16  29
ATOM     20  C   UNL     1       0.018   1.380  -0.031  0.00  0.00    +0.020 A 
ATOM     21  C   UNL     1       1.204   2.088  -0.028  0.00  0.00    +0.007 A 
ATOM     22  C   UNL     1       2.416   1.419  -0.037  0.00  0.00    -0.024 A 
ATOM     23  C   UNL     1       2.439   0.036  -0.049  0.00  0.00    -0.041 A 
ATOM     24  C   UNL     1       1.250  -0.673  -0.051  0.00  0.00    +0.024 A 
ATOM     25  C   UNL     1       0.041  -0.003  -0.043  0.00  0.00    +0.041 A 
ATOM     26 CL   UNL     1      -1.448  -0.897  -0.046  0.00  0.00    -0.084 Cl
ATOM     27  C   UNL     1       3.872  -0.452  -0.059  0.00  0.00    +0.037 C 
ATOM     28  C   UNL     1       4.712   0.769  -0.491  0.00  0.00    +0.032 C 
ATOM     29  C   UNL     1       3.832   1.954  -0.038  0.00  0.00    +0.104 C 
ENDBRANCH  16  29
ENDBRANCH   1  17
TORSDOF 4
