REMARK  Name = ZINC61073831
REMARK  7 active torsions:
REMARK  status: ('A' for Active; 'I' for Inactive)
REMARK    1  A    between atoms: C_1  and  C_2
REMARK    2  A    between atoms: C_2  and  C_25
REMARK    3  A    between atoms: N_5  and  C_9
REMARK    4  A    between atoms: C_9  and  C_10
REMARK    5  A    between atoms: C_10  and  N_12
REMARK    6  A    between atoms: N_14  and  C_18
REMARK    7  A    between atoms: C_18  and  C_19
REMARK                            x       y       z     vdW  Elec       q    Type
REMARK                         _______ _______ _______ _____ _____    ______ ____
ROOT
ATOM      1  C   UNL     1      -1.784  -3.414   1.645  0.00  0.00    +0.256 C 
ATOM      2  O   UNL     1      -0.584  -3.489   1.825  0.00  0.00    -0.272 OA
ENDROOT
BRANCH   1   3
ATOM      3  N   UNL     1      -2.602  -4.252   2.269  0.00  0.00    -0.155 NA
ATOM      4  C   UNL     1      -3.126  -5.288   1.609  0.00  0.00    +0.166 A 
ATOM      5  N   UNL     1      -2.705  -5.847   0.443  0.00  0.00    -0.324 N 
ATOM      6  C   UNL     1      -3.391  -6.908  -0.060  0.00  0.00    +0.095 A 
ATOM      7  C   UNL     1      -4.450  -7.339   0.633  0.00  0.00    +0.066 A 
ATOM      8  S   UNL     1      -4.463  -6.221   2.022  0.00  0.00    -0.061 S 
BRANCH   5   9
ATOM      9  C   UNL     1      -1.534  -5.316  -0.258  0.00  0.00    +0.158 C 
BRANCH   9  10
ATOM     10  C   UNL     1      -0.330  -6.165   0.060  0.00  0.00    -0.028 A 
ATOM     11  C   UNL     1       0.351  -5.981   1.249  0.00  0.00    +0.005 A 
ATOM     12  C   UNL     1       1.455  -6.760   1.541  0.00  0.00    +0.000 A 
ATOM     13  C   UNL     1       1.878  -7.723   0.644  0.00  0.00    +0.000 A 
ATOM     14  C   UNL     1       1.196  -7.908  -0.544  0.00  0.00    +0.000 A 
ATOM     15  C   UNL     1       0.090  -7.132  -0.834  0.00  0.00    +0.005 A 
ENDBRANCH   9  10
ENDBRANCH   5   9
ENDBRANCH   1   3
BRANCH   1  16
ATOM     16  C   UNL     1      -2.343  -2.369   0.714  0.00  0.00    +0.215 C 
BRANCH  16  21
ATOM     17  C   UNL     1       0.198  -0.021  -2.463  0.00  0.00    +0.041 C 
ATOM     18  C   UNL     1       0.446  -0.793  -1.165  0.00  0.00    +0.107 C 
ATOM     19  C   UNL     1      -0.595  -1.880  -0.984  0.00  0.00    +0.246 C 
ATOM     20  O   UNL     1      -0.799  -2.827  -1.714  0.00  0.00    -0.273 OA
ATOM     21  N   UNL     1      -1.245  -1.575   0.156  0.00  0.00    -0.215 N 
ATOM     22  C   UNL     1      -0.765  -0.459   0.715  0.00  0.00    +0.310 C 
ATOM     23  O   UNL     1      -1.191   0.016   1.749  0.00  0.00    -0.252 OA
ATOM     24  N   UNL     1       0.241   0.080   0.004  0.00  0.00    -0.285 N 
ATOM     25  C   UNL     1       1.856  -1.386  -1.155  0.00  0.00    +0.041 C 
ATOM     26  H   UNL     1       0.737   0.886   0.219  0.00  0.00    +0.151 HD
ENDBRANCH  16  21
ENDBRANCH   1  16
TORSDOF 5
