REMARK  Name = ZINC08783483
REMARK  5 active torsions:
REMARK  status: ('A' for Active; 'I' for Inactive)
REMARK    1  A    between atoms: C_1  and  C_2
REMARK    2  A    between atoms: C_2  and  C_3
REMARK    3  A    between atoms: C_3  and  C_4
REMARK    4  A    between atoms: C_11  and  N_25
REMARK    5  A    between atoms: C_12  and  C_23
REMARK                            x       y       z     vdW  Elec       q    Type
REMARK                         _______ _______ _______ _____ _____    ______ ____
ROOT
ATOM      1  C   UNL     1       0.788  -1.998  -1.379  0.00  0.00    +0.044 A 
ATOM      2  C   UNL     1      -0.096  -2.835  -1.935  0.00  0.00    +0.053 A 
ATOM      3  C   UNL     1       0.398  -4.149  -1.760  0.00  0.00    +0.245 A 
ATOM      4  N   UNL     1       1.548  -4.086  -1.155  0.00  0.00    -0.135 NA
ATOM      5  N   UNL     1       1.829  -2.737  -0.910  0.00  0.00    -0.278 N 
ATOM      6  H   UNL     1       2.622  -2.381  -0.481  0.00  0.00    +0.189 HD
ATOM      7  O   UNL     1      -0.285  -5.249  -2.176  0.00  0.00    -0.421 OA
ATOM      8  C   UNL     1      -1.242  -5.044  -3.099  0.00  0.00    +0.201 C 
ATOM      9  C   UNL     1      -1.806  -3.843  -3.355  0.00  0.00    +0.102 C 
ATOM     10  C   UNL     1      -1.418  -2.572  -2.633  0.00  0.00    +0.093 C 
ATOM     11  C   UNL     1      -1.250  -1.440  -3.623  0.00  0.00    +0.025 C 
ATOM     12  C   UNL     1      -1.840  -0.094  -3.252  0.00  0.00    +0.035 C 
ATOM     13  C   UNL     1      -2.835  -0.145  -2.097  0.00  0.00    +0.147 C 
ATOM     14  C   UNL     1      -4.073  -0.956  -2.542  0.00  0.00    +0.194 C 
ATOM     15  O   UNL     1      -3.783  -2.306  -2.139  0.00  0.00    -0.347 OA
ATOM     16  C   UNL     1      -2.469  -2.292  -1.557  0.00  0.00    +0.266 C 
ATOM     17  O   UNL     1      -2.267  -0.960  -1.047  0.00  0.00    -0.345 OA
ENDROOT
BRANCH   8  18
ATOM     18  N   UNL     1      -1.675  -6.123  -3.829  0.00  0.00    -0.328 N 
ATOM     19  H   UNL     1      -1.292  -7.000  -3.672  0.00  0.00    +0.145 HD
ATOM     20  H   UNL     1      -2.364  -6.008  -4.502  0.00  0.00    +0.145 HD
ENDBRANCH   8  18
BRANCH   9  21
ATOM     21  C   UNL     1      -2.829  -3.825  -4.359  0.00  0.00    +0.101 C 
ATOM     22  N   UNL     1      -3.639  -3.810  -5.155  0.00  0.00    -0.191 NA
ENDBRANCH   9  21
BRANCH   1  23
ATOM     23  C   UNL     1       0.718  -0.497  -1.257  0.00  0.00    +0.055 C 
BRANCH  23  25
ATOM     24  C   UNL     1       1.922   1.542  -0.460  0.00  0.00    +0.004 C 
ATOM     25  C   UNL     1       1.963   0.014  -0.529  0.00  0.00    +0.003 C 
ENDBRANCH  23  25
ENDBRANCH   1  23
TORSDOF 4
