REMARK  Name = ZINC20262897
REMARK  5 active torsions:
REMARK  status: ('A' for Active; 'I' for Inactive)
REMARK    1  A    between atoms: C_1  and  C_2
REMARK    2  A    between atoms: N_8  and  S_9
REMARK    3  A    between atoms: S_9  and  C_12
REMARK    4  A    between atoms: C_15  and  N_19
REMARK    5  A    between atoms: C_16  and  N_18
REMARK                            x       y       z     vdW  Elec       q    Type
REMARK                         _______ _______ _______ _____ _____    ______ ____
ROOT
ATOM      1  C   UNL     1      -0.032  -0.485  -4.564  0.00  0.00    +0.107 A 
ATOM      2  C   UNL     1      -0.613  -1.031  -3.434  0.00  0.00    +0.030 A 
ATOM      3  C   UNL     1      -0.906  -0.230  -2.346  0.00  0.00    +0.027 A 
ATOM      4  C   UNL     1      -0.617   1.126  -2.386  0.00  0.00    +0.051 A 
ATOM      5  C   UNL     1      -0.037   1.678  -3.528  0.00  0.00    +0.048 A 
ATOM      6  C   UNL     1       0.259   0.866  -4.612  0.00  0.00    +0.053 A 
ENDROOT
BRANCH   4   7
ATOM      7  N   UNL     1      -0.913   1.939  -1.286  0.00  0.00    -0.328 N 
ATOM      8  C   UNL     1      -0.187   1.480  -0.074  0.00  0.00    +0.105 C 
ATOM      9  C   UNL     1      -0.982   2.075   1.108  0.00  0.00    +0.020 C 
ATOM     10  C   UNL     1      -2.406   2.306   0.553  0.00  0.00    +0.020 C 
ATOM     11  C   UNL     1      -2.348   1.832  -0.914  0.00  0.00    +0.105 C 
ENDBRANCH   4   7
BRANCH   1  12
ATOM     12  S   UNL     1       0.338  -1.513  -5.946  0.00  0.00    +0.061 S 
ATOM     13  O   UNL     1       1.376  -0.865  -6.668  0.00  0.00    -0.153 OA
ATOM     14  O   UNL     1       0.470  -2.836  -5.444  0.00  0.00    -0.153 OA
BRANCH  12  21
ATOM     15  C   UNL     1       0.024   0.480  -7.931  0.00  0.00    +0.026 C 
ATOM     16  C   UNL     1      -1.205  -0.432  -7.903  0.00  0.00    +0.077 C 
ATOM     17  C   UNL     1      -1.417  -1.052  -9.288  0.00  0.00    +0.020 C 
ATOM     18  C   UNL     1      -2.559  -2.067  -9.219  0.00  0.00    +0.003 C 
ATOM     19  C   UNL     1      -2.192  -3.185  -8.240  0.00  0.00    +0.017 C 
ATOM     20  C   UNL     1      -1.987  -2.592  -6.847  0.00  0.00    +0.110 C 
ATOM     21  N   UNL     1      -0.995  -1.511  -6.929  0.00  0.00    -0.174 NA
ENDBRANCH  12  21
ENDBRANCH   1  12
BRANCH   5  22
ATOM     22  N   UNL     1       0.251   3.047  -3.577  0.00  0.00    -0.356 N 
ATOM     23  H   UNL     1       0.709   3.481  -4.478  0.00  0.00    +0.142 HD
ATOM     24  H   UNL     1       0.020   3.689  -2.714  0.00  0.00    +0.142 HD
ENDBRANCH   5  22
TORSDOF 4
