REMARK  Name = ZINC19479631
REMARK  3 active torsions:
REMARK  status: ('A' for Active; 'I' for Inactive)
REMARK    1  A    between atoms: C_1  and  C_2
REMARK    2  A    between atoms: C_5  and  C_23
REMARK    3  A    between atoms: C_10  and  C_12
REMARK                            x       y       z     vdW  Elec       q    Type
REMARK                         _______ _______ _______ _____ _____    ______ ____
ROOT
ATOM      1  C   UNL     1      -1.801   1.201   3.401  0.00  0.00    +0.276 C 
ATOM      2  C   UNL     1      -0.849   2.086   4.218  0.00  0.00    +0.155 C 
ATOM      3  N   UNL     1      -1.569   2.513   5.430  0.00  0.00    -0.337 N 
ATOM      4  C   UNL     1      -2.353   1.556   6.095  0.00  0.00    +0.070 A 
ATOM      5  C   UNL     1      -2.819   1.809   7.375  0.00  0.00    +0.026 A 
ATOM      6  C   UNL     1      -3.595   0.866   8.024  0.00  0.00    +0.002 A 
ATOM      7  C   UNL     1      -3.907  -0.326   7.396  0.00  0.00    +0.004 A 
ATOM      8  C   UNL     1      -3.443  -0.583   6.119  0.00  0.00    +0.047 A 
ATOM      9  C   UNL     1      -2.662   0.356   5.462  0.00  0.00    +0.142 A 
ATOM     10  O   UNL     1      -2.208   0.093   4.208  0.00  0.00    -0.476 OA
ATOM     11  H   UNL     1      -1.482   3.550   5.785  0.00  0.00    +0.146 HD
ENDROOT
BRANCH   1  19
ATOM     12  C   UNL     1       0.025   1.224  -2.488  0.00  0.00    +0.009 C 
ATOM     13  C   UNL     1      -0.759   1.596  -1.228  0.00  0.00    +0.004 C 
ATOM     14  C   UNL     1      -0.898   3.118  -1.144  0.00  0.00    +0.009 C 
ATOM     15  C   UNL     1      -1.711   3.490   0.099  0.00  0.00    +0.004 C 
ATOM     16  C   UNL     1      -0.975   3.001   1.350  0.00  0.00    +0.111 C 
ATOM     17  N   UNL     1      -0.706   1.562   1.213  0.00  0.00    -0.298 N 
ATOM     18  C   UNL     1      -0.013   1.086   0.008  0.00  0.00    +0.111 C 
ATOM     19  C   UNL     1      -1.091   0.697   2.171  0.00  0.00    +0.258 C 
ATOM     20  O   UNL     1      -0.866  -0.488   2.044  0.00  0.00    -0.271 OA
ATOM     21  C   UNL     1      -1.877   5.009   0.165  0.00  0.00    +0.009 C 
ENDBRANCH   1  19
TORSDOF 1
