REMARK  Name = ZINC31987125
REMARK  5 active torsions:
REMARK  status: ('A' for Active; 'I' for Inactive)
REMARK    1  A    between atoms: C_4  and  N_22
REMARK    2  A    between atoms: C_6  and  C_7
REMARK    3  A    between atoms: C_8  and  C_9
REMARK    4  A    between atoms: N_11  and  C_12
REMARK    5  A    between atoms: C_16  and  C_18
REMARK                            x       y       z     vdW  Elec       q    Type
REMARK                         _______ _______ _______ _____ _____    ______ ____
ROOT
ATOM      1  C   UNL     1       0.155   0.020  -0.176  0.00  0.00    +0.241 C 
ATOM      2  O   UNL     1       1.259  -0.420  -0.440  0.00  0.00    -0.270 OA
ATOM      3  N   UNL     1      -0.016   1.344   0.009  0.00  0.00    -0.282 N 
ATOM      4  H   UNL     1      -1.026   1.752   0.162  0.00  0.00    +0.155 HD
ENDROOT
BRANCH   3   5
ATOM      5  C   UNL     1       1.091   2.199   0.007  0.00  0.00    +0.035 A 
ATOM      6  C   UNL     1       2.312   1.756   0.504  0.00  0.00    +0.026 A 
ATOM      7  C   UNL     1       3.411   2.594   0.499  0.00  0.00    +0.041 A 
ATOM      8  C   UNL     1       3.300   3.883   0.011  0.00  0.00    +0.136 A 
ATOM      9  C   UNL     1       2.075   4.339  -0.485  0.00  0.00    +0.073 A 
ATOM     10  C   UNL     1       0.969   3.488  -0.484  0.00  0.00    +0.039 A 
ATOM     11  F   UNL     1       4.376   4.701   0.013  0.00  0.00    -0.205 F 
BRANCH   9  12
ATOM     12  C   UNL     1       1.953   5.715  -1.008  0.00  0.00    +0.244 C 
ATOM     13  O   UNL     1       2.918   6.454  -1.007  0.00  0.00    -0.270 OA
ATOM     14  N   UNL     1       0.770   6.151  -1.486  0.00  0.00    -0.325 N 
ATOM     15  H   UNL     1       0.679   7.176  -1.875  0.00  0.00    +0.145 HD
ATOM     16  H   UNL     1      -0.103   5.483  -1.486  0.00  0.00    +0.145 HD
ENDBRANCH   9  12
ENDBRANCH   3   5
BRANCH   1  18
ATOM     17  C   UNL     1      -0.815  -2.214  -0.244  0.00  0.00    +0.013 C 
ATOM     18  C   UNL     1      -0.986  -0.889  -0.059  0.00  0.00    +0.068 C 
BRANCH  17  24
ATOM     19  C   UNL     1      -3.232  -2.626   0.177  0.00  0.00    +0.009 A 
ATOM     20  C   UNL     1      -4.303  -3.488   0.286  0.00  0.00    +0.023 A 
ATOM     21  C   UNL     1      -4.123  -4.848   0.095  0.00  0.00    +0.071 A 
ATOM     22  C   UNL     1      -2.868  -5.352  -0.206  0.00  0.00    +0.145 A 
ATOM     23  C   UNL     1      -1.790  -4.502  -0.323  0.00  0.00    +0.042 A 
ATOM     24  C   UNL     1      -1.963  -3.128  -0.126  0.00  0.00    -0.023 A 
ATOM     25 CL   UNL     1      -5.477  -5.926   0.234  0.00  0.00    -0.081 Cl
BRANCH  22  26
ATOM     26  N   UNL     1      -2.686  -6.807  -0.408  0.00  0.00    +0.058 N 
ATOM     27  O   UNL     1      -1.584  -7.252  -0.673  0.00  0.00    -0.126 OA
ATOM     28  O   UNL     1      -3.639  -7.560  -0.310  0.00  0.00    -0.126 OA
ENDBRANCH  22  26
ENDBRANCH  17  24
ENDBRANCH   1  18
TORSDOF 5
