REMARK  Name = ZINC02192534
REMARK  6 active torsions:
REMARK  status: ('A' for Active; 'I' for Inactive)
REMARK    1  A    between atoms: C_4  and  C_7
REMARK    2  A    between atoms: C_7  and  C_8
REMARK    3  A    between atoms: C_8  and  C_9
REMARK    4  A    between atoms: N_11  and  C_12
REMARK    5  A    between atoms: C_12  and  C_32
REMARK    6  A    between atoms: N_20  and  C_25
REMARK                            x       y       z     vdW  Elec       q    Type
REMARK                         _______ _______ _______ _____ _____    ______ ____
ROOT
ATOM      1  C   UNL     1       0.206   0.910  -4.933  0.00  0.00    +0.240 C 
ATOM      2  C   UNL     1      -0.492   1.569  -6.100  0.00  0.00    +0.097 A 
ATOM      3  C   UNL     1      -1.794   1.487  -6.607  0.00  0.00    +0.262 A 
ATOM      4  O   UNL     1      -2.619   0.765  -6.074  0.00  0.00    -0.267 OA
ATOM      5  N   UNL     1      -2.128   2.216  -7.693  0.00  0.00    -0.274 N 
ATOM      6  H   UNL     1      -3.055   2.164  -8.063  0.00  0.00    +0.173 HD
ATOM      7  C   UNL     1      -1.215   3.013  -8.278  0.00  0.00    +0.335 A 
ATOM      8  O   UNL     1      -1.532   3.663  -9.255  0.00  0.00    -0.246 OA
ATOM      9  N   UNL     1       0.040   3.105  -7.805  0.00  0.00    -0.249 N 
ATOM     10  C   UNL     1       0.428   2.378  -6.698  0.00  0.00    +0.125 A 
ATOM     11  N   UNL     1       1.637   2.313  -6.047  0.00  0.00    -0.269 N 
ATOM     12  C   UNL     1       1.612   1.474  -4.992  0.00  0.00    +0.256 C 
ATOM     13  O   UNL     1       2.528   1.219  -4.240  0.00  0.00    -0.272 OA
ATOM     14  H   UNL     1       2.422   2.814  -6.318  0.00  0.00    +0.156 HD
ENDROOT
BRANCH   9  15
ATOM     15  C   UNL     1       0.962   3.946  -8.442  0.00  0.00    +0.053 A 
ATOM     16  C   UNL     1       1.394   3.657  -9.730  0.00  0.00    +0.028 A 
ATOM     17  C   UNL     1       2.300   4.490 -10.357  0.00  0.00    +0.022 A 
ATOM     18  C   UNL     1       2.784   5.607  -9.700  0.00  0.00    +0.041 A 
ATOM     19  C   UNL     1       2.359   5.895  -8.414  0.00  0.00    +0.022 A 
ATOM     20  C   UNL     1       1.450   5.068  -7.785  0.00  0.00    +0.028 A 
ATOM     21 CL   UNL     1       3.927   6.649 -10.488  0.00  0.00    -0.084 Cl
ENDBRANCH   9  15
BRANCH   1  24
ATOM     22  C   UNL     1      -0.639   2.574  -3.365  0.00  0.00    +0.215 C 
ATOM     23  O   UNL     1      -0.188   3.441  -4.084  0.00  0.00    -0.276 OA
ATOM     24  N   UNL     1      -0.443   1.276  -3.671  0.00  0.00    -0.291 N 
ATOM     25  H   UNL     1      -0.732   0.584  -3.056  0.00  0.00    +0.150 HD
BRANCH  22  26
ATOM     26  C   UNL     1      -1.418   2.948  -2.131  0.00  0.00    +0.100 C 
BRANCH  26  27
ATOM     27  C   UNL     1      -1.493   4.472  -2.017  0.00  0.00    +0.044 C 
BRANCH  27  31
ATOM     28  C   UNL     1      -3.701   5.532   1.482  0.00  0.00    +0.000 A 
ATOM     29  C   UNL     1      -2.331   5.363   1.554  0.00  0.00    +0.000 A 
ATOM     30  C   UNL     1      -1.617   5.020   0.422  0.00  0.00    +0.003 A 
ATOM     31  C   UNL     1      -2.272   4.846  -0.783  0.00  0.00    -0.047 A 
ATOM     32  C   UNL     1      -3.642   5.020  -0.856  0.00  0.00    +0.003 A 
ATOM     33  C   UNL     1      -4.357   5.359   0.278  0.00  0.00    +0.000 A 
ENDBRANCH  27  31
ENDBRANCH  26  27
ENDBRANCH  22  26
ENDBRANCH   1  24
BRANCH   1  34
ATOM     34  C   UNL     1       0.226  -0.610  -5.105  0.00  0.00    +0.424 C 
ATOM     35  F   UNL     1      -1.086  -1.088  -5.181  0.00  0.00    -0.167 F 
ATOM     36  F   UNL     1       0.911  -0.936  -6.281  0.00  0.00    -0.167 F 
ATOM     37  F   UNL     1       0.873  -1.194  -4.011  0.00  0.00    -0.167 F 
ENDBRANCH   1  34
TORSDOF 6
