REMARK  Name = ZINC51101171
REMARK  12 active torsions:
REMARK  status: ('A' for Active; 'I' for Inactive)
REMARK    1  A    between atoms: C_1  and  C_2
REMARK    2  A    between atoms: C_6  and  N_9
REMARK    3  A    between atoms: C_7  and  C_8
REMARK    4  A    between atoms: C_10  and  C_12
REMARK    5  A    between atoms: C_12  and  C_13
REMARK    6  A    between atoms: C_12  and  N_14
REMARK    7  A    between atoms: C_18  and  C_20
REMARK    8  A    between atoms: C_20  and  N_21
REMARK    9  A    between atoms: N_21  and  S_22
REMARK   10  A    between atoms: S_22  and  C_25
REMARK   11  A    between atoms: C_25  and  C_26
REMARK   12  A    between atoms: C_25  and  C_27
REMARK                            x       y       z     vdW  Elec       q    Type
REMARK                         _______ _______ _______ _____ _____    ______ ____
ROOT
ATOM      1  N   UNL     1      -0.315  -6.098   3.939  0.00  0.00    +0.387 N 
ATOM      2  C   UNL     1      -1.397  -6.476   3.022  0.00  0.00    -0.078 C 
ATOM      3  C   UNL     1      -1.175  -7.907   2.528  0.00  0.00    -0.018 C 
ATOM      4  C   UNL     1      -1.166  -8.859   3.728  0.00  0.00    +0.001 C 
ATOM      5  C   UNL     1      -0.083  -8.411   4.714  0.00  0.00    -0.012 C 
ATOM      6  C   UNL     1      -0.345  -6.961   5.126  0.00  0.00    -0.073 C 
ATOM      7  H   UNL     1       0.573  -6.202   3.471  0.00  0.00    -0.081 HD
ENDROOT
BRANCH   1   8
ATOM      8  C   UNL     1      -0.489  -4.698   4.349  0.00  0.00    +0.016 C 
ATOM      9  C   UNL     1       0.578  -4.333   5.382  0.00  0.00    -0.004 C 
BRANCH   8  11
ATOM     10  N   UNL     1      -0.964  -2.601   3.126  0.00  0.00    -0.287 N 
ATOM     11  C   UNL     1      -0.351  -3.802   3.146  0.00  0.00    +0.203 C 
ATOM     12  O   UNL     1       0.311  -4.161   2.195  0.00  0.00    -0.277 OA
ATOM     13  H   UNL     1      -1.421  -2.277   3.917  0.00  0.00    +0.155 HD
BRANCH  10  19
ATOM     14  C   UNL     1      -1.443   1.787   0.962  0.00  0.00    +0.044 C 
ATOM     15  C   UNL     1      -1.168   0.307   0.886  0.00  0.00    -0.046 A 
ATOM     16  C   UNL     1      -0.891  -0.282  -0.334  0.00  0.00    +0.004 A 
ATOM     17  C   UNL     1      -0.638  -1.639  -0.408  0.00  0.00    +0.002 A 
ATOM     18  C   UNL     1      -0.661  -2.411   0.737  0.00  0.00    +0.023 A 
ATOM     19  C   UNL     1      -0.939  -1.822   1.964  0.00  0.00    +0.036 A 
ATOM     20  C   UNL     1      -1.188  -0.458   2.035  0.00  0.00    -0.026 A 
ATOM     21  C   UNL     1      -1.484   0.186   3.365  0.00  0.00    +0.046 C 
ENDBRANCH  10  19
ENDBRANCH   8  11
ENDBRANCH   1   8
BRANCH   5  22
ATOM     22  C   UNL     1      -0.117  -9.309   5.953  0.00  0.00    +0.107 C 
BRANCH  22  23
ATOM     23  N   UNL     1       0.246 -10.677   5.575  0.00  0.00    -0.194 NA
ATOM     24  H   UNL     1       0.254 -10.936   4.640  0.00  0.00    +0.148 HD
BRANCH  23  25
ATOM     25  S   UNL     1       0.642 -11.781   6.743  0.00  0.00    +0.032 S 
ATOM     26  O   UNL     1      -0.433 -11.729   7.671  0.00  0.00    -0.158 OA
ATOM     27  O   UNL     1       0.926 -12.977   6.030  0.00  0.00    -0.158 OA
BRANCH  25  28
ATOM     28  C   UNL     1       2.156 -11.133   7.503  0.00  0.00    +0.142 C 
ATOM     29  C   UNL     1       2.689 -12.143   8.521  0.00  0.00    +0.033 C 
ATOM     30  C   UNL     1       3.210 -10.897   6.420  0.00  0.00    +0.033 C 
ENDBRANCH  25  28
ENDBRANCH  23  25
ENDBRANCH  22  23
ENDBRANCH   5  22
TORSDOF 7
