REMARK  Name = ZINC12927000
REMARK  9 active torsions:
REMARK  status: ('A' for Active; 'I' for Inactive)
REMARK    1  A    between atoms: C_1  and  C_2
REMARK    2  A    between atoms: C_2  and  C_3
REMARK    3  A    between atoms: C_2  and  C_4
REMARK    4  A    between atoms: C_4  and  N_5
REMARK    5  A    between atoms: N_5  and  C_6
REMARK    6  A    between atoms: C_7  and  N_22
REMARK    7  A    between atoms: N_8  and  C_15
REMARK    8  A    between atoms: C_15  and  C_16
REMARK    9  A    between atoms: C_23  and  C_25
REMARK                            x       y       z     vdW  Elec       q    Type
REMARK                         _______ _______ _______ _____ _____    ______ ____
ROOT
ATOM      1  C   UNL     1       5.000   4.311   0.287  0.00  0.00    +0.140 A 
ATOM      2  C   UNL     1       5.989   3.944   1.177  0.00  0.00    +0.128 A 
ATOM      3  N   UNL     1       7.109   4.733   1.300  0.00  0.00    -0.276 N 
ATOM      4  C   UNL     1       7.235   5.855   0.568  0.00  0.00    +0.331 A 
ATOM      5  O   UNL     1       8.230   6.542   0.694  0.00  0.00    -0.246 OA
ATOM      6  N   UNL     1       6.279   6.231  -0.301  0.00  0.00    -0.273 N 
ATOM      7  H   UNL     1       6.398   7.070  -0.833  0.00  0.00    +0.173 HD
ATOM      8  C   UNL     1       5.165   5.492  -0.462  0.00  0.00    +0.277 A 
ATOM      9  O   UNL     1       4.305   5.842  -1.252  0.00  0.00    -0.266 OA
ENDROOT
BRANCH   1  10
ATOM     10  N   UNL     1       3.842   3.521   0.135  0.00  0.00    -0.260 N 
ATOM     11  C   UNL     1       3.947   2.248  -0.296  0.00  0.00    +0.251 C 
ATOM     12  O   UNL     1       2.944   1.594  -0.510  0.00  0.00    -0.270 OA
BRANCH  11  13
ATOM     13  C   UNL     1       5.280   1.648  -0.510  0.00  0.00    +0.040 A 
ATOM     14  C   UNL     1       6.374   2.461  -0.814  0.00  0.00    +0.016 A 
ATOM     15  C   UNL     1       7.616   1.897  -1.013  0.00  0.00    +0.042 A 
ATOM     16  C   UNL     1       7.782   0.525  -0.912  0.00  0.00    +0.158 A 
ATOM     17  C   UNL     1       6.698  -0.289  -0.609  0.00  0.00    +0.159 A 
ATOM     18  C   UNL     1       5.450   0.266  -0.409  0.00  0.00    +0.054 A 
ATOM     19  F   UNL     1       6.866  -1.626  -0.511  0.00  0.00    -0.202 F 
ATOM     20  F   UNL     1       9.001  -0.022  -1.108  0.00  0.00    -0.202 F 
ENDBRANCH  11  13
BRANCH  10  21
ATOM     21  C   UNL     1       2.526   4.083   0.447  0.00  0.00    +0.117 C 
BRANCH  21  23
ATOM     22  C   UNL     1       3.083   4.381   2.864  0.00  0.00    +0.009 C 
ATOM     23  C   UNL     1       2.133   3.701   1.875  0.00  0.00    +0.001 C 
ATOM     24  C   UNL     1       0.699   4.158   2.150  0.00  0.00    +0.009 C 
ENDBRANCH  21  23
ENDBRANCH  10  21
ENDBRANCH   1  10
BRANCH   2  25
ATOM     25  N   UNL     1       5.859   2.801   1.929  0.00  0.00    -0.343 N 
ATOM     26  H   UNL     1       5.098   2.215   1.792  0.00  0.00    +0.144 HD
ATOM     27  H   UNL     1       6.527   2.581   2.597  0.00  0.00    +0.144 HD
ENDBRANCH   2  25
BRANCH   3  28
ATOM     28  C   UNL     1       8.169   4.353   2.237  0.00  0.00    +0.163 C 
BRANCH  28  29
ATOM     29  C   UNL     1       7.890   4.965   3.586  0.00  0.00    -0.028 A 
ATOM     30  C   UNL     1       8.392   6.215   3.894  0.00  0.00    +0.005 A 
ATOM     31  C   UNL     1       8.132   6.779   5.130  0.00  0.00    +0.000 A 
ATOM     32  C   UNL     1       7.379   6.087   6.060  0.00  0.00    +0.000 A 
ATOM     33  C   UNL     1       6.882   4.834   5.754  0.00  0.00    +0.000 A 
ATOM     34  C   UNL     1       7.137   4.273   4.516  0.00  0.00    +0.005 A 
ENDBRANCH  28  29
ENDBRANCH   3  28
TORSDOF 7
