REMARK  Name = ZINC45684492
REMARK  6 active torsions:
REMARK  status: ('A' for Active; 'I' for Inactive)
REMARK    1  A    between atoms: C_1  and  C_2
REMARK    2  A    between atoms: C_3  and  C_14
REMARK    3  A    between atoms: N_6  and  C_7
REMARK    4  A    between atoms: C_14  and  C_16
REMARK    5  A    between atoms: C_14  and  N_17
REMARK    6  A    between atoms: C_23  and  C_26
REMARK                            x       y       z     vdW  Elec       q    Type
REMARK                         _______ _______ _______ _____ _____    ______ ____
ROOT
ATOM      1  C   UNL     1      -0.002  -0.326  -2.526  0.00  0.00    +0.105 C 
ATOM      2  C   UNL     1      -1.432   0.046  -2.922  0.00  0.00    +0.033 C 
ENDROOT
BRANCH   1   3
ATOM      3  N   UNL     1       0.482  -1.401  -3.396  0.00  0.00    -0.293 N 
ATOM      4  C   UNL     1       1.028  -1.106  -4.592  0.00  0.00    +0.303 C 
ATOM      5  O   UNL     1       1.037   0.043  -4.989  0.00  0.00    -0.253 OA
ATOM      6  N   UNL     1       1.564  -2.084  -5.348  0.00  0.00    -0.286 N 
ATOM      7  C   UNL     1       2.269  -1.764  -6.597  0.00  0.00    +0.110 C 
ATOM      8  C   UNL     1       1.656  -2.587  -7.734  0.00  0.00    +0.032 C 
ATOM      9  C   UNL     1       1.685  -4.070  -7.358  0.00  0.00    +0.078 C 
ATOM     10  C   UNL     1       0.850  -4.295  -6.095  0.00  0.00    +0.032 C 
ATOM     11  C   UNL     1       1.459  -3.491  -4.937  0.00  0.00    +0.110 C 
ATOM     12  H   UNL     1       0.409  -2.325  -3.111  0.00  0.00    +0.151 HD
BRANCH   9  13
ATOM     13  C   UNL     1       1.114  -4.886  -8.489  0.00  0.00    +0.214 C 
ATOM     14  O   UNL     1       0.722  -4.336  -9.496  0.00  0.00    -0.276 OA
ATOM     15  N   UNL     1       1.038  -6.228  -8.382  0.00  0.00    -0.329 N 
ATOM     16  H   UNL     1       1.352  -6.668  -7.576  0.00  0.00    +0.145 HD
ATOM     17  H   UNL     1       0.671  -6.753  -9.110  0.00  0.00    +0.145 HD
ENDBRANCH   9  13
ENDBRANCH   1   3
BRANCH   1  20
ATOM     18  C   UNL     1      -0.012   1.508   0.009  0.00  0.00    +0.066 C 
ATOM     19  C   UNL     1       0.012   0.001   0.003  0.00  0.00    +0.047 A 
ATOM     20  C   UNL     1       0.017  -0.793  -1.093  0.00  0.00    +0.013 A 
ATOM     21  C   UNL     1       0.042  -2.123  -0.661  0.00  0.00    +0.140 A 
ATOM     22  N   UNL     1       0.052  -2.129   0.648  0.00  0.00    -0.174 NA
ATOM     23  N   UNL     1       0.039  -0.800   1.092  0.00  0.00    -0.237 N 
BRANCH  23  24
ATOM     24  C   UNL     1       0.050  -0.376   2.429  0.00  0.00    +0.066 A 
ATOM     25  C   UNL     1       0.720   0.787   2.784  0.00  0.00    +0.030 A 
ATOM     26  C   UNL     1       0.730   1.203   4.101  0.00  0.00    +0.040 A 
ATOM     27  C   UNL     1       0.071   0.461   5.067  0.00  0.00    +0.124 A 
ATOM     28  C   UNL     1      -0.599  -0.699   4.714  0.00  0.00    +0.040 A 
ATOM     29  C   UNL     1      -0.616  -1.115   3.397  0.00  0.00    +0.030 A 
ATOM     30  F   UNL     1       0.082   0.869   6.354  0.00  0.00    -0.205 F 
ENDBRANCH  23  24
ENDBRANCH   1  20
TORSDOF 4
