REMARK  Name = ZINC14141194
REMARK  4 active torsions:
REMARK  status: ('A' for Active; 'I' for Inactive)
REMARK    1  A    between atoms: C_7  and  C_11
REMARK    2  A    between atoms: C_11  and  C_12
REMARK    3  A    between atoms: N_16  and  C_20
REMARK    4  A    between atoms: C_20  and  C_21
REMARK                            x       y       z     vdW  Elec       q    Type
REMARK                         _______ _______ _______ _____ _____    ______ ____
ROOT
ATOM      1  C   UNL     1       0.515   4.789   3.473  0.00  0.00    +0.165 C 
ATOM      2  C   UNL     1       0.031   4.312   2.119  0.00  0.00    +0.244 C 
ATOM      3  O   UNL     1      -1.119   4.168   1.761  0.00  0.00    -0.273 OA
ATOM      4  N   UNL     1       1.143   4.080   1.395  0.00  0.00    -0.220 N 
ATOM      5  C   UNL     1       2.252   4.348   2.094  0.00  0.00    +0.309 C 
ATOM      6  O   UNL     1       3.377   4.220   1.652  0.00  0.00    -0.252 OA
ATOM      7  N   UNL     1       1.982   4.775   3.341  0.00  0.00    -0.287 N 
ATOM      8  H   UNL     1       2.628   5.026   4.020  0.00  0.00    +0.151 HD
ENDROOT
BRANCH   1   9
ATOM      9  C   UNL     1       0.013   6.207   3.751  0.00  0.00    +0.069 C 
BRANCH   9  16
ATOM     10  C   UNL     1       3.994   8.175   5.249  0.00  0.00    +0.001 A 
ATOM     11  C   UNL     1       3.997   8.419   6.616  0.00  0.00    +0.002 A 
ATOM     12  C   UNL     1       2.906   8.090   7.390  0.00  0.00    +0.026 A 
ATOM     13  C   UNL     1       1.789   7.508   6.798  0.00  0.00    +0.047 A 
ATOM     14  C   UNL     1       1.794   7.257   5.414  0.00  0.00    +0.003 A 
ATOM     15  C   UNL     1       2.909   7.604   4.648  0.00  0.00    +0.010 A 
ATOM     16  C   UNL     1       0.495   6.654   5.107  0.00  0.00    -0.020 A 
ATOM     17  C   UNL     1      -0.181   6.569   6.263  0.00  0.00    +0.087 A 
ATOM     18  N   UNL     1       0.576   7.075   7.285  0.00  0.00    -0.360 N 
ATOM     19  H   UNL     1       0.299   7.122   8.213  0.00  0.00    +0.165 HD
ENDBRANCH   9  16
ENDBRANCH   1   9
BRANCH   4  20
ATOM     20  C   UNL     1       1.139   3.599   0.011  0.00  0.00    +0.153 C 
BRANCH  20  21
ATOM     21  C   UNL     1       1.168   2.092   0.002  0.00  0.00    -0.025 A 
ATOM     22  C   UNL     1       2.381   1.426  -0.013  0.00  0.00    +0.054 A 
ATOM     23  C   UNL     1       2.404   0.041  -0.021  0.00  0.00    +0.164 A 
ATOM     24  C   UNL     1       1.214  -0.674  -0.013  0.00  0.00    +0.180 A 
ATOM     25  C   UNL     1       0.002  -0.004   0.002  0.00  0.00    +0.086 A 
ATOM     26  C   UNL     1      -0.017   1.381   0.010  0.00  0.00    +0.029 A 
ATOM     27 CL   UNL     1      -1.487  -0.896   0.011  0.00  0.00    -0.080 Cl
ATOM     28  O   UNL     1       1.248  -2.038  -0.019  0.00  0.00    -0.487 OA
ATOM     29  C   UNL     1       1.727  -2.646  -1.220  0.00  0.00    +0.232 C 
ATOM     30  C   UNL     1       3.246  -2.720  -1.218  0.00  0.00    +0.082 C 
ATOM     31  C   UNL     1       3.893  -1.343  -1.235  0.00  0.00    +0.232 C 
ATOM     32  O   UNL     1       3.593  -0.628  -0.035  0.00  0.00    -0.488 OA
ENDBRANCH  20  21
ENDBRANCH   4  20
TORSDOF 4
