REMARK  Name = ZINC15730630
REMARK  7 active torsions:
REMARK  status: ('A' for Active; 'I' for Inactive)
REMARK    1  A    between atoms: C_1  and  C_2
REMARK    2  A    between atoms: C_9  and  S_15
REMARK    3  A    between atoms: S_15  and  N_18
REMARK    4  A    between atoms: N_18  and  C_19
REMARK    5  A    between atoms: C_19  and  C_20
REMARK    6  A    between atoms: C_19  and  C_21
REMARK    7  A    between atoms: C_19  and  C_22
REMARK                            x       y       z     vdW  Elec       q    Type
REMARK                         _______ _______ _______ _____ _____    ______ ____
ROOT
ATOM      1  C   UNL     1       5.262   4.502   2.671  0.00  0.00    +0.018 C 
ATOM      2  C   UNL     1       4.317   4.237   1.497  0.00  0.00    +0.082 C 
ATOM      3  C   UNL     1       4.074   2.759   1.392  0.00  0.00    +0.087 C 
ATOM      4  S   UNL     1       3.307   2.260  -0.142  0.00  0.00    -0.123 S 
ATOM      5  C   UNL     1       1.628   2.743  -0.101  0.00  0.00    +0.029 A 
ATOM      6  C   UNL     1       0.720   1.898  -0.755  0.00  0.00    +0.018 A 
ATOM      7  C   UNL     1      -0.625   2.175  -0.793  0.00  0.00    +0.030 A 
ATOM      8  C   UNL     1      -1.102   3.311  -0.163  0.00  0.00    +0.107 A 
ATOM      9  C   UNL     1      -0.225   4.148   0.482  0.00  0.00    +0.053 A 
ATOM     10  C   UNL     1       1.155   3.884   0.527  0.00  0.00    +0.049 A 
ATOM     11  N   UNL     1       1.891   4.818   1.206  0.00  0.00    -0.284 N 
ATOM     12  C   UNL     1       3.060   5.005   1.709  0.00  0.00    +0.221 C 
ATOM     13  O   UNL     1       3.152   5.946   2.468  0.00  0.00    -0.275 OA
ATOM     14  H   UNL     1       1.347   5.606   1.360  0.00  0.00    +0.155 HD
ENDROOT
BRANCH   8  15
ATOM     15  S   UNL     1      -2.824   3.685  -0.194  0.00  0.00    +0.059 S 
ATOM     16  O   UNL     1      -3.510   2.447  -0.069  0.00  0.00    -0.153 OA
ATOM     17  O   UNL     1      -3.022   4.761   0.713  0.00  0.00    -0.153 OA
BRANCH  15  18
ATOM     18  N   UNL     1      -3.172   4.268  -1.704  0.00  0.00    -0.185 NA
ATOM     19  H   UNL     1      -3.744   3.760  -2.301  0.00  0.00    +0.149 HD
BRANCH  18  20
ATOM     20  C   UNL     1      -2.615   5.552  -2.140  0.00  0.00    +0.032 C 
ATOM     21  C   UNL     1      -1.088   5.497  -2.067  0.00  0.00    +0.029 C 
ATOM     22  C   UNL     1      -3.048   5.832  -3.580  0.00  0.00    +0.029 C 
ATOM     23  C   UNL     1      -3.130   6.666  -1.227  0.00  0.00    +0.029 C 
ENDBRANCH  18  20
ENDBRANCH  15  18
ENDBRANCH   8  15
TORSDOF 3
