REMARK  Name = ZINC00934569
REMARK  7 active torsions:
REMARK  status: ('A' for Active; 'I' for Inactive)
REMARK    1  A    between atoms: C_1  and  C_2
REMARK    2  A    between atoms: C_2  and  N_43
REMARK    3  A    between atoms: N_5  and  C_8
REMARK    4  A    between atoms: C_9  and  C_22
REMARK    5  A    between atoms: C_11  and  C_13
REMARK    6  A    between atoms: C_13  and  O_14
REMARK    7  A    between atoms: O_14  and  C_15
REMARK                            x       y       z     vdW  Elec       q    Type
REMARK                         _______ _______ _______ _____ _____    ______ ____
ROOT
ATOM      1  C   UNL     1      -1.280   2.821   2.943  0.00  0.00    +0.227 A 
ATOM      2  C   UNL     1      -2.061   1.677   2.939  0.00  0.00    +0.201 A 
ATOM      3  N   UNL     1      -1.668   0.937   1.863  0.00  0.00    -0.198 NA
ATOM      4  C   UNL     1      -0.718   1.572   1.248  0.00  0.00    +0.237 A 
ATOM      5  O   UNL     1      -0.454   2.724   1.885  0.00  0.00    -0.421 OA
ENDROOT
BRANCH   1   8
ATOM      6  C   UNL     1      -0.388   5.981   4.609  0.00  0.00    -0.060 C 
ATOM      7  C   UNL     1      -0.350   4.895   3.532  0.00  0.00    +0.089 C 
ATOM      8  N   UNL     1      -1.335   3.853   3.856  0.00  0.00    -0.303 N 
ATOM      9  C   UNL     1      -2.690   4.419   3.930  0.00  0.00    +0.089 C 
ATOM     10  C   UNL     1      -2.728   5.505   5.007  0.00  0.00    -0.060 C 
ATOM     11  N   UNL     1      -1.749   6.556   4.658  0.00  0.00    +0.382 N 
ATOM     12  H   UNL     1      -1.984   6.938   3.734  0.00  0.00    -0.082 HD
BRANCH  11  14
ATOM     13  C   UNL     1      -3.144   8.369   5.528  0.00  0.00    -0.017 C 
ATOM     14  C   UNL     1      -1.801   7.647   5.655  0.00  0.00    -0.082 C 
ENDBRANCH  11  14
ENDBRANCH   1   8
BRANCH   2  15
ATOM     15  C   UNL     1      -3.083   1.337   3.882  0.00  0.00    +0.124 C 
ATOM     16  N   UNL     1      -3.894   1.067   4.631  0.00  0.00    -0.189 NA
ENDBRANCH   2  15
BRANCH   4  17
ATOM     17  C   UNL     1      -0.013   1.086   0.008  0.00  0.00    +0.324 C 
BRANCH  17  18
ATOM     18  O   UNL     1      -0.704   1.559  -1.150  0.00  0.00    -0.483 OA
BRANCH  18  19
ATOM     19  C   UNL     1      -0.194   1.208  -2.360  0.00  0.00    +0.121 A 
ATOM     20  C   UNL     1       0.951   0.428  -2.431  0.00  0.00    +0.047 A 
ATOM     21  C   UNL     1       1.464   0.066  -3.661  0.00  0.00    +0.019 A 
ATOM     22  C   UNL     1       0.844   0.491  -4.822  0.00  0.00    +0.018 A 
ATOM     23  C   UNL     1      -0.295   1.274  -4.754  0.00  0.00    +0.019 A 
ATOM     24  C   UNL     1      -0.815   1.633  -3.525  0.00  0.00    +0.047 A 
ATOM     25 BR   UNL     1       1.552   0.001  -6.505  0.00  0.00    -0.050 Br
ENDBRANCH  18  19
ENDBRANCH  17  18
ENDBRANCH   4  17
TORSDOF 6
