REMARK  Name = ZINC66336203
REMARK  7 active torsions:
REMARK  status: ('A' for Active; 'I' for Inactive)
REMARK    1  A    between atoms: C_1  and  C_2
REMARK    2  A    between atoms: C_2  and  C_4
REMARK    3  A    between atoms: C_2  and  N_13
REMARK    4  A    between atoms: C_8  and  N_10
REMARK    5  A    between atoms: N_16  and  C_17
REMARK    6  A    between atoms: N_16  and  C_18
REMARK    7  A    between atoms: C_18  and  C_19
REMARK                            x       y       z     vdW  Elec       q    Type
REMARK                         _______ _______ _______ _____ _____    ______ ____
ROOT
ATOM      1  N   UNL     1       0.688  -0.476  -1.203  0.00  0.00    -0.293 N 
ATOM      2  C   UNL     1       2.031  -0.587  -1.215  0.00  0.00    +0.303 C 
ATOM      3  O   UNL     1       2.674  -0.294  -0.225  0.00  0.00    -0.253 OA
ATOM      4  N   UNL     1       2.662  -1.022  -2.324  0.00  0.00    -0.284 N 
ATOM      5  C   UNL     1       1.887  -1.374  -3.517  0.00  0.00    +0.134 C 
ATOM      6  H   UNL     1       0.175  -0.710  -1.993  0.00  0.00    +0.151 HD
ENDROOT
BRANCH   1   8
ATOM      7  C   UNL     1      -0.019   1.526   0.010  0.00  0.00    +0.033 C 
ATOM      8  C   UNL     1       0.002  -0.004   0.002  0.00  0.00    +0.102 C 
BRANCH   8   9
ATOM      9  C   UNL     1      -1.412  -0.526   0.013  0.00  0.00    -0.025 A 
ATOM     10  C   UNL     1      -2.142  -0.569  -1.161  0.00  0.00    +0.005 A 
ATOM     11  C   UNL     1      -3.438  -1.047  -1.151  0.00  0.00    +0.003 A 
ATOM     12  C   UNL     1      -4.005  -1.483   0.032  0.00  0.00    +0.033 A 
ATOM     13  C   UNL     1      -3.275  -1.441   1.205  0.00  0.00    +0.127 A 
ATOM     14  C   UNL     1      -1.977  -0.966   1.195  0.00  0.00    +0.038 A 
BRANCH  13  15
ATOM     15  N   UNL     1      -3.883  -1.907   2.472  0.00  0.00    +0.056 N 
ATOM     16  O   UNL     1      -5.017  -2.325   2.481  0.00  0.00    -0.126 OA
ATOM     17  O   UNL     1      -3.244  -1.870   3.498  0.00  0.00    -0.126 OA
ENDBRANCH  13  15
ENDBRANCH   8   9
ENDBRANCH   1   8
BRANCH   4  18
ATOM     18  C   UNL     1       4.122  -1.142  -2.336  0.00  0.00    +0.144 C 
BRANCH  18  19
ATOM     19  C   UNL     1       4.516  -2.521  -1.876  0.00  0.00    -0.022 A 
ATOM     20  C   UNL     1       4.737  -2.778  -0.536  0.00  0.00    +0.028 A 
ATOM     21  C   UNL     1       5.091  -4.031  -0.156  0.00  0.00    +0.055 A 
ATOM     22  S   UNL     1       5.121  -4.895  -1.717  0.00  0.00    -0.090 S 
ATOM     23  C   UNL     1       4.655  -3.531  -2.770  0.00  0.00    +0.051 A 
ATOM     24 BR   UNL     1       5.457  -4.690   1.578  0.00  0.00    -0.043 Br
ENDBRANCH  18  19
ENDBRANCH   4  18
TORSDOF 5
