REMARK  Name = ZINC66347575
REMARK  4 active torsions:
REMARK  status: ('A' for Active; 'I' for Inactive)
REMARK    1  A    between atoms: C_3  and  N_13
REMARK    2  A    between atoms: N_16  and  C_17
REMARK    3  A    between atoms: C_17  and  C_18
REMARK    4  A    between atoms: N_22  and  C_24
REMARK                            x       y       z     vdW  Elec       q    Type
REMARK                         _______ _______ _______ _____ _____    ______ ____
ROOT
ATOM      1  N   UNL     1       3.583   2.026  -0.003  0.00  0.00    -0.267 N 
ATOM      2  C   UNL     1       3.613   3.371  -0.088  0.00  0.00    +0.304 C 
ATOM      3  O   UNL     1       2.575   4.004  -0.075  0.00  0.00    -0.253 OA
ATOM      4  N   UNL     1       4.793   4.014  -0.189  0.00  0.00    -0.299 N 
ATOM      5  H   UNL     1       4.412   1.525   0.049  0.00  0.00    +0.156 HD
ATOM      6  H   UNL     1       5.621   3.508  -0.200  0.00  0.00    +0.150 HD
ENDROOT
BRANCH   1   9
ATOM      7  C   UNL     1       0.049   1.216   0.614  0.00  0.00    +0.019 A 
ATOM      8  C   UNL     1       1.245   1.922   0.624  0.00  0.00    +0.028 A 
ATOM      9  C   UNL     1       2.354   1.352   0.013  0.00  0.00    +0.073 A 
ATOM     10  C   UNL     1       2.226   0.096  -0.587  0.00  0.00    +0.121 A 
ATOM     11  N   UNL     1       1.066  -0.539  -0.573  0.00  0.00    -0.348 N 
ATOM     12  C   UNL     1      -0.003  -0.019   0.002  0.00  0.00    +0.084 A 
ATOM     13  N   UNL     1       3.327  -0.490  -1.204  0.00  0.00    -0.315 N 
ATOM     14  C   UNL     1       4.171  -1.448  -0.476  0.00  0.00    +0.106 C 
ATOM     15  C   UNL     1       4.278  -2.735  -1.300  0.00  0.00    +0.019 C 
ATOM     16  C   UNL     1       4.780  -2.397  -2.705  0.00  0.00    +0.003 C 
ATOM     17  C   UNL     1       3.781  -1.464  -3.394  0.00  0.00    +0.019 C 
ATOM     18  C   UNL     1       3.665  -0.167  -2.597  0.00  0.00    +0.106 C 
ATOM     19  H   UNL     1       0.999  -1.410  -0.995  0.00  0.00    +0.167 HD
ENDBRANCH   1   9
BRANCH   4  20
ATOM     20  C   UNL     1       4.826   5.475  -0.283  0.00  0.00    +0.110 C 
BRANCH  20  21
ATOM     21  C   UNL     1       6.277   5.947  -0.387  0.00  0.00    +0.025 C 
ATOM     22  C   UNL     1       7.032   5.724   0.950  0.00  0.00    +0.025 C 
ATOM     23  C   UNL     1       8.134   6.804   0.910  0.00  0.00    +0.105 C 
ATOM     24  N   UNL     1       7.684   7.852  -0.018  0.00  0.00    -0.330 N 
ATOM     25  C   UNL     1       6.351   7.488  -0.533  0.00  0.00    +0.110 C 
BRANCH  24  26
ATOM     26  C   UNL     1       8.400   9.004  -0.356  0.00  0.00    +0.030 A 
ATOM     27  C   UNL     1       7.860   9.925  -1.244  0.00  0.00    +0.026 A 
ATOM     28  C   UNL     1       8.569  11.062  -1.576  0.00  0.00    +0.040 A 
ATOM     29  C   UNL     1       9.819  11.285  -1.024  0.00  0.00    +0.124 A 
ATOM     30  C   UNL     1      10.360  10.369  -0.137  0.00  0.00    +0.040 A 
ATOM     31  C   UNL     1       9.652   9.233   0.201  0.00  0.00    +0.026 A 
ATOM     32  F   UNL     1      10.512  12.399  -1.350  0.00  0.00    -0.205 F 
ENDBRANCH  24  26
ENDBRANCH  20  21
ENDBRANCH   4  20
TORSDOF 4
