REMARK  Name = ZINC59248087
REMARK  8 active torsions:
REMARK  status: ('A' for Active; 'I' for Inactive)
REMARK    1  A    between atoms: C_1  and  C_2
REMARK    2  A    between atoms: C_2  and  C_4
REMARK    3  A    between atoms: C_2  and  O_7
REMARK    4  A    between atoms: O_7  and  C_8
REMARK    5  A    between atoms: C_11  and  C_14
REMARK    6  A    between atoms: C_15  and  C_16
REMARK    7  A    between atoms: C_15  and  C_18
REMARK    8  A    between atoms: N_20  and  C_21
REMARK                            x       y       z     vdW  Elec       q    Type
REMARK                         _______ _______ _______ _____ _____    ______ ____
ROOT
ATOM      1  C   UNL     1       6.113  -1.541  -0.489  0.00  0.00    +0.032 C 
ATOM      2  C   UNL     1       6.895  -1.841  -1.583  0.00  0.00    +0.114 C 
ENDROOT
BRANCH   1   6
ATOM      3  C   UNL     1       1.901  -1.766  -0.777  0.00  0.00    +0.122 A 
ATOM      4  C   UNL     1       2.686  -2.803  -1.272  0.00  0.00    +0.046 A 
ATOM      5  C   UNL     1       4.047  -2.736  -1.182  0.00  0.00    +0.011 A 
ATOM      6  C   UNL     1       4.654  -1.619  -0.589  0.00  0.00    -0.023 A 
ATOM      7  C   UNL     1       3.858  -0.577  -0.092  0.00  0.00    +0.011 A 
ATOM      8  C   UNL     1       2.497  -0.653  -0.193  0.00  0.00    +0.046 A 
BRANCH   3   9
ATOM      9  O   UNL     1       0.550  -1.838  -0.870  0.00  0.00    -0.478 OA
BRANCH   9  11
ATOM     10  C   UNL     1      -0.114  -4.085  -0.278  0.00  0.00    +0.064 C 
ATOM     11  C   UNL     1      -0.001  -3.047  -1.396  0.00  0.00    +0.282 C 
BRANCH  11  12
ATOM     12  C   UNL     1      -1.369  -2.771  -1.965  0.00  0.00    +0.395 C 
ATOM     13  O   UNL     1      -1.867  -1.665  -1.843  0.00  0.00    -0.242 OA
ATOM     14  O   UNL     1      -1.976  -3.652  -2.548  0.00  0.00    -0.242 OA
ENDBRANCH  11  12
ENDBRANCH   9  11
ENDBRANCH   3   9
ENDBRANCH   1   6
BRANCH   2  15
ATOM     15  C   UNL     1       6.275  -2.015  -2.905  0.00  0.00    +0.259 C 
ATOM     16  O   UNL     1       5.093  -1.770  -3.060  0.00  0.00    -0.269 OA
ATOM     17  N   UNL     1       7.016  -2.447  -3.946  0.00  0.00    -0.281 N 
ATOM     18  H   UNL     1       7.940  -2.708  -3.808  0.00  0.00    +0.155 HD
BRANCH  17  19
ATOM     19  C   UNL     1       6.452  -2.517  -5.224  0.00  0.00    +0.034 A 
ATOM     20  C   UNL     1       6.830  -3.530  -6.096  0.00  0.00    +0.025 A 
ATOM     21  C   UNL     1       6.272  -3.597  -7.357  0.00  0.00    +0.022 A 
ATOM     22  C   UNL     1       5.337  -2.657  -7.753  0.00  0.00    +0.041 A 
ATOM     23  C   UNL     1       4.959  -1.647  -6.886  0.00  0.00    +0.022 A 
ATOM     24  C   UNL     1       5.510  -1.578  -5.622  0.00  0.00    +0.025 A 
ATOM     25 CL   UNL     1       4.638  -2.744  -9.340  0.00  0.00    -0.084 Cl
ENDBRANCH  17  19
ENDBRANCH   2  15
BRANCH   2  26
ATOM     26  C   UNL     1       8.312  -1.982  -1.433  0.00  0.00    +0.104 C 
ATOM     27  N   UNL     1       9.437  -2.094  -1.313  0.00  0.00    -0.191 NA
ENDBRANCH   2  26
TORSDOF 7
