REMARK  Name = ZINC39697709
REMARK  8 active torsions:
REMARK  status: ('A' for Active; 'I' for Inactive)
REMARK    1  A    between atoms: C_1  and  C_2
REMARK    2  A    between atoms: C_8  and  C_14
REMARK    3  A    between atoms: C_14  and  N_15
REMARK    4  A    between atoms: N_15  and  C_16
REMARK    5  A    between atoms: C_16  and  C_17
REMARK    6  A    between atoms: C_22  and  O_23
REMARK    7  A    between atoms: O_23  and  C_24
REMARK    8  A    between atoms: N_27  and  C_28
REMARK                            x       y       z     vdW  Elec       q    Type
REMARK                         _______ _______ _______ _____ _____    ______ ____
ROOT
ATOM      1  N   UNL     1      -1.228  -2.260   6.338  0.00  0.00    -0.280 N 
ATOM      2  C   UNL     1      -0.309  -2.358   7.319  0.00  0.00    +0.307 C 
ATOM      3  O   UNL     1       0.119  -3.448   7.645  0.00  0.00    -0.252 OA
ATOM      4  N   UNL     1       0.134  -1.246   7.940  0.00  0.00    -0.269 N 
ATOM      5  H   UNL     1      -0.265  -0.386   7.737  0.00  0.00    +0.156 HD
ENDROOT
BRANCH   4   6
ATOM      6  C   UNL     1       1.171  -1.334   8.876  0.00  0.00    +0.035 A 
ATOM      7  C   UNL     1       2.144  -2.316   8.746  0.00  0.00    +0.023 A 
ATOM      8  C   UNL     1       3.166  -2.400   9.672  0.00  0.00    +0.002 A 
ATOM      9  C   UNL     1       3.220  -1.507  10.726  0.00  0.00    +0.000 A 
ATOM     10  C   UNL     1       2.252  -0.529  10.859  0.00  0.00    +0.002 A 
ATOM     11  C   UNL     1       1.231  -0.436   9.934  0.00  0.00    +0.023 A 
ENDBRANCH   4   6
BRANCH   1  12
ATOM     12  C   UNL     1      -1.623  -3.453   5.584  0.00  0.00    +0.126 C 
BRANCH  12  20
ATOM     13  C   UNL     1      -1.092  -2.101  -0.380  0.00  0.00    +0.045 C 
ATOM     14  C   UNL     1      -1.293  -3.414   0.332  0.00  0.00    -0.029 A 
ATOM     15  C   UNL     1      -1.700  -4.505  -0.369  0.00  0.00    +0.005 A 
ATOM     16  C   UNL     1      -1.904  -5.750   0.227  0.00  0.00    +0.001 A 
ATOM     17  C   UNL     1      -1.705  -5.938   1.557  0.00  0.00    +0.009 A 
ATOM     18  C   UNL     1      -1.267  -4.804   2.372  0.00  0.00    -0.007 A 
ATOM     19  C   UNL     1      -1.054  -4.947   3.711  0.00  0.00    -0.003 C 
ATOM     20  C   UNL     1      -0.601  -3.719   4.477  0.00  0.00    +0.116 C 
ATOM     21  C   UNL     1      -0.422  -2.438   3.694  0.00  0.00    +0.226 C 
ATOM     22  O   UNL     1      -0.060  -1.423   4.259  0.00  0.00    -0.275 OA
ATOM     23  N   UNL     1      -0.660  -2.425   2.393  0.00  0.00    -0.284 N 
ATOM     24  C   UNL     1      -1.054  -3.503   1.715  0.00  0.00    +0.043 A 
ATOM     25  H   UNL     1      -0.539  -1.593   1.910  0.00  0.00    +0.155 HD
ENDBRANCH  12  20
ENDBRANCH   1  12
BRANCH   1  26
ATOM     26  C   UNL     1      -1.830  -0.962   6.024  0.00  0.00    +0.148 C 
BRANCH  26  27
ATOM     27  C   UNL     1      -3.169  -0.852   6.707  0.00  0.00    +0.012 A 
ATOM     28  C   UNL     1      -4.332  -1.020   5.981  0.00  0.00    +0.009 A 
ATOM     29  C   UNL     1      -5.561  -0.919   6.606  0.00  0.00    +0.001 A 
ATOM     30  C   UNL     1      -5.629  -0.649   7.961  0.00  0.00    +0.004 A 
ATOM     31  C   UNL     1      -4.469  -0.480   8.692  0.00  0.00    +0.046 A 
ATOM     32  C   UNL     1      -3.235  -0.587   8.067  0.00  0.00    +0.125 A 
BRANCH  32  33
ATOM     33  O   UNL     1      -2.092  -0.427   8.786  0.00  0.00    -0.495 OA
ATOM     34  C   UNL     1      -2.236  -0.156  10.181  0.00  0.00    +0.277 C 
ENDBRANCH  32  33
ENDBRANCH  26  27
ENDBRANCH   1  26
TORSDOF 6
