REMARK  Name = ZINC38874028
REMARK  6 active torsions:
REMARK  status: ('A' for Active; 'I' for Inactive)
REMARK    1  A    between atoms: C_1  and  O_2
REMARK    2  A    between atoms: O_2  and  C_3
REMARK    3  A    between atoms: N_11  and  C_12
REMARK    4  A    between atoms: C_12  and  C_14
REMARK    5  A    between atoms: N_22  and  C_23
REMARK    6  A    between atoms: C_23  and  C_24
REMARK                            x       y       z     vdW  Elec       q    Type
REMARK                         _______ _______ _______ _____ _____    ______ ____
ROOT
ATOM      1  C   UNL     1       1.631  -0.398  -1.243  0.00  0.00    +0.121 A 
ATOM      2  C   UNL     1       1.972   0.155  -2.471  0.00  0.00    +0.048 A 
ATOM      3  C   UNL     1       2.211  -0.637  -3.567  0.00  0.00    +0.030 A 
ATOM      4  C   UNL     1       2.119  -2.038  -3.481  0.00  0.00    +0.059 A 
ATOM      5  C   UNL     1       1.774  -2.568  -2.229  0.00  0.00    +0.042 A 
ATOM      6  C   UNL     1       1.539  -1.778  -1.129  0.00  0.00    +0.062 A 
ATOM      7  S   UNL     1       1.760  -4.321  -2.515  0.00  0.00    -0.052 S 
ATOM      8  C   UNL     1       2.201  -4.293  -4.245  0.00  0.00    +0.168 A 
ATOM      9  N   UNL     1       2.362  -5.314  -5.080  0.00  0.00    -0.152 NA
ATOM     10  N   UNL     1       2.331  -2.960  -4.492  0.00  0.00    -0.310 N 
ENDROOT
BRANCH   1  12
ATOM     11  C   UNL     1       1.514   1.810  -0.369  0.00  0.00    +0.277 C 
ATOM     12  O   UNL     1       1.398   0.400  -0.168  0.00  0.00    -0.495 OA
ENDBRANCH   1  12
BRANCH   9  13
ATOM     13  C   UNL     1       2.828  -5.100  -6.315  0.00  0.00    +0.272 C 
ATOM     14  O   UNL     1       2.052  -4.895  -7.232  0.00  0.00    -0.268 OA
BRANCH  13  15
ATOM     15  C   UNL     1       4.285  -5.113  -6.569  0.00  0.00    +0.074 A 
ATOM     16  C   UNL     1       5.177  -5.354  -5.522  0.00  0.00    +0.019 A 
ATOM     17  C   UNL     1       6.533  -5.365  -5.763  0.00  0.00    +0.039 A 
ATOM     18  C   UNL     1       7.016  -5.137  -7.044  0.00  0.00    +0.126 A 
ATOM     19  C   UNL     1       6.138  -4.898  -8.088  0.00  0.00    +0.077 A 
ATOM     20  C   UNL     1       4.775  -4.891  -7.859  0.00  0.00    +0.138 A 
ATOM     21  F   UNL     1       3.918  -4.663  -8.879  0.00  0.00    -0.205 F 
ATOM     22  F   UNL     1       8.347  -5.149  -7.273  0.00  0.00    -0.205 F 
ENDBRANCH  13  15
ENDBRANCH   9  13
BRANCH  10  23
ATOM     23  C   UNL     1       2.695  -2.499  -5.835  0.00  0.00    +0.212 C 
BRANCH  23  24
ATOM     24  C   UNL     1       1.486  -2.420  -6.671  0.00  0.00    -0.084 C 
ATOM     25  C   UNL     1       0.522  -2.358  -7.338  0.00  0.00    +0.005 C 
ENDBRANCH  23  24
ENDBRANCH  10  23
TORSDOF 5
