REMARK  Name = ZINC45678612
REMARK  6 active torsions:
REMARK  status: ('A' for Active; 'I' for Inactive)
REMARK    1  A    between atoms: C_1  and  C_2
REMARK    2  A    between atoms: C_5  and  C_7
REMARK    3  A    between atoms: C_7  and  N_8
REMARK    4  A    between atoms: N_14  and  C_17
REMARK    5  A    between atoms: C_17  and  C_18
REMARK    6  A    between atoms: C_25  and  C_27
REMARK                            x       y       z     vdW  Elec       q    Type
REMARK                         _______ _______ _______ _____ _____    ______ ____
ROOT
ATOM      1  N   UNL     1       1.137  -4.614  -1.309  0.00  0.00    -0.295 N 
ATOM      2  C   UNL     1       1.627  -5.838  -1.589  0.00  0.00    +0.303 C 
ATOM      3  O   UNL     1       2.014  -6.558  -0.689  0.00  0.00    -0.253 OA
ATOM      4  N   UNL     1       1.687  -6.264  -2.866  0.00  0.00    -0.283 N 
ATOM      5  C   UNL     1       1.333  -5.369  -3.978  0.00  0.00    +0.124 C 
ATOM      6  C   UNL     1       0.318  -6.085  -4.875  0.00  0.00    +0.104 C 
ATOM      7  N   UNL     1       0.860  -7.390  -5.277  0.00  0.00    -0.291 NA
ATOM      8  C   UNL     1       1.064  -8.264  -4.114  0.00  0.00    +0.104 C 
ATOM      9  C   UNL     1       2.115  -7.635  -3.186  0.00  0.00    +0.124 C 
ATOM     10  H   UNL     1       0.897  -4.011  -2.030  0.00  0.00    +0.151 HD
ENDROOT
BRANCH   1  11
ATOM     11  C   UNL     1       0.967  -4.194   0.084  0.00  0.00    +0.148 C 
BRANCH  11  16
ATOM     12  C   UNL     1      -0.188   1.350   0.225  0.00  0.00    +0.051 C 
ATOM     13  C   UNL     1      -0.142  -0.156   0.190  0.00  0.00    -0.013 A 
ATOM     14  C   UNL     1      -1.169  -1.041   0.177  0.00  0.00    +0.011 A 
ATOM     15  C   UNL     1      -0.887  -2.394   0.142  0.00  0.00    +0.013 A 
ATOM     16  C   UNL     1       0.408  -2.795   0.122  0.00  0.00    +0.007 A 
ATOM     17  S   UNL     1       1.278  -1.236   0.145  0.00  0.00    -0.097 S 
ENDBRANCH  11  16
ENDBRANCH   1  11
BRANCH   7  18
ATOM     18  C   UNL     1      -0.004  -8.035  -6.274  0.00  0.00    +0.180 C 
BRANCH  18  19
ATOM     19  C   UNL     1       0.697  -9.242  -6.842  0.00  0.00    +0.230 C 
ATOM     20  O   UNL     1       1.807  -9.537  -6.453  0.00  0.00    -0.274 OA
ATOM     21  N   UNL     1       0.089  -9.995  -7.780  0.00  0.00    -0.298 N 
ATOM     22  C   UNL     1      -1.196  -9.579  -8.357  0.00  0.00    +0.108 C 
ATOM     23  C   UNL     1      -2.197 -10.730  -8.211  0.00  0.00    +0.019 C 
ATOM     24  C   UNL     1      -1.607 -11.996  -8.838  0.00  0.00    +0.003 C 
ATOM     25  C   UNL     1      -0.321 -12.379  -8.103  0.00  0.00    +0.022 C 
ATOM     26  C   UNL     1       0.704 -11.244  -8.251  0.00  0.00    +0.073 C 
ATOM     27  C   UNL     1       1.943 -11.555  -7.409  0.00  0.00    +0.028 C 
ENDBRANCH  18  19
ENDBRANCH   7  18
TORSDOF 4
