REMARK  Name = ZINC66179034
REMARK  9 active torsions:
REMARK  status: ('A' for Active; 'I' for Inactive)
REMARK    1  A    between atoms: C_1  and  C_2
REMARK    2  A    between atoms: C_5  and  C_30
REMARK    3  A    between atoms: N_8  and  C_10
REMARK    4  A    between atoms: C_10  and  C_11
REMARK    5  A    between atoms: C_11  and  C_12
REMARK    6  A    between atoms: C_12  and  C_13
REMARK    7  A    between atoms: C_13  and  N_14
REMARK    8  A    between atoms: C_20  and  N_23
REMARK    9  A    between atoms: C_24  and  C_26
REMARK                            x       y       z     vdW  Elec       q    Type
REMARK                         _______ _______ _______ _____ _____    ______ ____
ROOT
ATOM      1  N   UNL     1       6.033  -2.575   4.436  0.00  0.00    -0.299 N 
ATOM      2  C   UNL     1       7.352  -2.312   4.518  0.00  0.00    +0.302 C 
ATOM      3  O   UNL     1       7.919  -1.755   3.598  0.00  0.00    -0.253 OA
ATOM      4  N   UNL     1       8.042  -2.665   5.621  0.00  0.00    -0.286 N 
ATOM      5  C   UNL     1       7.399  -3.440   6.690  0.00  0.00    +0.111 C 
ATOM      6  C   UNL     1       7.593  -2.703   8.019  0.00  0.00    +0.041 C 
ATOM      7  C   UNL     1       9.084  -2.442   8.241  0.00  0.00    +0.076 C 
ATOM      8  C   UNL     1       9.622  -1.557   7.114  0.00  0.00    +0.041 C 
ATOM      9  C   UNL     1       9.454  -2.287   5.773  0.00  0.00    +0.111 C 
ATOM     10  H   UNL     1       5.595  -3.084   5.137  0.00  0.00    +0.150 HD
ENDROOT
BRANCH   7  11
ATOM     11  N   UNL     1       9.275  -1.766   9.526  0.00  0.00    -0.312 N 
ATOM     12  C   UNL     1      10.451  -1.874  10.176  0.00  0.00    +0.216 C 
ATOM     13  O   UNL     1      11.351  -2.531   9.697  0.00  0.00    -0.276 OA
ATOM     14  H   UNL     1       8.556  -1.240   9.910  0.00  0.00    +0.149 HD
BRANCH  12  15
ATOM     15  C   UNL     1      10.648  -1.178  11.498  0.00  0.00    +0.075 C 
ATOM     16  C   UNL     1      10.084  -1.961  12.696  0.00  0.00    +0.013 C 
ATOM     17  C   UNL     1      11.457  -2.647  12.793  0.00  0.00    +0.001 C 
ATOM     18  C   UNL     1      12.041  -1.400  12.110  0.00  0.00    +0.013 C 
ENDBRANCH  12  15
ENDBRANCH   7  11
BRANCH   1  19
ATOM     19  C   UNL     1       5.260  -2.094   3.289  0.00  0.00    +0.105 C 
BRANCH  19  20
ATOM     20  C   UNL     1       3.800  -2.526   3.440  0.00  0.00    +0.017 C 
BRANCH  20  21
ATOM     21  C   UNL     1       2.992  -2.024   2.241  0.00  0.00    -0.017 C 
BRANCH  21  22
ATOM     22  C   UNL     1       1.532  -2.456   2.393  0.00  0.00    -0.079 C 
BRANCH  22  28
ATOM     23  C   UNL     1      -0.018   1.534   0.017  0.00  0.00    +0.005 C 
ATOM     24  C   UNL     1       0.001   0.004   0.007  0.00  0.00    -0.031 C 
ATOM     25  C   UNL     1      -1.435  -0.526   0.021  0.00  0.00    +0.003 C 
ATOM     26  C   UNL     1      -1.404  -2.056   0.090  0.00  0.00    -0.031 C 
ATOM     27  C   UNL     1      -0.615  -2.489   1.327  0.00  0.00    -0.076 C 
ATOM     28  N   UNL     1       0.757  -1.973   1.242  0.00  0.00    +0.380 N 
ATOM     29  C   UNL     1       0.740  -0.505   1.247  0.00  0.00    -0.076 C 
ATOM     30  C   UNL     1      -0.730  -2.611  -1.167  0.00  0.00    +0.005 C 
ATOM     31  H   UNL     1       1.186  -2.300   0.389  0.00  0.00    -0.082 HD
ENDBRANCH  22  28
ENDBRANCH  21  22
ENDBRANCH  20  21
ENDBRANCH  19  20
ENDBRANCH   1  19
TORSDOF 7
