REMARK  Name = ZINC22414490
REMARK  5 active torsions:
REMARK  status: ('A' for Active; 'I' for Inactive)
REMARK    1  A    between atoms: C_1  and  C_2
REMARK    2  A    between atoms: C_7  and  N_8
REMARK    3  A    between atoms: C_9  and  C_11
REMARK    4  A    between atoms: C_11  and  N_12
REMARK    5  A    between atoms: N_24  and  C_27
REMARK                            x       y       z     vdW  Elec       q    Type
REMARK                         _______ _______ _______ _____ _____    ______ ____
ROOT
ATOM      1  N   UNL     1       2.672   3.936   0.034  0.00  0.00    -0.280 N 
ATOM      2  C   UNL     1       3.388   3.968   1.214  0.00  0.00    +0.105 A 
ATOM      3  C   UNL     1       3.083   3.624   2.604  0.00  0.00    +0.045 A 
ATOM      4  C   UNL     1       1.949   3.147   3.263  0.00  0.00    +0.014 A 
ATOM      5  C   UNL     1       1.988   2.926   4.611  0.00  0.00    +0.001 A 
ATOM      6  C   UNL     1       3.150   3.174   5.329  0.00  0.00    +0.004 A 
ATOM      7  C   UNL     1       4.280   3.645   4.697  0.00  0.00    +0.047 A 
ATOM      8  C   UNL     1       4.263   3.877   3.326  0.00  0.00    +0.138 A 
ATOM      9  O   UNL     1       5.195   4.325   2.461  0.00  0.00    -0.448 OA
ATOM     10  C   UNL     1       4.705   4.385   1.203  0.00  0.00    +0.217 A 
ATOM     11  C   UNL     1       5.276   4.782  -0.032  0.00  0.00    +0.304 A 
ATOM     12  O   UNL     1       6.433   5.160  -0.080  0.00  0.00    -0.263 OA
ATOM     13  N   UNL     1       4.530   4.736  -1.153  0.00  0.00    -0.226 N 
ATOM     14  C   UNL     1       3.251   4.321  -1.119  0.00  0.00    +0.338 A 
ATOM     15  O   UNL     1       2.606   4.292  -2.150  0.00  0.00    -0.246 OA
ENDROOT
BRANCH  13  16
ATOM     16  C   UNL     1       5.095   5.129  -2.373  0.00  0.00    +0.055 A 
ATOM     17  C   UNL     1       6.138   4.396  -2.924  0.00  0.00    +0.028 A 
ATOM     18  C   UNL     1       6.689   4.781  -4.130  0.00  0.00    +0.022 A 
ATOM     19  C   UNL     1       6.211   5.903  -4.784  0.00  0.00    +0.041 A 
ATOM     20  C   UNL     1       5.176   6.638  -4.234  0.00  0.00    +0.022 A 
ATOM     21  C   UNL     1       4.617   6.254  -3.031  0.00  0.00    +0.028 A 
ATOM     22 CL   UNL     1       6.911   6.389  -6.297  0.00  0.00    -0.084 Cl
ENDBRANCH  13  16
BRANCH   1  23
ATOM     23  C   UNL     1       1.277   3.490   0.038  0.00  0.00    +0.223 C 
BRANCH  23  25
ATOM     24  N   UNL     1       0.037   1.365  -0.228  0.00  0.00    -0.284 N 
ATOM     25  C   UNL     1       1.225   2.001  -0.191  0.00  0.00    +0.237 C 
ATOM     26  O   UNL     1       2.253   1.375  -0.343  0.00  0.00    -0.274 OA
ATOM     27  H   UNL     1      -0.897   1.942  -0.161  0.00  0.00    +0.155 HD
BRANCH  24  34
ATOM     28  C   UNL     1      -2.053  -0.035   1.101  0.00  0.00    +0.045 C 
ATOM     29  C   UNL     1      -1.010  -0.750   0.281  0.00  0.00    -0.029 A 
ATOM     30  C   UNL     1      -1.051  -2.126   0.157  0.00  0.00    +0.005 A 
ATOM     31  C   UNL     1      -0.096  -2.782  -0.596  0.00  0.00    +0.000 A 
ATOM     32  C   UNL     1       0.904  -2.065  -1.227  0.00  0.00    +0.002 A 
ATOM     33  C   UNL     1       0.948  -0.690  -1.112  0.00  0.00    +0.023 A 
ATOM     34  C   UNL     1      -0.007  -0.028  -0.351  0.00  0.00    +0.036 A 
ENDBRANCH  24  34
ENDBRANCH  23  25
ENDBRANCH   1  23
TORSDOF 4
