REMARK  Name = ZINC04081816
REMARK  8 active torsions:
REMARK  status: ('A' for Active; 'I' for Inactive)
REMARK    1  A    between atoms: C_1  and  C_2
REMARK    2  A    between atoms: C_2  and  C_4
REMARK    3  A    between atoms: C_2  and  N_8
REMARK    4  A    between atoms: C_4  and  O_6
REMARK    5  A    between atoms: O_6  and  C_7
REMARK    6  A    between atoms: C_11  and  C_29
REMARK    7  A    between atoms: C_16  and  O_22
REMARK    8  A    between atoms: O_22  and  C_23
REMARK                            x       y       z     vdW  Elec       q    Type
REMARK                         _______ _______ _______ _____ _____    ______ ____
ROOT
ATOM      1  N   UNL     1      -1.861  -4.710  -1.797  0.00  0.00    -0.210 N 
ATOM      2  C   UNL     1      -2.216  -3.587  -1.109  0.00  0.00    +0.253 C 
ATOM      3  O   UNL     1      -3.124  -2.822  -1.351  0.00  0.00    -0.272 OA
ATOM      4  C   UNL     1      -1.222  -3.497   0.025  0.00  0.00    +0.153 C 
ATOM      5  C   UNL     1      -0.466  -2.191  -0.003  0.00  0.00    +0.053 A 
ATOM      6  C   UNL     1       0.885  -2.124  -0.025  0.00  0.00    -0.015 A 
ATOM      7  C   UNL     1       1.229  -0.713  -0.015  0.00  0.00    +0.007 A 
ATOM      8  C   UNL     1       2.457  -0.043  -0.022  0.00  0.00    +0.056 A 
ATOM      9  C   UNL     1       2.411   1.344  -0.013  0.00  0.00    +0.121 A 
ATOM     10  C   UNL     1       1.206   2.036   0.002  0.00  0.00    +0.047 A 
ATOM     11  C   UNL     1      -0.017   1.389   0.010  0.00  0.00    +0.030 A 
ATOM     12  C   UNL     1       0.002  -0.004   0.002  0.00  0.00    +0.047 A 
ATOM     13  N   UNL     1      -1.002  -0.932   0.008  0.00  0.00    -0.356 N 
ATOM     14  H   UNL     1      -1.950  -0.729   0.018  0.00  0.00    +0.166 HD
ATOM     15  C   UNL     1       1.837  -3.292  -0.059  0.00  0.00    +0.056 C 
ATOM     16  C   UNL     1       1.102  -4.590   0.304  0.00  0.00    +0.115 C 
ATOM     17  N   UNL     1      -0.224  -4.539  -0.314  0.00  0.00    -0.266 N 
ATOM     18  C   UNL     1      -0.756  -5.278  -1.288  0.00  0.00    +0.313 C 
ATOM     19  O   UNL     1      -0.296  -6.336  -1.669  0.00  0.00    -0.252 OA
ATOM     20  C   UNL     1      -1.880  -3.748   1.383  0.00  0.00    +0.048 C 
ENDROOT
BRANCH   1  22
ATOM     21  C   UNL     1      -1.685  -5.279  -4.169  0.00  0.00    +0.040 C 
ATOM     22  C   UNL     1      -2.603  -5.236  -2.945  0.00  0.00    +0.191 C 
BRANCH  22  23
ATOM     23  C   UNL     1      -3.090  -6.628  -2.634  0.00  0.00    +0.328 C 
ATOM     24  O   UNL     1      -2.843  -7.129  -1.562  0.00  0.00    -0.249 OA
BRANCH  23  25
ATOM     25  O   UNL     1      -3.798  -7.311  -3.547  0.00  0.00    -0.467 OA
ATOM     26  C   UNL     1      -4.234  -8.646  -3.178  0.00  0.00    +0.280 C 
ENDBRANCH  23  25
ENDBRANCH  22  23
ENDBRANCH   1  22
BRANCH   9  27
ATOM     27  O   UNL     1       3.576   2.044  -0.019  0.00  0.00    -0.495 OA
ATOM     28  C   UNL     1       3.476   3.470  -0.010  0.00  0.00    +0.277 C 
ENDBRANCH   9  27
TORSDOF 4
