REMARK  Name = ZINC02247065
REMARK  9 active torsions:
REMARK  status: ('A' for Active; 'I' for Inactive)
REMARK    1  A    between atoms: C_1  and  C_2
REMARK    2  A    between atoms: N_8  and  C_9
REMARK    3  A    between atoms: C_9  and  C_10
REMARK    4  A    between atoms: C_10  and  N_48
REMARK    5  A    between atoms: C_11  and  N_48
REMARK    6  A    between atoms: C_12  and  N_48
REMARK    7  A    between atoms: C_13  and  C_21
REMARK    8  A    between atoms: C_15  and  C_19
REMARK    9  A    between atoms: C_16  and  N_18
REMARK                            x       y       z     vdW  Elec       q    Type
REMARK                         _______ _______ _______ _____ _____    ______ ____
ROOT
ATOM      1  C   UNL     1       2.457   1.026  -0.016  0.00  0.00    +0.064 C 
ATOM      2  C   UNL     1       1.146   1.769   0.001  0.00  0.00    +0.022 A 
ATOM      3  C   UNL     1      -0.013   1.076   0.008  0.00  0.00    +0.068 A 
ATOM      4  C   UNL     1      -1.242   1.767   0.018  0.00  0.00    +0.141 A 
ATOM      5  C   UNL     1      -1.233   3.146   0.030  0.00  0.00    +0.072 A 
ATOM      6  C   UNL     1      -0.007   3.822   0.022  0.00  0.00    +0.259 A 
ATOM      7  O   UNL     1       0.017   5.043   0.027  0.00  0.00    -0.267 OA
ATOM      8  N   UNL     1       1.147   3.128   0.008  0.00  0.00    -0.314 N 
ATOM      9  C   UNL     1      -2.521   3.922   0.045  0.00  0.00    +0.103 C 
ATOM     10  C   UNL     1      -3.660   3.029   0.451  0.00  0.00    +0.098 C 
ATOM     11  C   UNL     1      -3.538   1.680   0.422  0.00  0.00    +0.199 C 
ATOM     12  O   UNL     1      -2.402   1.077   0.033  0.00  0.00    -0.441 OA
ENDROOT
BRANCH   9  13
ATOM     13  C   UNL     1      -2.788   4.474  -1.332  0.00  0.00    -0.033 A 
ATOM     14  C   UNL     1      -2.921   3.614  -2.407  0.00  0.00    +0.004 A 
ATOM     15  C   UNL     1      -3.171   4.119  -3.669  0.00  0.00    +0.002 A 
ATOM     16  C   UNL     1      -3.277   5.484  -3.859  0.00  0.00    +0.020 A 
ATOM     17  C   UNL     1      -3.138   6.345  -2.785  0.00  0.00    +0.041 A 
ATOM     18  C   UNL     1      -2.894   5.839  -1.521  0.00  0.00    +0.024 A 
ATOM     19 CL   UNL     1      -3.271   8.059  -3.024  0.00  0.00    -0.084 Cl
ENDBRANCH   9  13
BRANCH  11  20
ATOM     20  N   UNL     1      -4.607   0.907   0.802  0.00  0.00    -0.328 N 
ATOM     21  H   UNL     1      -5.434   1.328   1.086  0.00  0.00    +0.145 HD
ATOM     22  H   UNL     1      -4.535  -0.060   0.788  0.00  0.00    +0.145 HD
ENDBRANCH  11  20
BRANCH  10  23
ATOM     23  C   UNL     1      -4.896   3.614   0.875  0.00  0.00    +0.101 C 
ATOM     24  N   UNL     1      -5.876   4.079   1.212  0.00  0.00    -0.191 NA
ENDBRANCH  10  23
BRANCH   8  25
ATOM     25  C   UNL     1       2.422   3.849   0.001  0.00  0.00    +0.106 C 
BRANCH  25  26
ATOM     26  C   UNL     1       2.854   4.107  -1.444  0.00  0.00    -0.058 C 
BRANCH  26  29
ATOM     27  C   UNL     1       5.212   3.995  -0.908  0.00  0.00    -0.097 C 
ATOM     28  C   UNL     1       4.462   5.303  -2.802  0.00  0.00    -0.097 C 
ATOM     29  N   UNL     1       4.130   4.853  -1.434  0.00  0.00    +0.377 N 
ATOM     30  H   UNL     1       4.031   5.675  -0.827  0.00  0.00    -0.083 HD
ENDBRANCH  26  29
ENDBRANCH  25  26
ENDBRANCH   8  25
TORSDOF 6
