REMARK  Name = ZINC22809885
REMARK  7 active torsions:
REMARK  status: ('A' for Active; 'I' for Inactive)
REMARK    1  A    between atoms: C_4  and  C_7
REMARK    2  A    between atoms: N_14  and  C_32
REMARK    3  A    between atoms: C_15  and  C_17
REMARK    4  A    between atoms: C_17  and  N_18
REMARK    5  A    between atoms: N_21  and  C_24
REMARK    6  A    between atoms: C_24  and  C_25
REMARK    7  A    between atoms: C_32  and  C_33
REMARK                            x       y       z     vdW  Elec       q    Type
REMARK                         _______ _______ _______ _____ _____    ______ ____
ROOT
ATOM      1  C   UNL     1      -5.325  -1.777   0.987  0.00  0.00    +0.004 A 
ATOM      2  C   UNL     1      -6.192  -0.749   1.151  0.00  0.00    +0.056 A 
ATOM      3  S   UNL     1      -5.161   0.694   0.964  0.00  0.00    -0.076 S 
ATOM      4  C   UNL     1      -3.606  -0.109   0.673  0.00  0.00    +0.116 A 
ATOM      5  C   UNL     1      -3.922  -1.477   0.727  0.00  0.00    +0.080 A 
ATOM      6  C   UNL     1      -2.826  -2.375   0.521  0.00  0.00    +0.264 A 
ATOM      7  O   UNL     1      -3.001  -3.581   0.550  0.00  0.00    -0.267 OA
ATOM      8  N   UNL     1      -1.602  -1.867   0.289  0.00  0.00    -0.284 N 
ATOM      9  C   UNL     1      -1.388  -0.527   0.259  0.00  0.00    +0.098 A 
ATOM     10  N   UNL     1      -2.367   0.318   0.444  0.00  0.00    -0.228 NA
ENDROOT
BRANCH   1  14
ATOM     11  C   UNL     1      -6.670  -5.803   1.224  0.00  0.00    +0.000 A 
ATOM     12  C   UNL     1      -7.002  -4.905   2.223  0.00  0.00    +0.001 A 
ATOM     13  C   UNL     1      -6.568  -3.597   2.152  0.00  0.00    +0.008 A 
ATOM     14  C   UNL     1      -5.794  -3.181   1.070  0.00  0.00    -0.017 A 
ATOM     15  C   UNL     1      -5.467  -4.089   0.063  0.00  0.00    +0.008 A 
ATOM     16  C   UNL     1      -5.902  -5.396   0.148  0.00  0.00    +0.001 A 
ENDBRANCH   1  14
BRANCH   9  17
ATOM     17  C   UNL     1       0.002  -0.004   0.002  0.00  0.00    -0.003 C 
BRANCH  17  18
ATOM     18  N   UNL     1      -0.018   1.465   0.010  0.00  0.00    +0.386 N 
ATOM     19  C   UNL     1      -0.799   1.987  -1.120  0.00  0.00    -0.063 C 
ATOM     20  C   UNL     1      -0.862   3.514  -1.031  0.00  0.00    +0.066 C 
ATOM     21  N   UNL     1       0.503   4.059  -1.041  0.00  0.00    -0.302 NA
ATOM     22  C   UNL     1       1.284   3.537   0.089  0.00  0.00    +0.066 C 
ATOM     23  C   UNL     1       1.347   2.010   0.000  0.00  0.00    -0.063 C 
ATOM     24  H   UNL     1      -0.507   1.790   0.940  0.00  0.00    -0.081 HD
BRANCH  21  25
ATOM     25  C   UNL     1       0.483   5.528  -1.033  0.00  0.00    +0.122 C 
BRANCH  25  26
ATOM     26  C   UNL     1      -0.517   6.022  -2.046  0.00  0.00    +0.002 A 
ATOM     27  C   UNL     1      -0.087   6.467  -3.282  0.00  0.00    +0.008 A 
ATOM     28  C   UNL     1      -1.004   6.915  -4.214  0.00  0.00    +0.000 A 
ATOM     29  C   UNL     1      -2.352   6.930  -3.906  0.00  0.00    +0.003 A 
ATOM     30  C   UNL     1      -2.784   6.491  -2.670  0.00  0.00    +0.038 A 
ATOM     31  C   UNL     1      -1.866   6.037  -1.737  0.00  0.00    +0.128 A 
ATOM     32  F   UNL     1      -2.288   5.608  -0.527  0.00  0.00    -0.205 F 
ENDBRANCH  25  26
ENDBRANCH  21  25
ENDBRANCH  17  18
ENDBRANCH   9  17
BRANCH   8  33
ATOM     33  C   UNL     1      -0.476  -2.779   0.071  0.00  0.00    +0.245 C 
BRANCH  33  34
ATOM     34  C   UNL     1       0.157  -3.095   1.363  0.00  0.00    +0.084 C 
ATOM     35  N   UNL     1       0.645  -3.338   2.359  0.00  0.00    -0.195 NA
ENDBRANCH  33  34
ENDBRANCH   8  33
TORSDOF 7
