REMARK  Name = ZINC13682049
REMARK  6 active torsions:
REMARK  status: ('A' for Active; 'I' for Inactive)
REMARK    1  A    between atoms: C_1  and  O_2
REMARK    2  A    between atoms: O_2  and  C_3
REMARK    3  A    between atoms: C_3  and  C_5
REMARK    4  A    between atoms: C_5  and  O_6
REMARK    5  A    between atoms: O_6  and  C_7
REMARK    6  A    between atoms: C_15  and  C_16
REMARK                            x       y       z     vdW  Elec       q    Type
REMARK                         _______ _______ _______ _____ _____    ______ ____
ROOT
ATOM      1  C   UNL     1      -0.582  -2.239  -1.114  0.00  0.00    +0.125 A 
ATOM      2  C   UNL     1       0.744  -2.659  -1.054  0.00  0.00    +0.046 A 
ATOM      3  C   UNL     1       1.740  -1.758  -0.805  0.00  0.00    +0.019 A 
ATOM      4  C   UNL     1       1.426  -0.412  -0.611  0.00  0.00    +0.068 A 
ATOM      5  C   UNL     1       0.093   0.024  -0.670  0.00  0.00    +0.143 A 
ATOM      6  C   UNL     1      -0.908  -0.906  -0.924  0.00  0.00    +0.092 A 
ATOM      7  O   UNL     1       0.040   1.356  -0.452  0.00  0.00    -0.451 OA
ATOM      8  C   UNL     1       1.270   1.882  -0.242  0.00  0.00    +0.176 C 
ATOM      9  C   UNL     1       1.553   3.187   0.004  0.00  0.00    +0.061 C 
ATOM     10  C   UNL     1       2.242   0.783  -0.330  0.00  0.00    +0.231 C 
ATOM     11  O   UNL     1       3.453   0.846  -0.200  0.00  0.00    -0.283 OA
ENDROOT
BRANCH   9  12
ATOM     12  C   UNL     1       0.495   4.198  -0.090  0.00  0.00    +0.022 A 
ATOM     13  C   UNL     1      -0.851   3.812  -0.080  0.00  0.00    +0.027 A 
ATOM     14  C   UNL     1      -1.839   4.769  -0.163  0.00  0.00    +0.019 A 
ATOM     15  C   UNL     1      -1.506   6.111  -0.271  0.00  0.00    +0.024 A 
ATOM     16  C   UNL     1      -0.181   6.506  -0.289  0.00  0.00    +0.022 A 
ATOM     17  C   UNL     1       0.825   5.560  -0.198  0.00  0.00    +0.136 A 
ATOM     18  O   UNL     1       2.130   5.935  -0.208  0.00  0.00    -0.465 OA
ATOM     19  C   UNL     1       2.421   7.255  -0.675  0.00  0.00    +0.395 C 
ATOM     20  O   UNL     1       1.524   8.173  -0.037  0.00  0.00    -0.339 OA
ATOM     21  C   UNL     1       0.157   7.971  -0.411  0.00  0.00    +0.202 C 
ATOM     22 BR   UNL     1      -3.657   4.250  -0.138  0.00  0.00    -0.050 Br
ENDBRANCH   9  12
BRANCH   1  23
ATOM     23  O   UNL     1      -1.564  -3.143  -1.361  0.00  0.00    -0.481 OA
BRANCH  23  24
ATOM     24  C   UNL     1      -1.163  -4.502  -1.548  0.00  0.00    +0.349 C 
BRANCH  24  25
ATOM     25  C   UNL     1      -2.379  -5.353  -1.809  0.00  0.00    +0.345 C 
ATOM     26  O   UNL     1      -3.476  -4.848  -1.833  0.00  0.00    -0.247 OA
BRANCH  25  28
ATOM     27  C   UNL     1      -3.457  -7.430  -2.261  0.00  0.00    +0.280 C 
ATOM     28  O   UNL     1      -2.243  -6.672  -2.015  0.00  0.00    -0.466 OA
ENDBRANCH  25  28
ENDBRANCH  24  25
ENDBRANCH  23  24
ENDBRANCH   1  23
TORSDOF 5
