REMARK  Name = ZINC49937492
REMARK  5 active torsions:
REMARK  status: ('A' for Active; 'I' for Inactive)
REMARK    1  A    between atoms: C_1  and  O_2
REMARK    2  A    between atoms: O_2  and  C_3
REMARK    3  A    between atoms: N_11  and  C_12
REMARK    4  A    between atoms: C_12  and  C_14
REMARK    5  A    between atoms: C_15  and  C_20
REMARK                            x       y       z     vdW  Elec       q    Type
REMARK                         _______ _______ _______ _____ _____    ______ ____
ROOT
ATOM      1  C   UNL     1      -5.560  -6.376  -0.853  0.00  0.00    +0.305 C 
ATOM      2  O   UNL     1      -4.424  -6.785  -1.039  0.00  0.00    -0.265 OA
ENDROOT
BRANCH   1  11
ATOM      3  C   UNL     1      -1.479  -1.036  -3.039  0.00  0.00    +0.121 A 
ATOM      4  C   UNL     1      -2.639  -0.280  -2.925  0.00  0.00    +0.048 A 
ATOM      5  C   UNL     1      -3.820  -0.846  -2.511  0.00  0.00    +0.030 A 
ATOM      6  C   UNL     1      -3.893  -2.212  -2.188  0.00  0.00    +0.055 A 
ATOM      7  C   UNL     1      -2.707  -2.950  -2.312  0.00  0.00    +0.042 A 
ATOM      8  C   UNL     1      -1.524  -2.389  -2.731  0.00  0.00    +0.062 A 
ATOM      9  S   UNL     1      -3.190  -4.590  -1.829  0.00  0.00    -0.052 S 
ATOM     10  C   UNL     1      -4.909  -4.251  -1.486  0.00  0.00    +0.164 A 
ATOM     11  N   UNL     1      -5.853  -5.083  -1.070  0.00  0.00    -0.150 NA
ATOM     12  N   UNL     1      -5.005  -2.918  -1.760  0.00  0.00    -0.335 N 
ATOM     13  H   UNL     1      -5.855  -2.463  -1.654  0.00  0.00    +0.168 HD
BRANCH   3  15
ATOM     14  C   UNL     1      -0.355   0.936  -3.747  0.00  0.00    +0.277 C 
ATOM     15  O   UNL     1      -0.318  -0.461  -3.450  0.00  0.00    -0.495 OA
ENDBRANCH   3  15
ENDBRANCH   1  11
BRANCH   1  16
ATOM     16  C   UNL     1      -6.601  -7.294  -0.394  0.00  0.00    +0.198 C 
ATOM     17  C   UNL     1      -6.219  -8.550  -0.064  0.00  0.00    +0.062 C 
ATOM     18  S   UNL     1      -7.416  -9.736   0.467  0.00  0.00    -0.118 S 
ATOM     19  C   UNL     1      -8.875  -8.695   0.796  0.00  0.00    +0.115 C 
ATOM     20  C   UNL     1      -8.985  -7.690  -0.362  0.00  0.00    +0.240 C 
ATOM     21  O   UNL     1      -7.859  -6.818  -0.329  0.00  0.00    -0.485 OA
BRANCH  17  22
ATOM     22  C   UNL     1      -4.795  -8.931  -0.148  0.00  0.00    -0.008 A 
ATOM     23  C   UNL     1      -3.861  -8.352   0.715  0.00  0.00    +0.009 A 
ATOM     24  C   UNL     1      -2.533  -8.713   0.631  0.00  0.00    +0.001 A 
ATOM     25  C   UNL     1      -2.124  -9.646  -0.306  0.00  0.00    +0.000 A 
ATOM     26  C   UNL     1      -3.043 -10.224  -1.164  0.00  0.00    +0.001 A 
ATOM     27  C   UNL     1      -4.376  -9.877  -1.087  0.00  0.00    +0.009 A 
ENDBRANCH  17  22
ENDBRANCH   1  16
TORSDOF 4
