REMARK  Name = ZINC08944688
REMARK  7 active torsions:
REMARK  status: ('A' for Active; 'I' for Inactive)
REMARK    1  A    between atoms: C_1  and  C_2
REMARK    2  A    between atoms: C_5  and  C_7
REMARK    3  A    between atoms: C_10  and  C_12
REMARK    4  A    between atoms: C_12  and  N_49
REMARK    5  A    between atoms: C_13  and  N_49
REMARK    6  A    between atoms: C_14  and  C_15
REMARK    7  A    between atoms: C_14  and  N_49
REMARK                            x       y       z     vdW  Elec       q    Type
REMARK                         _______ _______ _______ _____ _____    ______ ____
ROOT
ATOM      1  C   UNL     1      -0.135   2.480  -6.809  0.00  0.00    -0.003 C 
ENDROOT
BRANCH   1   2
ATOM      2  C   UNL     1      -0.261   2.234  -5.328  0.00  0.00    +0.094 A 
ATOM      3  N   UNL     1       0.793   1.715  -4.647  0.00  0.00    -0.312 N 
ATOM      4  H   UNL     1       1.613   1.509  -5.125  0.00  0.00    +0.170 HD
ATOM      5  C   UNL     1       0.724   1.479  -3.323  0.00  0.00    +0.260 A 
ATOM      6  O   UNL     1       1.678   1.012  -2.725  0.00  0.00    -0.267 OA
ATOM      7  C   UNL     1      -0.492   1.786  -2.631  0.00  0.00    +0.075 A 
ATOM      8  C   UNL     1      -0.791   1.612  -1.202  0.00  0.00    -0.023 A 
ATOM      9  C   UNL     1      -2.016   1.978  -0.788  0.00  0.00    -0.004 A 
ATOM     10  S   UNL     1      -2.837   2.567  -2.251  0.00  0.00    -0.073 S 
ATOM     11  C   UNL     1      -1.523   2.318  -3.416  0.00  0.00    +0.116 A 
ATOM     12  N   UNL     1      -1.381   2.524  -4.723  0.00  0.00    -0.229 NA
ATOM     13  C   UNL     1      -2.207   1.760   0.689  0.00  0.00    +0.043 C 
ATOM     14  C   UNL     1      -0.772   1.602   1.246  0.00  0.00    +0.010 C 
ATOM     15  C   UNL     1      -0.013   1.086   0.008  0.00  0.00    +0.037 C 
ENDBRANCH   1   2
BRANCH   1  17
ATOM     16  C   UNL     1      -2.485   2.062  -7.220  0.00  0.00    -0.095 C 
ATOM     17  N   UNL     1      -1.400   3.063  -7.305  0.00  0.00    +0.387 N 
ATOM     18  H   UNL     1      -1.646   3.871  -6.721  0.00  0.00    -0.081 HD
BRANCH  17  19
ATOM     19  C   UNL     1      -1.236   3.513  -8.703  0.00  0.00    -0.003 C 
BRANCH  19  23
ATOM     20  C   UNL     1      -4.444   4.776  -9.905  0.00  0.00    +0.108 A 
ATOM     21  C   UNL     1      -3.911   5.930  -9.467  0.00  0.00    +0.045 A 
ATOM     22  C   UNL     1      -2.632   5.620  -8.948  0.00  0.00    +0.043 A 
ATOM     23  C   UNL     1      -2.458   4.296  -9.108  0.00  0.00    +0.089 A 
ATOM     24  O   UNL     1      -3.560   3.789  -9.686  0.00  0.00    -0.466 OA
BRANCH  20  28
ATOM     25  C   UNL     1      -6.343   2.996  -8.553  0.00  0.00    +0.008 C 
ATOM     26  C   UNL     1      -6.801   3.689  -9.838  0.00  0.00    -0.003 C 
ATOM     27  C   UNL     1      -6.143   3.256 -11.149  0.00  0.00    +0.015 C 
ATOM     28  C   UNL     1      -5.804   4.616 -10.536  0.00  0.00    +0.058 C 
ENDBRANCH  20  28
ENDBRANCH  19  23
ENDBRANCH  17  19
ENDBRANCH   1  17
TORSDOF 5
