REMARK  Name = ZINC03060418
REMARK  6 active torsions:
REMARK  status: ('A' for Active; 'I' for Inactive)
REMARK    1  A    between atoms: C_1  and  C_2
REMARK    2  A    between atoms: C_8  and  N_10
REMARK    3  A    between atoms: C_11  and  C_13
REMARK    4  A    between atoms: N_16  and  S_19
REMARK    5  A    between atoms: S_19  and  N_22
REMARK    6  A    between atoms: C_25  and  C_28
REMARK                            x       y       z     vdW  Elec       q    Type
REMARK                         _______ _______ _______ _____ _____    ______ ____
ROOT
ATOM      1  C   UNL     1       4.209   0.649   2.377  0.00  0.00    +0.077 C 
ATOM      2  C   UNL     1       5.088  -0.278   1.535  0.00  0.00    +0.030 C 
ATOM      3  C   UNL     1       6.516   0.274   1.498  0.00  0.00    +0.111 C 
ATOM      4  N   UNL     1       6.987   0.463   2.877  0.00  0.00    -0.166 NA
ATOM      5  C   UNL     1       6.169   1.263   3.799  0.00  0.00    +0.111 C 
ATOM      6  C   UNL     1       4.744   0.700   3.810  0.00  0.00    +0.030 C 
ENDROOT
BRANCH   1   8
ATOM      7  N   UNL     1       2.116  -0.004   1.231  0.00  0.00    -0.312 N 
ATOM      8  C   UNL     1       2.795   0.128   2.388  0.00  0.00    +0.216 C 
ATOM      9  O   UNL     1       2.268  -0.174   3.438  0.00  0.00    -0.276 OA
ATOM     10  H   UNL     1       2.538   0.237   0.392  0.00  0.00    +0.149 HD
BRANCH   7  17
ATOM     11  C   UNL     1      -0.019   1.526   0.010  0.00  0.00    +0.009 C 
ATOM     12  C   UNL     1       0.002  -0.004   0.002  0.00  0.00    +0.006 C 
ATOM     13  C   UNL     1       0.718  -0.497  -1.257  0.00  0.00    +0.005 C 
ATOM     14  C   UNL     1       0.739  -2.027  -1.265  0.00  0.00    +0.000 C 
ATOM     15  C   UNL     1       1.479  -2.534  -0.026  0.00  0.00    +0.002 C 
ATOM     16  C   UNL     1       0.763  -2.041   1.233  0.00  0.00    +0.022 C 
ATOM     17  C   UNL     1       0.742  -0.511   1.242  0.00  0.00    +0.076 C 
ENDBRANCH   7  17
ENDBRANCH   1   8
BRANCH   4  18
ATOM     18  S   UNL     1       8.411  -0.214   3.383  0.00  0.00    +0.100 S 
ATOM     19  O   UNL     1       8.318  -0.347   4.795  0.00  0.00    -0.141 OA
ATOM     20  O   UNL     1       8.660  -1.322   2.528  0.00  0.00    -0.141 OA
BRANCH  18  21
ATOM     21  N   UNL     1       9.609   0.890   3.089  0.00  0.00    -0.166 NA
ATOM     22  C   UNL     1      10.321   0.898   1.804  0.00  0.00    +0.111 C 
ATOM     23  C   UNL     1      11.827   0.822   2.073  0.00  0.00    +0.020 C 
ATOM     24  C   UNL     1      12.229   1.954   3.021  0.00  0.00    -0.012 C 
ATOM     25  C   UNL     1      11.491   1.793   4.353  0.00  0.00    +0.020 C 
ATOM     26  C   UNL     1       9.978   1.883   4.107  0.00  0.00    +0.111 C 
ATOM     27  C   UNL     1      13.739   1.903   3.265  0.00  0.00    +0.007 C 
ENDBRANCH  18  21
ENDBRANCH   4  18
TORSDOF 4
