REMARK  Name = ZINC65283634
REMARK  6 active torsions:
REMARK  status: ('A' for Active; 'I' for Inactive)
REMARK    1  A    between atoms: C_1  and  C_2
REMARK    2  A    between atoms: C_6  and  C_7
REMARK    3  A    between atoms: N_9  and  C_10
REMARK    4  A    between atoms: C_17  and  C_19
REMARK    5  A    between atoms: C_19  and  C_20
REMARK    6  A    between atoms: C_19  and  C_21
REMARK                            x       y       z     vdW  Elec       q    Type
REMARK                         _______ _______ _______ _____ _____    ______ ____
ROOT
ATOM      1  C   UNL     1      -0.002  -0.816   4.920  0.00  0.00    +0.078 A 
ATOM      2  C   UNL     1      -0.106   0.499   5.283  0.00  0.00    +0.028 A 
ATOM      3  C   UNL     1      -0.159   0.839   6.642  0.00  0.00    +0.022 A 
ATOM      4  C   UNL     1      -0.107  -0.124   7.589  0.00  0.00    +0.115 A 
ATOM      5  N   UNL     1      -0.004  -1.436   7.241  0.00  0.00    -0.218 N 
ATOM      6  C   UNL     1       0.044  -1.806   5.927  0.00  0.00    +0.177 A 
ATOM      7  N   UNL     1       0.136  -3.130   5.890  0.00  0.00    -0.209 NA
ATOM      8  C   UNL     1       0.142  -3.612   7.124  0.00  0.00    +0.155 A 
ATOM      9  N   UNL     1       0.069  -2.623   7.984  0.00  0.00    -0.150 NA
ENDROOT
BRANCH   1  12
ATOM     10  C   UNL     1       1.101  -1.882   3.103  0.00  0.00    +0.255 C 
ATOM     11  O   UNL     1       2.044  -2.126   3.833  0.00  0.00    -0.269 OA
ATOM     12  N   UNL     1       0.052  -1.176   3.571  0.00  0.00    -0.278 N 
ATOM     13  H   UNL     1      -0.665  -0.919   2.971  0.00  0.00    +0.155 HD
BRANCH  10  19
ATOM     14  C   UNL     1       3.352  -3.526   1.714  0.00  0.00    +0.045 C 
ATOM     15  C   UNL     1       2.074  -3.086   1.046  0.00  0.00    -0.031 A 
ATOM     16  C   UNL     1       1.792  -3.390  -0.265  0.00  0.00    +0.011 A 
ATOM     17  C   UNL     1       0.624  -2.963  -0.803  0.00  0.00    +0.046 A 
ATOM     18  S   UNL     1      -0.130  -2.136   0.450  0.00  0.00    -0.092 S 
ATOM     19  C   UNL     1       1.106  -2.354   1.716  0.00  0.00    +0.077 A 
ENDBRANCH  10  19
ENDBRANCH   1  12
BRANCH   8  20
ATOM     20  C   UNL     1       0.235  -5.072   7.485  0.00  0.00    +0.053 C 
ATOM     21  C   UNL     1       1.486  -5.309   8.335  0.00  0.00    +0.015 C 
ATOM     22  C   UNL     1      -1.006  -5.481   8.281  0.00  0.00    +0.015 C 
ENDBRANCH   8  20
TORSDOF 3
