REMARK  Name = ZINC01036135
REMARK  5 active torsions:
REMARK  status: ('A' for Active; 'I' for Inactive)
REMARK    1  A    between atoms: C_1  and  C_2
REMARK    2  A    between atoms: C_2  and  O_3
REMARK    3  A    between atoms: O_3  and  C_4
REMARK    4  A    between atoms: N_16  and  C_21
REMARK    5  A    between atoms: C_24  and  C_27
REMARK                            x       y       z     vdW  Elec       q    Type
REMARK                         _______ _______ _______ _____ _____    ______ ____
ROOT
ATOM      1  C   UNL     1      -9.780   2.610   1.578  0.00  0.00    +0.403 C 
ATOM      2  O   UNL     1      -9.905   3.785   1.861  0.00  0.00    -0.226 OA
ATOM      3  N   UNL     1      -8.860   2.230   0.669  0.00  0.00    -0.262 N 
ATOM      4  C   UNL     1      -7.995   3.215   0.002  0.00  0.00    +0.116 C 
ATOM      5  C   UNL     1      -6.537   2.965   0.394  0.00  0.00    +0.056 C 
ATOM      6  C   UNL     1      -6.226   1.480   0.246  0.00  0.00    -0.020 A 
ATOM      7  C   UNL     1      -7.209   0.558   0.215  0.00  0.00    +0.013 A 
ATOM      8  S   UNL     1      -6.373  -0.994   0.047  0.00  0.00    -0.073 S 
ATOM      9  C   UNL     1      -4.747  -0.424   0.015  0.00  0.00    +0.094 A 
ATOM     10  C   UNL     1      -4.862   0.961   0.134  0.00  0.00    +0.074 A 
ATOM     11  C   UNL     1      -3.588   1.712   0.136  0.00  0.00    +0.270 A 
ATOM     12  O   UNL     1      -3.588   2.925   0.239  0.00  0.00    -0.266 OA
ATOM     13  N   UNL     1      -2.429   1.039   0.019  0.00  0.00    -0.229 N 
ATOM     14  C   UNL     1      -2.394  -0.299  -0.091  0.00  0.00    +0.335 A 
ATOM     15  O   UNL     1      -1.320  -0.861  -0.189  0.00  0.00    -0.246 OA
ATOM     16  N   UNL     1      -3.525  -1.031  -0.094  0.00  0.00    -0.301 N 
ATOM     17  H   UNL     1      -3.471  -2.026  -0.178  0.00  0.00    +0.171 HD
ATOM     18  C   UNL     1      -8.684   0.810   0.304  0.00  0.00    +0.153 C 
ENDROOT
BRANCH  13  19
ATOM     19  C   UNL     1      -1.224   1.754   0.017  0.00  0.00    +0.054 A 
ATOM     20  C   UNL     1      -0.685   2.206  -1.180  0.00  0.00    +0.026 A 
ATOM     21  C   UNL     1       0.500   2.915  -1.178  0.00  0.00    +0.005 A 
ATOM     22  C   UNL     1       1.153   3.171   0.015  0.00  0.00    -0.050 A 
ATOM     23  C   UNL     1       0.621   2.718   1.208  0.00  0.00    +0.005 A 
ATOM     24  C   UNL     1      -0.564   2.008   1.212  0.00  0.00    +0.026 A 
ATOM     25  C   UNL     1       2.445   3.946   0.013  0.00  0.00    +0.044 C 
ENDBRANCH  13  19
BRANCH   1  26
ATOM     26  O   UNL     1     -10.559   1.687   2.173  0.00  0.00    -0.451 OA
BRANCH  26  28
ATOM     27  C   UNL     1     -12.314   0.984   3.708  0.00  0.00    +0.048 C 
ATOM     28  C   UNL     1     -11.527   2.168   3.142  0.00  0.00    +0.230 C 
ENDBRANCH  26  28
ENDBRANCH   1  26
TORSDOF 3
