REMARK  Name = ZINC65293286
REMARK  6 active torsions:
REMARK  status: ('A' for Active; 'I' for Inactive)
REMARK    1  A    between atoms: C_1  and  O_2
REMARK    2  A    between atoms: O_2  and  C_3
REMARK    3  A    between atoms: C_8  and  C_9
REMARK    4  A    between atoms: N_15  and  C_18
REMARK    5  A    between atoms: N_22  and  C_25
REMARK    6  A    between atoms: C_25  and  C_26
REMARK                            x       y       z     vdW  Elec       q    Type
REMARK                         _______ _______ _______ _____ _____    ______ ____
ROOT
ATOM      1  C   UNL     1       0.473  -2.876   0.220  0.00  0.00    +0.250 C 
ATOM      2  O   UNL     1       1.632  -2.508   0.218  0.00  0.00    -0.270 OA
ATOM      3  N   UNL     1       0.183  -4.192   0.202  0.00  0.00    -0.299 N 
ATOM      4  C   UNL     1      -1.228  -4.609   0.082  0.00  0.00    +0.106 C 
ATOM      5  C   UNL     1      -1.373  -5.803  -0.879  0.00  0.00    +0.000 C 
ATOM      6  C   UNL     1      -0.449  -5.613  -2.062  0.00  0.00    -0.076 C 
ATOM      7  N   UNL     1       0.819  -6.289  -1.796  0.00  0.00    +0.388 N 
ATOM      8  C   UNL     1       1.779  -5.508  -1.115  0.00  0.00    -0.059 C 
ATOM      9  C   UNL     1       1.269  -5.147   0.294  0.00  0.00    +0.089 C 
ATOM     10  H   UNL     1       0.631  -7.114  -1.246  0.00  0.00    -0.081 HD
ENDROOT
BRANCH   1  16
ATOM     11  C   UNL     1      -0.648  -0.850  -0.707  0.00  0.00    +0.132 A 
ATOM     12  C   UNL     1      -1.681   0.076  -0.680  0.00  0.00    +0.046 A 
ATOM     13  C   UNL     1      -2.668  -0.015   0.280  0.00  0.00    +0.004 A 
ATOM     14  C   UNL     1      -2.637  -1.030   1.223  0.00  0.00    +0.001 A 
ATOM     15  C   UNL     1      -1.620  -1.959   1.211  0.00  0.00    +0.017 A 
ATOM     16  C   UNL     1      -0.617  -1.881   0.241  0.00  0.00    +0.078 A 
BRANCH  11  18
ATOM     17  C   UNL     1       0.225   0.317  -2.582  0.00  0.00    +0.277 C 
ATOM     18  O   UNL     1       0.323  -0.761  -1.649  0.00  0.00    -0.494 OA
ENDBRANCH  11  18
ENDBRANCH   1  16
BRANCH   7  19
ATOM     19  C   UNL     1       1.394  -6.715  -3.079  0.00  0.00    +0.021 C 
ATOM     20  C   UNL     1       1.729  -5.486  -3.957  0.00  0.00    +0.013 C 
ATOM     21  C   UNL     1       3.031  -5.941  -4.652  0.00  0.00    +0.107 C 
ATOM     22  N   UNL     1       3.628  -6.935  -3.752  0.00  0.00    -0.299 N 
ATOM     23  C   UNL     1       2.728  -7.394  -2.862  0.00  0.00    +0.202 C 
ATOM     24  O   UNL     1       2.953  -8.226  -2.009  0.00  0.00    -0.277 OA
BRANCH  22  25
ATOM     25  C   UNL     1       5.025  -7.374  -3.815  0.00  0.00    +0.142 C 
BRANCH  25  26
ATOM     26  C   UNL     1       5.870  -6.489  -2.937  0.00  0.00    -0.030 A 
ATOM     27  C   UNL     1       6.443  -5.343  -3.457  0.00  0.00    +0.008 A 
ATOM     28  C   UNL     1       7.218  -4.531  -2.652  0.00  0.00    +0.038 A 
ATOM     29  C   UNL     1       7.421  -4.864  -1.323  0.00  0.00    +0.123 A 
ATOM     30  C   UNL     1       6.847  -6.012  -0.803  0.00  0.00    +0.038 A 
ATOM     31  C   UNL     1       6.068  -6.820  -1.609  0.00  0.00    +0.008 A 
ATOM     32  F   UNL     1       8.179  -4.071  -0.536  0.00  0.00    -0.205 F 
ENDBRANCH  25  26
ENDBRANCH  22  25
ENDBRANCH   7  19
TORSDOF 5
