REMARK  Name = ZINC17045576
REMARK  6 active torsions:
REMARK  status: ('A' for Active; 'I' for Inactive)
REMARK    1  A    between atoms: C_1  and  C_2
REMARK    2  A    between atoms: C_6  and  C_7
REMARK    3  A    between atoms: C_12  and  C_23
REMARK    4  A    between atoms: C_12  and  C_24
REMARK    5  A    between atoms: C_19  and  S_21
REMARK    6  A    between atoms: S_21  and  C_22
REMARK                            x       y       z     vdW  Elec       q    Type
REMARK                         _______ _______ _______ _____ _____    ______ ____
ROOT
ATOM      1  C   UNL     1      -1.334  -0.723   0.011  0.00  0.00    +0.163 C 
ATOM      2  C   UNL     1       0.002  -0.004   0.002  0.00  0.00    +0.129 C 
ATOM      3  C   UNL     1       1.145  -0.702  -0.012  0.00  0.00    +0.145 C 
ATOM      4  C   UNL     1       2.483  -0.011  -0.024  0.00  0.00    +0.081 C 
ATOM      5  C   UNL     1       2.364   1.337   0.693  0.00  0.00    -0.023 C 
ATOM      6  C   UNL     1       1.284   2.173   0.002  0.00  0.00    +0.058 C 
ATOM      7  C   UNL     1      -0.017   1.406   0.010  0.00  0.00    +0.036 C 
ATOM      8  N   UNL     1      -1.149   2.059   0.029  0.00  0.00    -0.219 NA
ATOM      9  C   UNL     1      -2.372   1.484   0.034  0.00  0.00    +0.250 A 
ATOM     10  N   UNL     1      -2.526   0.134   0.028  0.00  0.00    -0.219 N 
ATOM     11  N   UNL     1      -3.899  -0.125   0.041  0.00  0.00    -0.141 NA
ATOM     12  C   UNL     1      -4.505   1.041   0.053  0.00  0.00    +0.210 A 
ATOM     13  N   UNL     1      -3.590   2.012   0.050  0.00  0.00    -0.184 NA
ATOM     14  C   UNL     1       1.976   1.107   2.155  0.00  0.00    +0.011 C 
ATOM     15  C   UNL     1       3.703   2.073   0.626  0.00  0.00    +0.011 C 
ATOM     16  O   UNL     1       1.097  -2.050  -0.016  0.00  0.00    -0.297 OA
ENDROOT
BRANCH   1  22
ATOM     17  C   UNL     1      -1.683  -3.775   0.029  0.00  0.00    +0.044 C 
ATOM     18  C   UNL     1      -1.530  -2.961   1.288  0.00  0.00    -0.038 A 
ATOM     19  C   UNL     1      -1.539  -3.576   2.526  0.00  0.00    +0.011 A 
ATOM     20  C   UNL     1      -1.406  -2.815   3.639  0.00  0.00    +0.046 A 
ATOM     21  S   UNL     1      -1.256  -1.175   2.949  0.00  0.00    -0.099 S 
ATOM     22  C   UNL     1      -1.379  -1.616   1.224  0.00  0.00    +0.018 A 
ENDBRANCH   1  22
BRANCH  12  23
ATOM     23  S   UNL     1      -6.250   1.284   0.073  0.00  0.00    -0.088 S 
ATOM     24  C   UNL     1      -6.442   3.088   0.085  0.00  0.00    +0.093 C 
ENDBRANCH  12  23
TORSDOF 2
