REMARK  Name = ZINC10069067
REMARK  6 active torsions:
REMARK  status: ('A' for Active; 'I' for Inactive)
REMARK    1  A    between atoms: C_1  and  C_2
REMARK    2  A    between atoms: C_5  and  N_8
REMARK    3  A    between atoms: C_10  and  N_15
REMARK    4  A    between atoms: C_23  and  C_24
REMARK    5  A    between atoms: C_23  and  C_30
REMARK    6  A    between atoms: C_23  and  N_67
REMARK                            x       y       z     vdW  Elec       q    Type
REMARK                         _______ _______ _______ _____ _____    ______ ____
ROOT
ATOM      1  N   UNL     1      -1.421  -8.943  -1.517  0.00  0.00    -0.294 N 
ATOM      2  C   UNL     1      -2.200  -7.846  -1.594  0.00  0.00    +0.302 C 
ATOM      3  O   UNL     1      -1.693  -6.741  -1.631  0.00  0.00    -0.253 OA
ATOM      4  N   UNL     1      -3.542  -7.973  -1.629  0.00  0.00    -0.289 N 
ATOM      5  C   UNL     1      -4.407  -6.798  -1.816  0.00  0.00    +0.091 C 
ATOM      6  C   UNL     1      -5.384  -7.096  -2.963  0.00  0.00    -0.058 C 
ATOM      7  C   UNL     1      -5.167  -9.489  -2.631  0.00  0.00    -0.058 C 
ATOM      8  C   UNL     1      -4.180  -9.289  -1.476  0.00  0.00    +0.091 C 
ATOM      9  H   UNL     1      -1.821  -9.826  -1.560  0.00  0.00    +0.151 HD
ATOM     10  N   UNL     1      -6.108  -8.348  -2.654  0.00  0.00    +0.389 N 
ATOM     11  H   UNL     1      -6.546  -8.260  -1.729  0.00  0.00    -0.080 HD
ENDROOT
BRANCH   1  14
ATOM     12  N   UNL     1       1.042 -10.933  -1.800  0.00  0.00    -0.270 N 
ATOM     13  C   UNL     1       0.640 -10.052  -0.697  0.00  0.00    +0.136 C 
ATOM     14  C   UNL     1       0.029  -8.802  -1.369  0.00  0.00    +0.101 C 
ATOM     15  C   UNL     1       0.729  -8.812  -2.748  0.00  0.00    +0.120 C 
ATOM     16  C   UNL     1       1.111 -10.260  -2.962  0.00  0.00    +0.222 C 
ATOM     17  O   UNL     1       1.431 -10.744  -4.027  0.00  0.00    -0.275 OA
BRANCH  12  22
ATOM     18  C   UNL     1       2.179 -16.462  -1.230  0.00  0.00    +0.044 C 
ATOM     19  C   UNL     1       1.877 -14.993  -1.382  0.00  0.00    -0.050 A 
ATOM     20  C   UNL     1       1.860 -14.418  -2.639  0.00  0.00    +0.005 A 
ATOM     21  C   UNL     1       1.579 -13.073  -2.782  0.00  0.00    +0.024 A 
ATOM     22  C   UNL     1       1.323 -12.296  -1.660  0.00  0.00    +0.036 A 
ATOM     23  C   UNL     1       1.346 -12.876  -0.398  0.00  0.00    +0.024 A 
ATOM     24  C   UNL     1       1.623 -14.222  -0.263  0.00  0.00    +0.005 A 
ENDBRANCH  12  22
ENDBRANCH   1  14
BRANCH  10  25
ATOM     25  C   UNL     1      -7.162  -8.584  -3.663  0.00  0.00    -0.007 C 
BRANCH  25  26
ATOM     26  C   UNL     1      -7.937  -9.818  -3.279  0.00  0.00    -0.057 A 
ATOM     27  C   UNL     1      -8.320 -10.013  -1.965  0.00  0.00    +0.002 A 
ATOM     28  C   UNL     1      -9.034 -11.143  -1.613  0.00  0.00    +0.000 A 
ATOM     29  C   UNL     1      -9.358 -12.083  -2.574  0.00  0.00    +0.000 A 
ATOM     30  C   UNL     1      -8.970 -11.891  -3.887  0.00  0.00    +0.000 A 
ATOM     31  C   UNL     1      -8.259 -10.759  -4.239  0.00  0.00    +0.002 A 
ENDBRANCH  25  26
BRANCH  25  32
ATOM     32  C   UNL     1      -8.089  -7.396  -3.688  0.00  0.00    -0.057 A 
ATOM     33  C   UNL     1      -8.432  -6.762  -2.509  0.00  0.00    +0.002 A 
ATOM     34  C   UNL     1      -9.280  -5.670  -2.533  0.00  0.00    +0.000 A 
ATOM     35  C   UNL     1      -9.791  -5.218  -3.735  0.00  0.00    +0.000 A 
ATOM     36  C   UNL     1      -9.452  -5.856  -4.914  0.00  0.00    +0.000 A 
ATOM     37  C   UNL     1      -8.601  -6.945  -4.890  0.00  0.00    +0.002 A 
ENDBRANCH  25  32
ENDBRANCH  10  25
TORSDOF 5
