REMARK  Name = ZINC63383475
REMARK  6 active torsions:
REMARK  status: ('A' for Active; 'I' for Inactive)
REMARK    1  A    between atoms: C_1  and  C_2
REMARK    2  A    between atoms: C_2  and  C_4
REMARK    3  A    between atoms: C_2  and  N_15
REMARK    4  A    between atoms: N_6  and  C_7
REMARK    5  A    between atoms: C_7  and  C_8
REMARK    6  A    between atoms: C_16  and  C_18
REMARK                            x       y       z     vdW  Elec       q    Type
REMARK                         _______ _______ _______ _____ _____    ______ ____
ROOT
ATOM      1  C   UNL     1       0.780  -1.133   3.576  0.00  0.00    +0.167 C 
ATOM      2  C   UNL     1       1.234  -2.588   3.351  0.00  0.00    +0.065 C 
ATOM      3  C   UNL     1       1.556  -3.167   4.706  0.00  0.00    -0.034 C 
ATOM      4  C   UNL     1       2.650  -3.776   5.152  0.00  0.00    -0.001 A 
ATOM      5  C   UNL     1       3.885  -4.190   4.468  0.00  0.00    +0.010 A 
ATOM      6  C   UNL     1       4.829  -4.785   5.244  0.00  0.00    +0.001 A 
ATOM      7  C   UNL     1       4.669  -5.007   6.615  0.00  0.00    +0.002 A 
ATOM      8  C   UNL     1       3.563  -4.667   7.324  0.00  0.00    +0.026 A 
ATOM      9  C   UNL     1       2.497  -4.041   6.614  0.00  0.00    +0.043 A 
ATOM     10  N   UNL     1       1.333  -3.637   7.029  0.00  0.00    -0.375 N 
ATOM     11  C   UNL     1       0.586  -3.118   5.882  0.00  0.00    +0.131 C 
ATOM     12  C   UNL     1       0.209  -1.645   6.073  0.00  0.00    +0.134 C 
ATOM     13  N   UNL     1      -0.120  -1.101   4.737  0.00  0.00    -0.276 N 
ATOM     14  C   UNL     1      -1.365  -0.594   4.772  0.00  0.00    +0.248 C 
ATOM     15  O   UNL     1      -1.900   0.002   3.857  0.00  0.00    -0.270 OA
ATOM     16  C   UNL     1      -1.983  -0.864   6.071  0.00  0.00    +0.042 A 
ATOM     17  C   UNL     1      -1.023  -1.513   6.909  0.00  0.00    -0.013 A 
ATOM     18  C   UNL     1      -1.300  -1.896   8.203  0.00  0.00    +0.006 A 
ATOM     19  C   UNL     1      -2.574  -1.613   8.687  0.00  0.00    +0.000 A 
ATOM     20  C   UNL     1      -3.522  -0.977   7.911  0.00  0.00    +0.001 A 
ATOM     21  C   UNL     1      -3.265  -0.579   6.548  0.00  0.00    +0.013 A 
ATOM     22  H   UNL     1       1.013  -3.673   7.944  0.00  0.00    +0.160 HD
ENDROOT
BRANCH   1  24
ATOM     23  N   UNL     1       0.604   0.325   1.585  0.00  0.00    -0.303 N 
ATOM     24  C   UNL     1       0.051  -0.633   2.355  0.00  0.00    +0.234 C 
ATOM     25  O   UNL     1      -1.033  -1.094   2.066  0.00  0.00    -0.274 OA
ATOM     26  H   UNL     1       1.471   0.693   1.817  0.00  0.00    +0.149 HD
BRANCH  23  28
ATOM     27  C   UNL     1      -1.088   1.910   0.805  0.00  0.00    +0.038 C 
ATOM     28  C   UNL     1      -0.105   0.810   0.399  0.00  0.00    +0.156 C 
BRANCH  28  29
ATOM     29  C   UNL     1       0.890   1.365  -0.588  0.00  0.00    +0.233 C 
ATOM     30  O   UNL     1       2.074   1.356  -0.326  0.00  0.00    -0.274 OA
ATOM     31  N   UNL     1       0.464   1.872  -1.762  0.00  0.00    -0.310 N 
ATOM     32  H   UNL     1      -0.483   1.879  -1.972  0.00  0.00    +0.149 HD
BRANCH  31  33
ATOM     33  C   UNL     1       1.430   2.411  -2.721  0.00  0.00    +0.141 C 
BRANCH  33  34
ATOM     34  C   UNL     1       0.702   2.911  -3.942  0.00  0.00    -0.012 A 
ATOM     35  C   UNL     1       0.645   2.130  -5.082  0.00  0.00    +0.006 A 
ATOM     36  C   UNL     1      -0.023   2.587  -6.201  0.00  0.00    +0.000 A 
ATOM     37  C   UNL     1      -0.636   3.826  -6.183  0.00  0.00    +0.001 A 
ATOM     38  C   UNL     1      -0.581   4.608  -5.045  0.00  0.00    +0.020 A 
ATOM     39  C   UNL     1       0.084   4.148  -3.921  0.00  0.00    +0.046 A 
ATOM     40 CL   UNL     1       0.148   5.127  -2.489  0.00  0.00    -0.083 Cl
ENDBRANCH  33  34
ENDBRANCH  31  33
ENDBRANCH  28  29
ENDBRANCH  23  28
ENDBRANCH   1  24
TORSDOF 5
