REMARK  Name = ZINC12274546
REMARK  1 active torsions:
REMARK  status: ('A' for Active; 'I' for Inactive)
REMARK    1  A    between atoms: C_11  and  C_13
REMARK                            x       y       z     vdW  Elec       q    Type
REMARK                         _______ _______ _______ _____ _____    ______ ____
ROOT
ATOM      1  C   UNL     1      -9.631   0.573   0.854  0.00  0.00    +0.000 A 
ATOM      2  C   UNL     1      -8.666   0.075   1.710  0.00  0.00    +0.000 A 
ATOM      3  C   UNL     1      -7.553   0.836   2.003  0.00  0.00    +0.005 A 
ATOM      4  C   UNL     1      -7.394   2.096   1.443  0.00  0.00    -0.027 A 
ATOM      5  C   UNL     1      -8.350   2.590   0.584  0.00  0.00    -0.041 A 
ATOM      6  C   UNL     1      -9.472   1.823   0.294  0.00  0.00    +0.004 A 
ATOM      7  C   UNL     1      -8.238   3.940  -0.075  0.00  0.00    +0.054 C 
ATOM      8  C   UNL     1      -7.254   4.837   0.684  0.00  0.00    +0.113 C 
ATOM      9  N   UNL     1      -6.035   4.049   0.936  0.00  0.00    -0.293 N 
ATOM     10  C   UNL     1      -6.159   2.879   1.812  0.00  0.00    +0.143 C 
ATOM     11  C   UNL     1      -4.853   4.393   0.388  0.00  0.00    +0.247 C 
ATOM     12  O   UNL     1      -4.759   5.415  -0.259  0.00  0.00    -0.270 OA
ENDROOT
BRANCH  11  13
ATOM     13  C   UNL     1      -3.676   3.528   0.574  0.00  0.00    +0.040 C 
ATOM     14  C   UNL     1      -3.034   3.614   1.690  0.00  0.00    +0.024 C 
ATOM     15  C   UNL     1      -1.838   2.847   2.053  0.00  0.00    +0.018 A 
ATOM     16  C   UNL     1      -1.676   2.388   3.447  0.00  0.00    +0.011 A 
ATOM     17  C   UNL     1      -0.591   1.742   3.812  0.00  0.00    +0.001 A 
ATOM     18  C   UNL     1       0.470   1.473   2.826  0.00  0.00    +0.004 A 
ATOM     19  C   UNL     1       0.323   1.872   1.582  0.00  0.00    +0.047 A 
ATOM     20  C   UNL     1      -0.897   2.592   1.172  0.00  0.00    +0.135 A 
ATOM     21  O   UNL     1      -1.047   2.950  -0.131  0.00  0.00    -0.463 OA
ATOM     22  C   UNL     1      -2.065   2.397  -0.833  0.00  0.00    +0.196 C 
ATOM     23  C   UNL     1      -3.316   2.620  -0.518  0.00  0.00    +0.051 C 
ENDBRANCH  11  13
TORSDOF 1
