REMARK  Name = ZINC37974234
REMARK  9 active torsions:
REMARK  status: ('A' for Active; 'I' for Inactive)
REMARK    1  A    between atoms: C_1  and  C_2
REMARK    2  A    between atoms: C_2  and  C_4
REMARK    3  A    between atoms: C_2  and  N_11
REMARK    4  A    between atoms: N_6  and  C_7
REMARK    5  A    between atoms: C_7  and  C_8
REMARK    6  A    between atoms: C_7  and  C_9
REMARK    7  A    between atoms: C_7  and  C_10
REMARK    8  A    between atoms: C_15  and  C_16
REMARK    9  A    between atoms: C_19  and  N_22
REMARK                            x       y       z     vdW  Elec       q    Type
REMARK                         _______ _______ _______ _____ _____    ______ ____
ROOT
ATOM      1  N   UNL     1      -1.372  -0.511   0.012  0.00  0.00    -0.320 N 
ATOM      2  C   UNL     1      -2.335  -0.276  -0.934  0.00  0.00    +0.106 A 
ATOM      3  C   UNL     1      -3.446  -0.928  -0.537  0.00  0.00    +0.102 A 
ATOM      4  N   UNL     1      -3.182  -1.548   0.620  0.00  0.00    -0.346 N 
ATOM      5  C   UNL     1      -1.935  -1.312   0.963  0.00  0.00    +0.119 A 
ATOM      6  H   UNL     1      -3.810  -2.089   1.123  0.00  0.00    +0.167 HD
ENDROOT
BRANCH   5   7
ATOM      7  C   UNL     1      -1.259  -1.823   2.175  0.00  0.00    +0.016 A 
ATOM      8  C   UNL     1       0.097  -2.152   2.133  0.00  0.00    +0.013 A 
ATOM      9  C   UNL     1       0.724  -2.629   3.263  0.00  0.00    +0.023 A 
ATOM     10  C   UNL     1       0.007  -2.783   4.445  0.00  0.00    +0.025 A 
ATOM     11  C   UNL     1      -1.344  -2.456   4.490  0.00  0.00    +0.023 A 
ATOM     12  C   UNL     1      -1.975  -1.973   3.364  0.00  0.00    +0.013 A 
BRANCH  10  13
ATOM     13  N   UNL     1       0.645  -3.266   5.588  0.00  0.00    -0.358 N 
ATOM     14  H   UNL     1       1.587  -3.495   5.557  0.00  0.00    +0.142 HD
ATOM     15  H   UNL     1       0.146  -3.374   6.412  0.00  0.00    +0.142 HD
ENDBRANCH  10  13
ENDBRANCH   5   7
BRANCH   1  17
ATOM     16  C   UNL     1      -0.019   1.526   0.010  0.00  0.00    +0.041 C 
ATOM     17  C   UNL     1       0.002  -0.004   0.002  0.00  0.00    +0.171 C 
BRANCH  17  18
ATOM     18  C   UNL     1       0.707  -0.490  -1.238  0.00  0.00    +0.236 C 
ATOM     19  O   UNL     1       0.120  -1.191  -2.034  0.00  0.00    -0.274 OA
ATOM     20  N   UNL     1       1.991  -0.146  -1.462  0.00  0.00    -0.309 N 
ATOM     21  H   UNL     1       2.461   0.415  -0.825  0.00  0.00    +0.149 HD
BRANCH  20  22
ATOM     22  C   UNL     1       2.677  -0.618  -2.667  0.00  0.00    +0.026 C 
ATOM     23  C   UNL     1       1.937  -0.111  -3.906  0.00  0.00    +0.031 C 
ATOM     24  C   UNL     1       4.112  -0.089  -2.678  0.00  0.00    +0.031 C 
ATOM     25  C   UNL     1       2.698  -2.148  -2.675  0.00  0.00    +0.031 C 
ENDBRANCH  20  22
ENDBRANCH  17  18
ENDBRANCH   1  17
TORSDOF 5
