REMARK  Name = ZINC65409841
REMARK  9 active torsions:
REMARK  status: ('A' for Active; 'I' for Inactive)
REMARK    1  A    between atoms: C_1  and  C_2
REMARK    2  A    between atoms: C_4  and  C_8
REMARK    3  A    between atoms: C_10  and  C_27
REMARK    4  A    between atoms: N_14  and  C_15
REMARK    5  A    between atoms: C_15  and  C_17
REMARK    6  A    between atoms: C_15  and  C_21
REMARK    7  A    between atoms: C_17  and  C_18
REMARK    8  A    between atoms: C_18  and  C_19
REMARK    9  A    between atoms: C_18  and  C_20
REMARK                            x       y       z     vdW  Elec       q    Type
REMARK                         _______ _______ _______ _____ _____    ______ ____
ROOT
ATOM      1  C   UNL     1      -1.405  -3.607  -1.033  0.00  0.00    -0.014 C 
ATOM      2  C   UNL     1      -2.850  -4.141  -1.062  0.00  0.00    +0.071 C 
ATOM      3  N   UNL     1      -2.739  -5.575  -1.418  0.00  0.00    -0.327 NA
ATOM      4  C   UNL     1      -1.438  -5.681  -2.128  0.00  0.00    +0.007 C 
ATOM      5  N   UNL     1      -0.544  -4.764  -1.374  0.00  0.00    +0.397 N 
ATOM      6  H   UNL     1      -2.748  -6.154  -0.592  0.00  0.00    +0.120 HD
ATOM      7  H   UNL     1      -0.207  -5.212  -0.535  0.00  0.00    -0.078 HD
ENDROOT
BRANCH   1  11
ATOM      8  C   UNL     1      -1.313   0.532   1.230  0.00  0.00    +0.067 C 
ATOM      9  C   UNL     1      -0.986  -0.896   0.876  0.00  0.00    +0.058 C 
ATOM     10  C   UNL     1      -1.893  -1.860   0.699  0.00  0.00    +0.024 C 
ATOM     11  C   UNL     1      -1.062  -3.086   0.364  0.00  0.00    +0.141 C 
ATOM     12  N   UNL     1       0.318  -2.574   0.409  0.00  0.00    -0.181 NA
ATOM     13  N   UNL     1       0.264  -1.373   0.688  0.00  0.00    -0.159 NA
ENDBRANCH   1  11
BRANCH   2  14
ATOM     14  C   UNL     1      -3.490  -3.986   0.294  0.00  0.00    -0.032 A 
ATOM     15  C   UNL     1      -3.063  -4.766   1.352  0.00  0.00    +0.005 A 
ATOM     16  C   UNL     1      -3.650  -4.625   2.596  0.00  0.00    +0.000 A 
ATOM     17  C   UNL     1      -4.663  -3.703   2.781  0.00  0.00    +0.000 A 
ATOM     18  C   UNL     1      -5.090  -2.922   1.723  0.00  0.00    +0.000 A 
ATOM     19  C   UNL     1      -4.500  -3.061   0.480  0.00  0.00    +0.005 A 
ENDBRANCH   2  14
BRANCH   5  20
ATOM     20  C   UNL     1       0.581  -4.335  -2.216  0.00  0.00    -0.034 C 
BRANCH  20  21
ATOM     21  C   UNL     1       1.318  -5.547  -2.725  0.00  0.00    -0.043 A 
ATOM     22  C   UNL     1       1.796  -5.583  -4.026  0.00  0.00    +0.005 A 
ATOM     23  C   UNL     1       2.469  -6.718  -4.451  0.00  0.00    +0.020 A 
ATOM     24  C   UNL     1       2.639  -7.769  -3.569  0.00  0.00    +0.111 A 
ATOM     25  N   UNL     1       2.171  -7.700  -2.339  0.00  0.00    -0.263 NA
ATOM     26  C   UNL     1       1.532  -6.634  -1.899  0.00  0.00    +0.112 A 
ENDBRANCH  20  21
BRANCH  20  27
ATOM     27  C   UNL     1       1.534  -3.467  -1.391  0.00  0.00    -0.008 C 
BRANCH  27  28
ATOM     28  C   UNL     1       1.232  -1.990  -1.650  0.00  0.00    -0.018 C 
ATOM     29  C   UNL     1       2.314  -1.126  -0.999  0.00  0.00    +0.007 C 
ATOM     30  C   UNL     1       1.211  -1.730  -3.158  0.00  0.00    +0.007 C 
ENDBRANCH  27  28
ENDBRANCH  20  27
ENDBRANCH   5  20
TORSDOF 6
