REMARK  Name = ZINC49428736
REMARK  7 active torsions:
REMARK  status: ('A' for Active; 'I' for Inactive)
REMARK    1  A    between atoms: C_3  and  N_6
REMARK    2  A    between atoms: C_13  and  C_16
REMARK    3  A    between atoms: N_18  and  C_19
REMARK    4  A    between atoms: C_19  and  C_20
REMARK    5  A    between atoms: C_20  and  C_21
REMARK    6  A    between atoms: C_24  and  S_27
REMARK    7  A    between atoms: S_27  and  N_30
REMARK                            x       y       z     vdW  Elec       q    Type
REMARK                         _______ _______ _______ _____ _____    ______ ____
ROOT
ATOM      1  C   UNL     1       9.330  -0.119   0.595  0.00  0.00    +0.218 C 
ATOM      2  O   UNL     1      10.412   0.391   0.391  0.00  0.00    -0.275 OA
ATOM      3  N   UNL     1       9.215  -1.461   0.639  0.00  0.00    -0.315 N 
ATOM      4  H   UNL     1       8.350  -1.868   0.802  0.00  0.00    +0.149 HD
ENDROOT
BRANCH   1  12
ATOM      5  N   UNL     1       3.663   1.800  -0.028  0.00  0.00    -0.264 N 
ATOM      6  C   UNL     1       4.690   0.927  -0.038  0.00  0.00    +0.307 C 
ATOM      7  O   UNL     1       4.474  -0.267   0.054  0.00  0.00    -0.252 OA
ATOM      8  N   UNL     1       5.955   1.376  -0.150  0.00  0.00    -0.285 N 
ATOM      9  C   UNL     1       6.241   2.817  -0.141  0.00  0.00    +0.109 C 
ATOM     10  C   UNL     1       7.290   3.105   0.938  0.00  0.00    +0.020 C 
ATOM     11  C   UNL     1       8.518   2.223   0.699  0.00  0.00    +0.016 C 
ATOM     12  C   UNL     1       8.115   0.749   0.797  0.00  0.00    +0.092 C 
ATOM     13  C   UNL     1       7.076   0.435  -0.277  0.00  0.00    +0.122 C 
ATOM     14  H   UNL     1       3.837   2.754  -0.028  0.00  0.00    +0.157 HD
BRANCH   5  17
ATOM     15  C   UNL     1      -0.017   1.349   0.000  0.00  0.00    +0.009 A 
ATOM     16  C   UNL     1       1.183   2.038  -0.008  0.00  0.00    +0.031 A 
ATOM     17  C   UNL     1       2.346   1.330  -0.018  0.00  0.00    +0.073 A 
ATOM     18  S   UNL     1       1.753  -0.354  -0.017  0.00  0.00    -0.082 S 
ATOM     19  C   UNL     1       0.002  -0.005  -0.002  0.00  0.00    +0.047 A 
ENDBRANCH   5  17
ENDBRANCH   1  12
BRANCH   3  20
ATOM     20  C   UNL     1      10.396  -2.304   0.442  0.00  0.00    +0.109 C 
BRANCH  20  21
ATOM     21  C   UNL     1       9.993  -3.777   0.541  0.00  0.00    +0.054 C 
BRANCH  21  22
ATOM     22  C   UNL     1      11.208  -4.645   0.338  0.00  0.00    -0.046 A 
ATOM     23  C   UNL     1      11.557  -5.059  -0.934  0.00  0.00    +0.005 A 
ATOM     24  C   UNL     1      12.672  -5.856  -1.120  0.00  0.00    +0.029 A 
ATOM     25  C   UNL     1      13.438  -6.237  -0.034  0.00  0.00    +0.105 A 
ATOM     26  C   UNL     1      13.089  -5.822   1.238  0.00  0.00    +0.029 A 
ATOM     27  C   UNL     1      11.977  -5.022   1.423  0.00  0.00    +0.005 A 
BRANCH  25  28
ATOM     28  S   UNL     1      14.858  -7.253  -0.271  0.00  0.00    +0.056 S 
ATOM     29  O   UNL     1      15.091  -7.919   0.962  0.00  0.00    -0.153 OA
ATOM     30  O   UNL     1      14.657  -7.955  -1.490  0.00  0.00    -0.153 OA
BRANCH  28  31
ATOM     31  N   UNL     1      16.148  -6.243  -0.514  0.00  0.00    -0.204 NA
ATOM     32  H   UNL     1      16.019  -5.281  -0.505  0.00  0.00    +0.144 HD
ATOM     33  H   UNL     1      17.032  -6.612  -0.665  0.00  0.00    +0.144 HD
ENDBRANCH  28  31
ENDBRANCH  25  28
ENDBRANCH  21  22
ENDBRANCH  20  21
ENDBRANCH   3  20
TORSDOF 7
