REMARK  Name = ZINC66311374
REMARK  9 active torsions:
REMARK  status: ('A' for Active; 'I' for Inactive)
REMARK    1  A    between atoms: C_1  and  C_2
REMARK    2  A    between atoms: C_5  and  N_23
REMARK    3  A    between atoms: C_7  and  N_8
REMARK    4  A    between atoms: C_9  and  C_11
REMARK    5  A    between atoms: C_12  and  C_13
REMARK    6  A    between atoms: C_17  and  O_19
REMARK    7  A    between atoms: O_19  and  C_20
REMARK    8  A    between atoms: C_20  and  C_21
REMARK    9  A    between atoms: C_20  and  C_22
REMARK                            x       y       z     vdW  Elec       q    Type
REMARK                         _______ _______ _______ _____ _____    ______ ____
ROOT
ATOM      1  N   UNL     1      -0.028  -0.025   2.412  0.00  0.00    -0.282 N 
ATOM      2  C   UNL     1      -0.087  -0.701   3.576  0.00  0.00    +0.241 C 
ATOM      3  O   UNL     1      -0.040  -1.917   3.577  0.00  0.00    -0.270 OA
ATOM      4  H   UNL     1      -0.005   0.945   2.414  0.00  0.00    +0.155 HD
ENDROOT
BRANCH   1  11
ATOM      5  C   UNL     1      -1.349   1.126   0.172  0.00  0.00    +0.045 C 
ATOM      6  C   UNL     1      -0.631  -0.196   0.080  0.00  0.00    -0.029 A 
ATOM      7  C   UNL     1      -0.598  -0.882  -1.119  0.00  0.00    +0.007 A 
ATOM      8  C   UNL     1       0.059  -2.094  -1.207  0.00  0.00    +0.028 A 
ATOM      9  C   UNL     1       0.689  -2.627  -0.090  0.00  0.00    +0.071 A 
ATOM     10  C   UNL     1       0.658  -1.942   1.115  0.00  0.00    +0.051 A 
ATOM     11  C   UNL     1       0.001  -0.722   1.200  0.00  0.00    +0.039 A 
BRANCH   9  12
ATOM     12  N   UNL     1       1.355  -3.858  -0.180  0.00  0.00    -0.200 N 
ATOM     13  C   UNL     1       1.562  -4.599  -1.290  0.00  0.00    +0.250 A 
ATOM     14  N   UNL     1       2.222  -5.668  -0.927  0.00  0.00    -0.116 NA
ATOM     15  N   UNL     1       2.446  -5.653   0.338  0.00  0.00    -0.023 NA
ATOM     16  N   UNL     1       1.956  -4.583   0.864  0.00  0.00    -0.039 NA
ENDBRANCH   9  12
ENDBRANCH   1  11
BRANCH   2  17
ATOM     17  C   UNL     1      -0.208   0.028   4.840  0.00  0.00    +0.068 C 
ATOM     18  C   UNL     1      -0.267  -0.648   6.005  0.00  0.00    +0.013 C 
BRANCH  18  19
ATOM     19  C   UNL     1      -0.389   0.085   7.276  0.00  0.00    -0.021 A 
ATOM     20  C   UNL     1      -0.449   1.482   7.278  0.00  0.00    +0.008 A 
ATOM     21  C   UNL     1      -0.562   2.164   8.471  0.00  0.00    +0.004 A 
ATOM     22  C   UNL     1      -0.618   1.472   9.667  0.00  0.00    +0.046 A 
ATOM     23  C   UNL     1      -0.558   0.084   9.676  0.00  0.00    +0.121 A 
ATOM     24  C   UNL     1      -0.450  -0.613   8.485  0.00  0.00    +0.053 A 
BRANCH  23  25
ATOM     25  O   UNL     1      -0.612  -0.590  10.855  0.00  0.00    -0.489 OA
BRANCH  25  26
ATOM     26  C   UNL     1      -0.826   0.185  12.036  0.00  0.00    +0.167 C 
ATOM     27  C   UNL     1      -2.325   0.433  12.219  0.00  0.00    +0.051 C 
ATOM     28  C   UNL     1      -0.283  -0.573  13.249  0.00  0.00    +0.051 C 
ENDBRANCH  25  26
ENDBRANCH  23  25
ENDBRANCH  18  19
ENDBRANCH   2  17
TORSDOF 6
