REMARK  Name = ZINC44434565
REMARK  8 active torsions:
REMARK  status: ('A' for Active; 'I' for Inactive)
REMARK    1  A    between atoms: C_1  and  C_2
REMARK    2  A    between atoms: C_5  and  C_30
REMARK    3  A    between atoms: C_6  and  C_8
REMARK    4  A    between atoms: C_10  and  C_13
REMARK    5  A    between atoms: N_19  and  C_20
REMARK    6  A    between atoms: C_20  and  C_21
REMARK    7  A    between atoms: C_24  and  O_28
REMARK    8  A    between atoms: O_28  and  C_29
REMARK                            x       y       z     vdW  Elec       q    Type
REMARK                         _______ _______ _______ _____ _____    ______ ____
ROOT
ATOM      1  C   UNL     1      -0.460  -2.187   6.237  0.00  0.00    +0.165 C 
ATOM      2  C   UNL     1       0.865  -2.493   6.970  0.00  0.00    +0.041 C 
ATOM      3  C   UNL     1       0.583  -3.896   7.558  0.00  0.00    +0.098 C 
ATOM      4  C   UNL     1      -0.925  -3.955   7.669  0.00  0.00    +0.217 C 
ATOM      5  O   UNL     1      -1.541  -4.761   8.334  0.00  0.00    -0.276 OA
ATOM      6  N   UNL     1      -1.483  -2.984   6.924  0.00  0.00    -0.285 N 
ENDROOT
BRANCH   1   9
ATOM      7  C   UNL     1      -0.199  -2.496   2.630  0.00  0.00    +0.202 A 
ATOM      8  N   UNL     1      -0.269  -1.791   3.773  0.00  0.00    -0.190 NA
ATOM      9  C   UNL     1      -0.362  -2.600   4.790  0.00  0.00    +0.248 A 
ATOM     10  O   UNL     1      -0.355  -3.859   4.334  0.00  0.00    -0.336 OA
ATOM     11  N   UNL     1      -0.254  -3.773   2.921  0.00  0.00    -0.056 NA
BRANCH   7  17
ATOM     12  C   UNL     1      -1.678  -2.363  -2.138  0.00  0.00    +0.044 C 
ATOM     13  C   UNL     1      -0.794  -1.857  -1.027  0.00  0.00    -0.050 A 
ATOM     14  C   UNL     1       0.127  -0.856  -1.280  0.00  0.00    +0.003 A 
ATOM     15  C   UNL     1       0.942  -0.387  -0.266  0.00  0.00    +0.004 A 
ATOM     16  C   UNL     1       0.840  -0.916   1.005  0.00  0.00    -0.040 A 
ATOM     17  C   UNL     1      -0.086  -1.924   1.265  0.00  0.00    +0.026 A 
ATOM     18  C   UNL     1      -0.908  -2.389   0.241  0.00  0.00    +0.015 A 
ATOM     19  C   UNL     1       1.730  -0.404   2.109  0.00  0.00    +0.044 C 
ENDBRANCH   7  17
ENDBRANCH   1   9
BRANCH   6  20
ATOM     20  C   UNL     1      -2.925  -2.750   6.812  0.00  0.00    +0.143 C 
BRANCH  20  21
ATOM     21  C   UNL     1      -3.477  -3.554   5.663  0.00  0.00    -0.027 A 
ATOM     22  C   UNL     1      -3.519  -3.005   4.395  0.00  0.00    +0.009 A 
ATOM     23  C   UNL     1      -4.025  -3.739   3.339  0.00  0.00    +0.049 A 
ATOM     24  C   UNL     1      -4.491  -5.028   3.552  0.00  0.00    +0.155 A 
ATOM     25  C   UNL     1      -4.449  -5.577   4.827  0.00  0.00    +0.165 A 
ATOM     26  C   UNL     1      -3.937  -4.840   5.879  0.00  0.00    +0.047 A 
ATOM     27  F   UNL     1      -4.903  -6.832   5.038  0.00  0.00    -0.202 F 
BRANCH  24  28
ATOM     28  O   UNL     1      -4.990  -5.751   2.514  0.00  0.00    -0.492 OA
ATOM     29  C   UNL     1      -5.003  -5.122   1.232  0.00  0.00    +0.277 C 
ENDBRANCH  24  28
ENDBRANCH  20  21
ENDBRANCH   6  20
TORSDOF 5
