REMARK  Name = ZINC49243071
REMARK  5 active torsions:
REMARK  status: ('A' for Active; 'I' for Inactive)
REMARK    1  A    between atoms: C_1  and  C_2
REMARK    2  A    between atoms: C_5  and  C_7
REMARK    3  A    between atoms: N_9  and  N_10
REMARK    4  A    between atoms: N_13  and  C_14
REMARK    5  A    between atoms: C_19  and  C_22
REMARK                            x       y       z     vdW  Elec       q    Type
REMARK                         _______ _______ _______ _____ _____    ______ ____
ROOT
ATOM      1  N   UNL     1       2.959  -5.398  -0.043  0.00  0.00    -0.218 N 
ATOM      2  C   UNL     1       4.296  -5.564  -0.050  0.00  0.00    +0.316 C 
ATOM      3  O   UNL     1       4.770  -6.684  -0.058  0.00  0.00    -0.251 OA
ATOM      4  N   UNL     1       5.109  -4.489  -0.047  0.00  0.00    -0.295 N 
ATOM      5  H   UNL     1       2.374  -6.172  -0.044  0.00  0.00    +0.174 HD
ATOM      6  H   UNL     1       4.731  -3.595  -0.040  0.00  0.00    +0.151 HD
ENDROOT
BRANCH   4   7
ATOM      7  C   UNL     1       6.563  -4.669  -0.055  0.00  0.00    +0.075 C 
ATOM      8  C   UNL     1       7.047  -4.848  -1.495  0.00  0.00    +0.022 C 
ATOM      9  C   UNL     1       8.565  -5.037  -1.503  0.00  0.00    +0.002 C 
ATOM     10  C   UNL     1       9.235  -3.806  -0.890  0.00  0.00    +0.003 C 
ATOM     11  C   UNL     1       8.751  -3.626   0.550  0.00  0.00    -0.012 C 
ATOM     12  C   UNL     1       7.233  -3.438   0.559  0.00  0.00    +0.025 C 
ATOM     13  C   UNL     1       9.421  -2.395   1.164  0.00  0.00    +0.007 C 
ENDBRANCH   4   7
BRANCH   1  16
ATOM     14  C   UNL     1       1.076  -3.942  -0.025  0.00  0.00    +0.267 C 
ATOM     15  O   UNL     1       0.342  -4.913  -0.028  0.00  0.00    -0.268 OA
ATOM     16  N   UNL     1       2.413  -4.108  -0.033  0.00  0.00    -0.229 N 
ATOM     17  H   UNL     1       2.998  -3.334  -0.031  0.00  0.00    +0.173 HD
BRANCH  14  22
ATOM     18  C   UNL     1      -0.018   1.503   0.010  0.00  0.00    +0.051 C 
ATOM     19  C   UNL     1       0.002  -0.004   0.002  0.00  0.00    -0.013 A 
ATOM     20  C   UNL     1      -1.056  -0.852   0.002  0.00  0.00    +0.011 A 
ATOM     21  C   UNL     1      -0.827  -2.207  -0.007  0.00  0.00    +0.021 A 
ATOM     22  C   UNL     1       0.505  -2.592  -0.015  0.00  0.00    +0.076 A 
ATOM     23  S   UNL     1       1.341  -1.018  -0.017  0.00  0.00    -0.089 S 
ENDBRANCH  14  22
ENDBRANCH   1  16
TORSDOF 3
