REMARK  Name = ZINC02640216
REMARK  5 active torsions:
REMARK  status: ('A' for Active; 'I' for Inactive)
REMARK    1  A    between atoms: C_1  and  C_2
REMARK    2  A    between atoms: C_5  and  S_8
REMARK    3  A    between atoms: S_8  and  N_11
REMARK    4  A    between atoms: N_11  and  N_12
REMARK    5  A    between atoms: N_15  and  C_16
REMARK                            x       y       z     vdW  Elec       q    Type
REMARK                         _______ _______ _______ _____ _____    ______ ____
ROOT
ATOM      1  N   UNL     1       2.496  -4.622   1.017  0.00  0.00    -0.215 N 
ATOM      2  C   UNL     1       3.185  -5.560   1.697  0.00  0.00    +0.319 C 
ATOM      3  O   UNL     1       3.929  -5.231   2.601  0.00  0.00    -0.251 OA
ATOM      4  N   UNL     1       3.050  -6.862   1.375  0.00  0.00    -0.268 N 
ATOM      5  H   UNL     1       2.593  -3.686   1.249  0.00  0.00    +0.172 HD
ATOM      6  H   UNL     1       2.408  -7.130   0.700  0.00  0.00    +0.156 HD
ENDROOT
BRANCH   4   7
ATOM      7  C   UNL     1       3.838  -7.826   2.015  0.00  0.00    +0.036 A 
ATOM      8  C   UNL     1       4.284  -8.937   1.311  0.00  0.00    +0.025 A 
ATOM      9  C   UNL     1       5.061  -9.888   1.944  0.00  0.00    +0.023 A 
ATOM     10  C   UNL     1       5.394  -9.735   3.278  0.00  0.00    +0.059 A 
ATOM     11  C   UNL     1       4.951  -8.628   3.982  0.00  0.00    +0.061 A 
ATOM     12  C   UNL     1       4.178  -7.671   3.352  0.00  0.00    +0.044 A 
ATOM     13 CL   UNL     1       5.371  -8.439   5.656  0.00  0.00    -0.082 Cl
ATOM     14 CL   UNL     1       6.370 -10.932   4.071  0.00  0.00    -0.082 Cl
ENDBRANCH   4   7
BRANCH   1  15
ATOM     15  N   UNL     1       1.639  -5.001  -0.024  0.00  0.00    -0.107 NA
ATOM     16  H   UNL     1       1.976  -5.537  -0.759  0.00  0.00    +0.172 HD
BRANCH  15  17
ATOM     17  S   UNL     1       0.051  -4.533  -0.001  0.00  0.00    +0.074 S 
ATOM     18  O   UNL     1      -0.478  -4.953   1.249  0.00  0.00    -0.152 OA
ATOM     19  O   UNL     1      -0.511  -4.940  -1.242  0.00  0.00    -0.152 OA
BRANCH  17  24
ATOM     20  C   UNL     1      -0.035   1.500   0.031  0.00  0.00    +0.044 C 
ATOM     21  C   UNL     1      -0.014  -0.007   0.023  0.00  0.00    -0.050 A 
ATOM     22  C   UNL     1      -0.018  -0.692  -1.178  0.00  0.00    +0.005 A 
ATOM     23  C   UNL     1       0.002  -2.074  -1.185  0.00  0.00    +0.029 A 
ATOM     24  C   UNL     1       0.026  -2.771   0.008  0.00  0.00    +0.107 A 
ATOM     25  C   UNL     1       0.032  -2.086   1.209  0.00  0.00    +0.029 A 
ATOM     26  C   UNL     1       0.017  -0.704   1.216  0.00  0.00    +0.005 A 
ENDBRANCH  17  24
ENDBRANCH  15  17
ENDBRANCH   1  15
TORSDOF 4
