REMARK  Name = ZINC58626353
REMARK  2 active torsions:
REMARK  status: ('A' for Active; 'I' for Inactive)
REMARK    1  A    between atoms: C_3  and  C_18
REMARK    2  A    between atoms: C_6  and  N_9
REMARK                            x       y       z     vdW  Elec       q    Type
REMARK                         _______ _______ _______ _____ _____    ______ ____
ROOT
ATOM      1  C   UNL     1      -0.029   1.522   0.017  0.00  0.00    +0.002 C 
ATOM      2  C   UNL     1       1.405   2.056   0.009  0.00  0.00    +0.012 C 
ATOM      3  C   UNL     1       2.124   1.568  -1.250  0.00  0.00    +0.095 C 
ATOM      4  C   UNL     1       2.149   0.038  -1.262  0.00  0.00    +0.034 C 
ATOM      5  C   UNL     1       0.716  -0.496  -1.254  0.00  0.00    +0.075 C 
ATOM      6  C   UNL     1      -0.004  -0.008   0.005  0.00  0.00    +0.022 C 
ENDROOT
BRANCH   5   7
ATOM      7  N   UNL     1       0.007  -0.010  -2.441  0.00  0.00    -0.296 N 
ATOM      8  C   UNL     1      -1.042  -0.701  -2.929  0.00  0.00    +0.303 C 
ATOM      9  O   UNL     1      -1.345  -1.772  -2.441  0.00  0.00    -0.253 OA
ATOM     10  N   UNL     1      -1.756  -0.203  -3.958  0.00  0.00    -0.281 N 
ATOM     11  C   UNL     1      -1.339   1.030  -4.643  0.00  0.00    +0.137 C 
ATOM     12  C   UNL     1      -1.317   0.761  -6.152  0.00  0.00    +0.179 C 
ATOM     13  O   UNL     1      -2.573   0.208  -6.551  0.00  0.00    -0.377 OA
ATOM     14  C   UNL     1      -2.873  -1.054  -5.950  0.00  0.00    +0.179 C 
ATOM     15  C   UNL     1      -2.973  -0.881  -4.434  0.00  0.00    +0.137 C 
ATOM     16  H   UNL     1       0.293   0.809  -2.875  0.00  0.00    +0.151 HD
ENDBRANCH   5   7
BRANCH   3  17
ATOM     17  C   UNL     1       3.558   2.102  -1.258  0.00  0.00    +0.393 C 
ATOM     18  F   UNL     1       4.234   1.638  -0.125  0.00  0.00    -0.170 F 
ATOM     19  F   UNL     1       4.215   1.655  -2.409  0.00  0.00    -0.170 F 
ATOM     20  F   UNL     1       3.534   3.501  -1.247  0.00  0.00    -0.170 F 
ENDBRANCH   3  17
TORSDOF 2
