REMARK  Name = ZINC09961209
REMARK  8 active torsions:
REMARK  status: ('A' for Active; 'I' for Inactive)
REMARK    1  A    between atoms: C_1  and  C_2
REMARK    2  A    between atoms: C_2  and  C_4
REMARK    3  A    between atoms: C_2  and  N_10
REMARK    4  A    between atoms: C_11  and  C_13
REMARK    5  A    between atoms: N_18  and  S_19
REMARK    6  A    between atoms: S_19  and  C_22
REMARK    7  A    between atoms: N_28  and  C_35
REMARK    8  A    between atoms: N_33  and  C_34
REMARK                            x       y       z     vdW  Elec       q    Type
REMARK                         _______ _______ _______ _____ _____    ______ ____
ROOT
ATOM      1  C   UNL     1       0.780  -1.133   3.576  0.00  0.00    +0.165 C 
ATOM      2  C   UNL     1       1.910  -0.150   3.951  0.00  0.00    +0.031 C 
ATOM      3  C   UNL     1       1.261   0.719   5.061  0.00  0.00    +0.019 C 
ATOM      4  C   UNL     1       0.372  -0.320   5.790  0.00  0.00    +0.110 C 
ATOM      5  N   UNL     1      -0.143  -1.197   4.718  0.00  0.00    -0.165 NA
ENDROOT
BRANCH   1   7
ATOM      6  N   UNL     1       0.711  -0.489   1.189  0.00  0.00    -0.307 N 
ATOM      7  C   UNL     1       0.051  -0.633   2.355  0.00  0.00    +0.232 C 
ATOM      8  O   UNL     1      -1.129  -0.361   2.423  0.00  0.00    -0.274 OA
ATOM      9  H   UNL     1       1.654  -0.707   1.135  0.00  0.00    +0.149 HD
BRANCH   6  11
ATOM     10  C   UNL     1      -0.019   1.526   0.010  0.00  0.00    +0.033 C 
ATOM     11  C   UNL     1       0.002  -0.004   0.002  0.00  0.00    +0.100 C 
BRANCH  11  12
ATOM     12  C   UNL     1       0.707  -0.490  -1.238  0.00  0.00    -0.027 A 
ATOM     13  C   UNL     1       2.089  -0.511  -1.284  0.00  0.00    +0.005 A 
ATOM     14  C   UNL     1       2.736  -0.957  -2.421  0.00  0.00    +0.000 A 
ATOM     15  C   UNL     1       2.002  -1.382  -3.512  0.00  0.00    +0.000 A 
ATOM     16  C   UNL     1       0.620  -1.362  -3.466  0.00  0.00    +0.000 A 
ATOM     17  C   UNL     1      -0.027  -0.920  -2.327  0.00  0.00    +0.005 A 
ENDBRANCH  11  12
ENDBRANCH   6  11
ENDBRANCH   1   7
BRANCH   5  18
ATOM     18  S   UNL     1      -1.530  -2.101   4.789  0.00  0.00    +0.062 S 
ATOM     19  O   UNL     1      -2.371  -1.480   5.751  0.00  0.00    -0.153 OA
ATOM     20  O   UNL     1      -1.940  -2.319   3.446  0.00  0.00    -0.153 OA
BRANCH  18  21
ATOM     21  C   UNL     1      -1.092  -3.676   5.444  0.00  0.00    +0.108 A 
ATOM     22  C   UNL     1      -0.708  -4.697   4.590  0.00  0.00    +0.030 A 
ATOM     23  C   UNL     1      -0.364  -5.934   5.095  0.00  0.00    +0.030 A 
ATOM     24  C   UNL     1      -0.402  -6.161   6.466  0.00  0.00    +0.068 A 
ATOM     25  C   UNL     1      -0.789  -5.133   7.327  0.00  0.00    +0.070 A 
ATOM     26  C   UNL     1      -1.128  -3.888   6.807  0.00  0.00    +0.056 A 
ATOM     27  N   UNL     1      -0.834  -5.340   8.703  0.00  0.00    -0.305 N 
ATOM     28  C   UNL     1      -0.502  -6.542   9.217  0.00  0.00    +0.316 A 
ATOM     29  O   UNL     1      -0.539  -6.728  10.417  0.00  0.00    -0.262 OA
ATOM     30  C   UNL     1      -0.087  -7.640   8.297  0.00  0.00    +0.316 A 
ATOM     31  O   UNL     1       0.216  -8.730   8.740  0.00  0.00    -0.262 OA
ATOM     32  N   UNL     1      -0.054  -7.412   6.968  0.00  0.00    -0.305 N 
ATOM     33  C   UNL     1       0.350  -8.481   6.052  0.00  0.00    +0.153 C 
ATOM     34  C   UNL     1      -1.243  -4.252   9.594  0.00  0.00    +0.153 C 
ENDBRANCH  18  21
ENDBRANCH   5  18
TORSDOF 5
