REMARK  Name = ZINC54532673
REMARK  2 active torsions:
REMARK  status: ('A' for Active; 'I' for Inactive)
REMARK    1  A    between atoms: C_1  and  C_2
REMARK    2  A    between atoms: C_9  and  C_17
REMARK                            x       y       z     vdW  Elec       q    Type
REMARK                         _______ _______ _______ _____ _____    ______ ____
ROOT
ATOM      1  C   UNL     1       2.642  -0.055  -0.148  0.00  0.00    +0.007 C 
ATOM      2  C   UNL     1       1.281  -0.749  -0.058  0.00  0.00    -0.011 C 
ATOM      3  C   UNL     1       0.634  -0.428   1.291  0.00  0.00    +0.022 C 
ATOM      4  C   UNL     1      -0.743  -1.097   1.364  0.00  0.00    +0.107 C 
ATOM      5  N   UNL     1      -0.587  -2.533   1.095  0.00  0.00    -0.316 N 
ATOM      6  C   UNL     1       0.104  -2.950  -0.133  0.00  0.00    +0.107 C 
ATOM      7  C   UNL     1       1.471  -2.262  -0.189  0.00  0.00    +0.022 C 
ATOM      8  C   UNL     1      -1.079  -3.472   1.980  0.00  0.00    +0.113 A 
ATOM      9  C   UNL     1      -2.419  -3.890   1.883  0.00  0.00    +0.101 A 
ATOM     10  C   UNL     1      -2.890  -4.843   2.795  0.00  0.00    +0.023 A 
ATOM     11  C   UNL     1      -2.017  -5.333   3.751  0.00  0.00    -0.027 A 
ATOM     12  C   UNL     1      -0.711  -4.875   3.785  0.00  0.00    +0.021 A 
ATOM     13  N   UNL     1      -0.287  -3.977   2.910  0.00  0.00    -0.346 N 
ATOM     14  C   UNL     1       0.036  -5.559   4.913  0.00  0.00    +0.054 C 
ATOM     15  C   UNL     1      -1.060  -6.145   5.828  0.00  0.00    +0.011 C 
ATOM     16  C   UNL     1      -2.236  -6.351   4.849  0.00  0.00    +0.037 C 
ATOM     17  H   UNL     1       0.634  -3.677   2.955  0.00  0.00    +0.167 HD
ENDROOT
BRANCH   9  18
ATOM     18  C   UNL     1      -3.306  -3.338   0.849  0.00  0.00    +0.390 C 
ATOM     19  O   UNL     1      -4.494  -3.630   0.841  0.00  0.00    -0.240 OA
ATOM     20  O   UNL     1      -2.855  -2.586  -0.005  0.00  0.00    -0.240 OA
ENDBRANCH   9  18
TORSDOF 1
