REMARK  Name = ZINC04648792
REMARK  5 active torsions:
REMARK  status: ('A' for Active; 'I' for Inactive)
REMARK    1  A    between atoms: C_1  and  C_2
REMARK    2  A    between atoms: C_11  and  O_22
REMARK    3  A    between atoms: C_12  and  C_13
REMARK    4  A    between atoms: C_13  and  C_15
REMARK    5  A    between atoms: C_16  and  C_17
REMARK                            x       y       z     vdW  Elec       q    Type
REMARK                         _______ _______ _______ _____ _____    ______ ____
ROOT
ATOM      1  C   UNL     1       7.530   1.597   0.039  0.00  0.00    +0.045 C 
ATOM      2  C   UNL     1       6.152   2.208   0.056  0.00  0.00    -0.033 A 
ATOM      3  C   UNL     1       5.987   3.555   0.116  0.00  0.00    +0.096 A 
ATOM      4  C   UNL     1       4.687   4.101   0.131  0.00  0.00    +0.337 A 
ATOM      5  O   UNL     1       4.552   5.310   0.185  0.00  0.00    -0.245 OA
ATOM      6  O   UNL     1       3.595   3.321   0.087  0.00  0.00    -0.421 OA
ATOM      7  C   UNL     1       3.691   1.979   0.021  0.00  0.00    +0.154 A 
ATOM      8  C   UNL     1       4.955   1.365   0.008  0.00  0.00    +0.021 A 
ATOM      9  C   UNL     1       5.059  -0.030  -0.054  0.00  0.00    +0.015 A 
ATOM     10  C   UNL     1       3.933  -0.801  -0.098  0.00  0.00    +0.047 A 
ATOM     11  C   UNL     1       2.672  -0.215  -0.081  0.00  0.00    +0.131 A 
ATOM     12  C   UNL     1       2.540   1.179  -0.018  0.00  0.00    +0.106 A 
ENDROOT
BRANCH  12  13
ATOM     13  C   UNL     1       1.203   1.800   0.000  0.00  0.00    +0.193 C 
ATOM     14  O   UNL     1       0.623   2.030  -1.047  0.00  0.00    -0.287 OA
BRANCH  13  15
ATOM     15  C   UNL     1       0.592   2.128   1.233  0.00  0.00    +0.055 C 
ATOM     16  C   UNL     1      -0.591   2.795   1.249  0.00  0.00    +0.050 C 
BRANCH  16  17
ATOM     17  C   UNL     1      -1.204   3.118   2.482  0.00  0.00    +0.128 A 
ATOM     18  C   UNL     1      -2.397   3.793   2.646  0.00  0.00    +0.049 A 
ATOM     19  C   UNL     1      -2.617   3.887   4.028  0.00  0.00    +0.042 A 
ATOM     20  C   UNL     1      -1.571   3.287   4.641  0.00  0.00    +0.195 A 
ATOM     21  O   UNL     1      -0.725   2.826   3.710  0.00  0.00    -0.464 OA
ENDBRANCH  16  17
ENDBRANCH  13  15
ENDBRANCH  12  13
BRANCH  11  22
ATOM     22  O   UNL     1       1.565  -0.996  -0.125  0.00  0.00    -0.506 OA
ATOM     23  H   UNL     1       1.250  -1.182  -1.020  0.00  0.00    +0.292 HD
ENDBRANCH  11  22
TORSDOF 4
