REMARK  Name = ZINC37327622
REMARK  5 active torsions:
REMARK  status: ('A' for Active; 'I' for Inactive)
REMARK    1  A    between atoms: C_1  and  C_2
REMARK    2  A    between atoms: C_2  and  C_4
REMARK    3  A    between atoms: N_9  and  C_10
REMARK    4  A    between atoms: C_10  and  C_12
REMARK    5  A    between atoms: C_10  and  C_13
REMARK                            x       y       z     vdW  Elec       q    Type
REMARK                         _______ _______ _______ _____ _____    ______ ____
ROOT
ATOM      1  C   UNL     1       1.063  -3.463   4.950  0.00  0.00    +0.078 C 
ATOM      2  C   UNL     1       0.684  -2.603   6.157  0.00  0.00    +0.028 C 
ENDROOT
BRANCH   1   3
ATOM      3  C   UNL     1       0.673  -4.918   5.218  0.00  0.00    -0.010 C 
ATOM      4  C   UNL     1      -0.836  -5.005   5.453  0.00  0.00    +0.012 C 
ATOM      5  C   UNL     1      -1.227  -6.460   5.721  0.00  0.00    -0.010 C 
ATOM      6  C   UNL     1      -0.487  -6.967   6.960  0.00  0.00    +0.007 C 
ATOM      7  C   UNL     1       1.022  -6.879   6.725  0.00  0.00    -0.010 C 
ATOM      8  C   UNL     1       1.413  -5.424   6.457  0.00  0.00    +0.012 C 
ATOM      9  C   UNL     1       1.401  -7.739   5.518  0.00  0.00    +0.007 C 
ATOM     10  C   UNL     1       0.661  -7.233   4.278  0.00  0.00    -0.010 C 
ATOM     11  C   UNL     1      -0.848  -7.321   4.514  0.00  0.00    +0.007 C 
ATOM     12  C   UNL     1       1.052  -5.778   4.010  0.00  0.00    +0.012 C 
ENDBRANCH   1   3
BRANCH   1  18
ATOM     13  C   UNL     1       0.731  -0.503   1.223  0.00  0.00    +0.238 C 
ATOM     14  O   UNL     1       1.780   0.007   1.554  0.00  0.00    -0.274 OA
ATOM     15  N   UNL     1       0.217  -1.517   1.947  0.00  0.00    -0.239 N 
ATOM     16  C   UNL     1       0.869  -1.964   3.039  0.00  0.00    +0.306 C 
ATOM     17  O   UNL     1       1.920  -1.452   3.371  0.00  0.00    -0.252 OA
ATOM     18  N   UNL     1       0.355  -2.977   3.763  0.00  0.00    -0.296 N 
ATOM     19  H   UNL     1      -0.622  -1.925   1.682  0.00  0.00    +0.159 HD
ATOM     20  H   UNL     1      -0.484  -3.386   3.498  0.00  0.00    +0.151 HD
BRANCH  13  22
ATOM     21  C   UNL     1      -0.019   1.526   0.010  0.00  0.00    +0.034 C 
ATOM     22  C   UNL     1       0.002  -0.004   0.002  0.00  0.00    +0.163 C 
ATOM     23 CL   UNL     1       0.846  -0.586  -1.481  0.00  0.00    -0.112 Cl
ENDBRANCH  13  22
ENDBRANCH   1  18
TORSDOF 3
