REMARK  Name = ZINC07628552
REMARK  6 active torsions:
REMARK  status: ('A' for Active; 'I' for Inactive)
REMARK    1  A    between atoms: C_1  and  C_2
REMARK    2  A    between atoms: C_2  and  C_4
REMARK    3  A    between atoms: C_2  and  S_13
REMARK    4  A    between atoms: C_8  and  N_10
REMARK    5  A    between atoms: S_13  and  C_14
REMARK    6  A    between atoms: C_17  and  C_20
REMARK                            x       y       z     vdW  Elec       q    Type
REMARK                         _______ _______ _______ _____ _____    ______ ____
ROOT
ATOM      1  C   UNL     1      -0.700   7.681  -1.254  0.00  0.00    +0.185 A 
ATOM      2  N   UNL     1      -1.151   8.657  -2.095  0.00  0.00    -0.201 NA
ATOM      3  H   UNL     1       0.489   7.845   0.578  0.00  0.00    +0.191 HD
ATOM      4  C   UNL     1      -0.707   9.844  -1.560  0.00  0.00    +0.183 A 
ATOM      5  N   UNL     1      -0.040   9.548  -0.469  0.00  0.00    -0.152 NA
ATOM      6  N   UNL     1      -0.032   8.276  -0.290  0.00  0.00    -0.253 N 
ENDROOT
BRANCH   4   7
ATOM      7  C   UNL     1      -0.939  11.197  -2.109  0.00  0.00    +0.035 A 
ATOM      8  C   UNL     1      -1.577  11.353  -3.340  0.00  0.00    +0.013 A 
ATOM      9  C   UNL     1      -1.790  12.618  -3.847  0.00  0.00    +0.001 A 
ATOM     10  C   UNL     1      -1.372  13.731  -3.139  0.00  0.00    +0.001 A 
ATOM     11  C   UNL     1      -0.739  13.584  -1.918  0.00  0.00    +0.016 A 
ATOM     12  C   UNL     1      -0.524  12.323  -1.396  0.00  0.00    +0.029 A 
ATOM     13 BR   UNL     1       0.335  12.124   0.276  0.00  0.00    -0.050 Br
ENDBRANCH   4   7
BRANCH   1  14
ATOM     14  S   UNL     1      -0.963   5.947  -1.427  0.00  0.00    -0.079 S 
BRANCH  14  16
ATOM     15  C   UNL     1      -0.772   5.847   1.297  0.00  0.00    +0.024 C 
ATOM     16  C   UNL     1      -0.073   5.347   0.031  0.00  0.00    +0.081 C 
BRANCH  16  17
ATOM     17  C   UNL     1      -0.060   3.840   0.027  0.00  0.00    -0.032 A 
ATOM     18  C   UNL     1      -1.251   3.138   0.049  0.00  0.00    +0.005 A 
ATOM     19  C   UNL     1      -1.238   1.756   0.039  0.00  0.00    +0.003 A 
ATOM     20  C   UNL     1      -0.035   1.076   0.018  0.00  0.00    +0.033 A 
ATOM     21  C   UNL     1       1.155   1.778  -0.005  0.00  0.00    +0.126 A 
ATOM     22  C   UNL     1       1.143   3.160  -0.000  0.00  0.00    +0.037 A 
BRANCH  21  23
ATOM     23  N   UNL     1       2.443   1.049  -0.035  0.00  0.00    +0.056 N 
ATOM     24  O   UNL     1       2.454  -0.169  -0.039  0.00  0.00    -0.126 OA
ATOM     25  O   UNL     1       3.493   1.667  -0.054  0.00  0.00    -0.126 OA
ENDBRANCH  21  23
ENDBRANCH  16  17
ENDBRANCH  14  16
ENDBRANCH   1  14
TORSDOF 5
