REMARK  Name = ZINC09419243
REMARK  6 active torsions:
REMARK  status: ('A' for Active; 'I' for Inactive)
REMARK    1  A    between atoms: C_1  and  O_2
REMARK    2  A    between atoms: O_2  and  C_3
REMARK    3  A    between atoms: C_6  and  N_9
REMARK    4  A    between atoms: C_12  and  C_16
REMARK    5  A    between atoms: C_12  and  N_20
REMARK    6  A    between atoms: C_21  and  C_23
REMARK                            x       y       z     vdW  Elec       q    Type
REMARK                         _______ _______ _______ _____ _____    ______ ____
ROOT
ATOM      1  N   UNL     1      -0.378   3.536   0.032  0.00  0.00    -0.191 N 
ATOM      2  C   UNL     1       0.959   3.407  -0.076  0.00  0.00    +0.279 C 
ATOM      3  O   UNL     1       1.774   4.298  -0.184  0.00  0.00    -0.270 OA
ATOM      4  C   UNL     1       1.231   1.916  -0.036  0.00  0.00    +0.278 C 
ATOM      5  N   UNL     1      -0.110   1.323   0.102  0.00  0.00    -0.263 N 
ATOM      6  C   UNL     1      -0.983   2.347   0.129  0.00  0.00    +0.315 C 
ATOM      7  O   UNL     1      -2.186   2.206   0.231  0.00  0.00    -0.252 OA
ATOM      8  H   UNL     1      -0.323   0.379   0.160  0.00  0.00    +0.153 HD
ENDROOT
BRANCH   1  12
ATOM      9  C   UNL     1      -2.386   7.194   0.046  0.00  0.00    +0.120 A 
ATOM     10  C   UNL     1      -0.999   7.164   0.065  0.00  0.00    +0.047 A 
ATOM     11  C   UNL     1      -0.334   5.954   0.061  0.00  0.00    +0.027 A 
ATOM     12  C   UNL     1      -1.054   4.767   0.037  0.00  0.00    +0.046 A 
ATOM     13  C   UNL     1      -2.441   4.797   0.012  0.00  0.00    +0.027 A 
ATOM     14  C   UNL     1      -3.106   6.008   0.022  0.00  0.00    +0.047 A 
BRANCH   9  16
ATOM     15  C   UNL     1      -4.469   8.341   0.030  0.00  0.00    +0.277 C 
ATOM     16  O   UNL     1      -3.040   8.385   0.051  0.00  0.00    -0.495 OA
ENDBRANCH   9  16
ENDBRANCH   1  12
BRANCH   4  17
ATOM     17  C   UNL     1       2.104   1.561   1.168  0.00  0.00    +0.436 C 
ATOM     18  F   UNL     1       2.345   0.182   1.179  0.00  0.00    -0.166 F 
ATOM     19  F   UNL     1       3.321   2.246   1.081  0.00  0.00    -0.166 F 
ATOM     20  F   UNL     1       1.446   1.928   2.346  0.00  0.00    -0.166 F 
ENDBRANCH   4  17
BRANCH   4  21
ATOM     21  N   UNL     1       1.865   1.472  -1.280  0.00  0.00    -0.280 N 
ATOM     22  C   UNL     1       3.010   2.048  -1.696  0.00  0.00    +0.218 C 
ATOM     23  O   UNL     1       3.563   2.872  -0.999  0.00  0.00    -0.275 OA
ATOM     24  H   UNL     1       1.460   0.763  -1.804  0.00  0.00    +0.151 HD
BRANCH  22  25
ATOM     25  C   UNL     1       3.603   1.669  -3.029  0.00  0.00    +0.075 C 
ATOM     26  C   UNL     1       3.918   0.171  -3.039  0.00  0.00    +0.013 C 
ATOM     27  C   UNL     1       4.520  -0.214  -4.392  0.00  0.00    +0.001 C 
ATOM     28  C   UNL     1       5.809   0.580  -4.621  0.00  0.00    +0.000 C 
ATOM     29  C   UNL     1       5.494   2.077  -4.610  0.00  0.00    +0.001 C 
ATOM     30  C   UNL     1       4.892   2.462  -3.257  0.00  0.00    +0.013 C 
ENDBRANCH  22  25
ENDBRANCH   4  21
TORSDOF 5
