REMARK  Name = ZINC21347617
REMARK  7 active torsions:
REMARK  status: ('A' for Active; 'I' for Inactive)
REMARK    1  A    between atoms: C_4  and  N_11
REMARK    2  A    between atoms: C_5  and  C_7
REMARK    3  A    between atoms: N_11  and  C_12
REMARK    4  A    between atoms: C_12  and  N_14
REMARK    5  A    between atoms: N_14  and  N_15
REMARK    6  A    between atoms: C_16  and  C_18
REMARK    7  A    between atoms: C_25  and  C_27
REMARK                            x       y       z     vdW  Elec       q    Type
REMARK                         _______ _______ _______ _____ _____    ______ ____
ROOT
ATOM      1  N   UNL     1       5.892  -2.010  -0.292  0.00  0.00    -0.235 N 
ATOM      2  C   UNL     1       7.065  -2.670  -0.346  0.00  0.00    +0.234 C 
ATOM      3  O   UNL     1       8.107  -2.051  -0.400  0.00  0.00    -0.274 OA
ATOM      4  H   UNL     1       5.059  -2.504  -0.248  0.00  0.00    +0.173 HD
ENDROOT
BRANCH   2   5
ATOM      5  C   UNL     1       7.084  -4.176  -0.338  0.00  0.00    +0.094 C 
ATOM      6  C   UNL     1       8.530  -4.670  -0.408  0.00  0.00    +0.016 C 
ATOM      7  C   UNL     1       8.552  -6.200  -0.367  0.00  0.00    +0.020 C 
ATOM      8  C   UNL     1       7.794  -6.750  -1.579  0.00  0.00    +0.108 C 
ATOM      9  N   UNL     1       6.446  -6.165  -1.600  0.00  0.00    -0.294 N 
ATOM     10  C   UNL     1       6.309  -4.703  -1.550  0.00  0.00    +0.121 C 
ATOM     11  C   UNL     1       5.356  -6.955  -1.663  0.00  0.00    +0.282 C 
ATOM     12  O   UNL     1       4.249  -6.458  -1.753  0.00  0.00    -0.267 OA
BRANCH  11  13
ATOM     13  C   UNL     1       5.504  -8.414  -1.623  0.00  0.00    +0.189 A 
ATOM     14  C   UNL     1       4.488  -9.322  -1.546  0.00  0.00    +0.054 A 
ATOM     15  C   UNL     1       5.082 -10.593  -1.534  0.00  0.00    +0.042 A 
ATOM     16  C   UNL     1       6.419 -10.408  -1.605  0.00  0.00    +0.196 A 
ATOM     17  O   UNL     1       6.669  -9.094  -1.663  0.00  0.00    -0.458 OA
ENDBRANCH  11  13
ENDBRANCH   2   5
BRANCH   1  18
ATOM     18  N   UNL     1       5.875  -0.609  -0.299  0.00  0.00    -0.246 N 
ATOM     19  H   UNL     1       6.708  -0.114  -0.343  0.00  0.00    +0.172 HD
BRANCH  18  20
ATOM     20  C   UNL     1       4.701   0.051  -0.245  0.00  0.00    +0.151 C 
ATOM     21  S   UNL     1       4.680   1.763  -0.254  0.00  0.00    -0.017 S 
BRANCH  20  22
ATOM     22  N   UNL     1       3.543  -0.636  -0.185  0.00  0.00    -0.295 N 
ATOM     23  H   UNL     1       3.557  -1.605  -0.138  0.00  0.00    +0.154 HD
BRANCH  22  27
ATOM     24  C   UNL     1      -0.092   1.399  -0.198  0.00  0.00    +0.001 A 
ATOM     25  C   UNL     1       0.946   1.835  -1.002  0.00  0.00    +0.002 A 
ATOM     26  C   UNL     1       2.152   1.163  -1.000  0.00  0.00    +0.024 A 
ATOM     27  C   UNL     1       2.323   0.047  -0.189  0.00  0.00    +0.044 A 
ATOM     28  C   UNL     1       1.279  -0.388   0.617  0.00  0.00    +0.076 A 
ATOM     29  C   UNL     1       0.075   0.289   0.610  0.00  0.00    +0.014 A 
BRANCH  28  30
ATOM     30  C   UNL     1       1.459  -1.597   1.497  0.00  0.00    +0.419 C 
ATOM     31  F   UNL     1       0.278  -1.837   2.208  0.00  0.00    -0.166 F 
ATOM     32  F   UNL     1       1.760  -2.710   0.705  0.00  0.00    -0.166 F 
ATOM     33  F   UNL     1       2.506  -1.368   2.396  0.00  0.00    -0.166 F 
ENDBRANCH  28  30
ENDBRANCH  22  27
ENDBRANCH  20  22
ENDBRANCH  18  20
ENDBRANCH   1  18
TORSDOF 7
