REMARK  Name = ZINC58897467
REMARK  3 active torsions:
REMARK  status: ('A' for Active; 'I' for Inactive)
REMARK    1  A    between atoms: C_2  and  S_8
REMARK    2  A    between atoms: S_8  and  N_11
REMARK    3  A    between atoms: C_15  and  C_17
REMARK                            x       y       z     vdW  Elec       q    Type
REMARK                         _______ _______ _______ _____ _____    ______ ____
ROOT
ATOM      1  N   UNL     1       1.896   4.274   1.440  0.00  0.00    -0.166 NA
ATOM      2  C   UNL     1       1.173   4.525   2.700  0.00  0.00    +0.110 C 
ATOM      3  C   UNL     1       2.232   4.319   3.812  0.00  0.00    +0.019 C 
ATOM      4  C   UNL     1       3.503   4.907   3.145  0.00  0.00    +0.030 C 
ATOM      5  C   UNL     1       3.330   4.507   1.665  0.00  0.00    +0.148 C 
ENDROOT
BRANCH   5   6
ATOM      6  C   UNL     1       3.813   5.624   0.776  0.00  0.00    +0.152 A 
ATOM      7  N   UNL     1       3.216   6.769   0.574  0.00  0.00    -0.133 NA
ATOM      8  N   UNL     1       3.914   7.485  -0.238  0.00  0.00    -0.134 NA
ATOM      9  C   UNL     1       4.986   6.831  -0.585  0.00  0.00    +0.133 A 
ATOM     10  N   UNL     1       4.948   5.632   0.042  0.00  0.00    -0.313 N 
ATOM     11  C   UNL     1       5.935   4.558  -0.073  0.00  0.00    +0.125 C 
ATOM     12  C   UNL     1       7.306   5.159  -0.393  0.00  0.00    +0.022 C 
ATOM     13  C   UNL     1       7.478   5.272  -1.907  0.00  0.00    +0.002 C 
ATOM     14  C   UNL     1       6.417   6.195  -2.499  0.00  0.00    +0.008 C 
ATOM     15  C   UNL     1       6.083   7.303  -1.503  0.00  0.00    +0.076 C 
ENDBRANCH   5   6
BRANCH   1  16
ATOM     16  S   UNL     1       1.208   3.800   0.010  0.00  0.00    +0.063 S 
ATOM     17  O   UNL     1       2.099   4.200  -1.022  0.00  0.00    -0.153 OA
ATOM     18  O   UNL     1      -0.148   4.224   0.052  0.00  0.00    -0.153 OA
BRANCH  16  20
ATOM     19  C   UNL     1      -0.016   1.352   0.009  0.00  0.00    +0.057 A 
ATOM     20  C   UNL     1       1.185   2.038   0.002  0.00  0.00    +0.132 A 
ATOM     21  C   UNL     1       2.344   1.335  -0.013  0.00  0.00    +0.106 A 
ATOM     22  S   UNL     1       1.753  -0.350  -0.017  0.00  0.00    -0.063 S 
ATOM     23  C   UNL     1       0.002  -0.004   0.002  0.00  0.00    +0.081 A 
ATOM     24 CL   UNL     1      -1.332  -1.115   0.010  0.00  0.00    -0.076 Cl
ATOM     25 CL   UNL     1       3.978   1.920  -0.026  0.00  0.00    -0.074 Cl
ENDBRANCH  16  20
ENDBRANCH   1  16
TORSDOF 3
