REMARK  Name = ZINC34733318
REMARK  6 active torsions:
REMARK  status: ('A' for Active; 'I' for Inactive)
REMARK    1  A    between atoms: C_1  and  C_2
REMARK    2  A    between atoms: C_6  and  C_8
REMARK    3  A    between atoms: C_12  and  C_22
REMARK    4  A    between atoms: N_18  and  C_19
REMARK    5  A    between atoms: C_19  and  C_20
REMARK    6  A    between atoms: C_19  and  C_21
REMARK                            x       y       z     vdW  Elec       q    Type
REMARK                         _______ _______ _______ _____ _____    ______ ____
ROOT
ATOM      1  C   UNL     1      -0.227  -2.735   2.582  0.00  0.00    +0.108 C 
ATOM      2  C   UNL     1      -1.601  -3.386   2.770  0.00  0.00    +0.028 C 
ATOM      3  C   UNL     1      -1.569  -4.288   4.005  0.00  0.00    +0.016 C 
ATOM      4  C   UNL     1      -0.533  -5.396   3.803  0.00  0.00    +0.093 C 
ATOM      5  C   UNL     1       0.853  -4.768   3.626  0.00  0.00    +0.122 C 
ATOM      6  N   UNL     1       0.796  -3.788   2.532  0.00  0.00    -0.278 N 
ATOM      7  C   UNL     1       1.662  -3.857   1.502  0.00  0.00    +0.303 C 
ATOM      8  O   UNL     1       1.669  -2.984   0.655  0.00  0.00    -0.253 OA
ATOM      9  N   UNL     1       2.520  -4.892   1.411  0.00  0.00    -0.297 N 
ATOM     10  H   UNL     1       2.567  -5.547   2.124  0.00  0.00    +0.150 HD
ENDROOT
BRANCH   4  11
ATOM     11  C   UNL     1      -0.525  -6.304   5.006  0.00  0.00    +0.220 C 
ATOM     12  O   UNL     1       0.315  -6.159   5.869  0.00  0.00    -0.275 OA
ATOM     13  N   UNL     1      -1.451  -7.276   5.123  0.00  0.00    -0.300 N 
ATOM     14  C   UNL     1      -2.388  -7.517   4.025  0.00  0.00    +0.118 C 
ATOM     15  C   UNL     1      -2.126  -8.903   3.424  0.00  0.00    +0.088 C 
ATOM     16  S   UNL     1      -2.275 -10.146   4.743  0.00  0.00    -0.158 S 
ATOM     17  C   UNL     1      -1.140  -9.530   6.022  0.00  0.00    +0.088 C 
ATOM     18  C   UNL     1      -1.504  -8.081   6.344  0.00  0.00    +0.118 C 
ENDBRANCH   4  11
BRANCH   1  24
ATOM     19  C   UNL     1       0.265   1.615   0.156  0.00  0.00    +0.044 C 
ATOM     20  C   UNL     1       0.024   0.128   0.132  0.00  0.00    -0.050 A 
ATOM     21  C   UNL     1      -0.181  -0.521  -1.071  0.00  0.00    +0.003 A 
ATOM     22  C   UNL     1      -0.402  -1.885  -1.093  0.00  0.00    +0.001 A 
ATOM     23  C   UNL     1      -0.417  -2.601   0.089  0.00  0.00    +0.005 A 
ATOM     24  C   UNL     1      -0.211  -1.954   1.293  0.00  0.00    -0.027 A 
ATOM     25  C   UNL     1       0.014  -0.590   1.314  0.00  0.00    +0.008 A 
ENDBRANCH   1  24
BRANCH   9  26
ATOM     26  C   UNL     1       3.382  -5.027   0.234  0.00  0.00    +0.068 C 
ATOM     27  C   UNL     1       4.629  -5.832   0.604  0.00  0.00    +0.027 C 
ATOM     28  C   UNL     1       2.618  -5.752  -0.877  0.00  0.00    +0.027 C 
ENDBRANCH   9  26
TORSDOF 3
