REMARK  Name = ZINC59741070
REMARK  9 active torsions:
REMARK  status: ('A' for Active; 'I' for Inactive)
REMARK    1  A    between atoms: C_1  and  C_2
REMARK    2  A    between atoms: C_2  and  C_3
REMARK    3  A    between atoms: C_2  and  C_4
REMARK    4  A    between atoms: C_2  and  C_5
REMARK    5  A    between atoms: C_11  and  C_14
REMARK    6  A    between atoms: C_20  and  C_22
REMARK    7  A    between atoms: C_22  and  C_23
REMARK    8  A    between atoms: C_26  and  O_29
REMARK    9  A    between atoms: O_29  and  C_30
REMARK                            x       y       z     vdW  Elec       q    Type
REMARK                         _______ _______ _______ _____ _____    ______ ____
ROOT
ATOM      1  C   UNL     1      -0.158  -5.392  -2.898  0.00  0.00    +0.223 C 
ATOM      2  O   UNL     1       0.996  -5.498  -3.256  0.00  0.00    -0.275 OA
ATOM      3  N   UNL     1      -1.075  -6.292  -3.304  0.00  0.00    -0.263 N 
ATOM      4  C   UNL     1      -0.698  -7.343  -4.133  0.00  0.00    +0.188 A 
ATOM      5  N   UNL     1       0.493  -7.632  -4.620  0.00  0.00    -0.126 NA
ATOM      6  N   UNL     1       0.684  -8.632  -5.369  0.00  0.00    -0.144 NA
ATOM      7  C   UNL     1      -0.336  -9.410  -5.672  0.00  0.00    +0.108 A 
ATOM      8  S   UNL     1      -1.642  -8.585  -4.771  0.00  0.00    -0.035 S 
ATOM      9  H   UNL     1      -1.998  -6.207  -3.018  0.00  0.00    +0.157 HD
ENDROOT
BRANCH   1  16
ATOM     10  C   UNL     1       0.497  -1.052  -0.957  0.00  0.00    +0.221 C 
ATOM     11  O   UNL     1       1.105  -0.722  -1.953  0.00  0.00    -0.275 OA
ATOM     12  N   UNL     1       0.268  -2.357  -0.710  0.00  0.00    -0.300 N 
ATOM     13  C   UNL     1      -0.375  -2.780   0.542  0.00  0.00    +0.108 C 
ATOM     14  C   UNL     1      -1.585  -3.656   0.204  0.00  0.00    +0.020 C 
ATOM     15  C   UNL     1      -1.139  -4.811  -0.695  0.00  0.00    +0.016 C 
ATOM     16  C   UNL     1      -0.567  -4.253  -2.000  0.00  0.00    +0.093 C 
ATOM     17  C   UNL     1       0.650  -3.383  -1.689  0.00  0.00    +0.120 C 
BRANCH  10  19
ATOM     18  C   UNL     1       0.354   1.386  -0.527  0.00  0.00    +0.020 C 
ATOM     19  C   UNL     1      -0.002  -0.004   0.004  0.00  0.00    +0.039 C 
ATOM     20  C   UNL     1       0.655  -0.211   1.371  0.00  0.00    +0.020 C 
ATOM     21  C   UNL     1      -1.520  -0.123   0.145  0.00  0.00    +0.020 C 
ENDBRANCH  10  19
ENDBRANCH   1  16
BRANCH   7  22
ATOM     22  C   UNL     1      -0.386 -10.648  -6.530  0.00  0.00    +0.100 C 
BRANCH  22  23
ATOM     23  C   UNL     1      -0.132 -11.862  -5.675  0.00  0.00    -0.041 A 
ATOM     24  C   UNL     1       1.161 -12.317  -5.489  0.00  0.00    +0.007 A 
ATOM     25  C   UNL     1       1.397 -13.430  -4.707  0.00  0.00    +0.046 A 
ATOM     26  C   UNL     1       0.337 -14.092  -4.106  0.00  0.00    +0.120 A 
ATOM     27  C   UNL     1      -0.960 -13.634  -4.293  0.00  0.00    +0.046 A 
ATOM     28  C   UNL     1      -1.190 -12.517  -5.073  0.00  0.00    +0.007 A 
BRANCH  26  29
ATOM     29  O   UNL     1       0.566 -15.188  -3.336  0.00  0.00    -0.495 OA
ATOM     30  C   UNL     1      -0.574 -15.819  -2.749  0.00  0.00    +0.277 C 
ENDBRANCH  26  29
ENDBRANCH  22  23
ENDBRANCH   7  22
TORSDOF 5
