REMARK  Name = ZINC09187253
REMARK  5 active torsions:
REMARK  status: ('A' for Active; 'I' for Inactive)
REMARK    1  A    between atoms: C_1  and  C_2
REMARK    2  A    between atoms: C_8  and  C_24
REMARK    3  A    between atoms: C_28  and  O_30
REMARK    4  A    between atoms: O_30  and  C_31
REMARK    5  A    between atoms: C_31  and  C_32
REMARK                            x       y       z     vdW  Elec       q    Type
REMARK                         _______ _______ _______ _____ _____    ______ ____
ROOT
ATOM      1  C   UNL     1      -1.295  -2.656  -5.525  0.00  0.00    +0.089 C 
ATOM      2  C   UNL     1      -1.630  -3.421  -4.271  0.00  0.00    +0.136 A 
ATOM      3  C   UNL     1      -1.799  -2.906  -3.031  0.00  0.00    +0.091 A 
ATOM      4  C   UNL     1      -2.094  -4.039  -2.227  0.00  0.00    +0.172 A 
ATOM      5  N   UNL     1      -2.081  -5.071  -3.031  0.00  0.00    -0.063 NA
ATOM      6  O   UNL     1      -1.826  -4.743  -4.167  0.00  0.00    -0.358 OA
ATOM      7  N   UNL     1      -2.350  -4.049  -0.857  0.00  0.00    -0.235 N 
ATOM      8  C   UNL     1      -2.462  -2.869   0.009  0.00  0.00    +0.151 C 
ATOM      9  C   UNL     1      -2.744  -3.395   1.392  0.00  0.00    +0.072 A 
ATOM     10  C   UNL     1      -2.956  -2.733   2.682  0.00  0.00    +0.199 A 
ATOM     11  O   UNL     1      -2.924  -1.520   2.791  0.00  0.00    -0.287 OA
ATOM     12  C   UNL     1      -3.211  -3.609   3.843  0.00  0.00    +0.067 A 
ATOM     13  C   UNL     1      -3.425  -3.084   5.116  0.00  0.00    +0.053 A 
ATOM     14  C   UNL     1      -3.659  -3.939   6.173  0.00  0.00    +0.124 A 
ATOM     15  C   UNL     1      -3.680  -5.314   5.967  0.00  0.00    +0.042 A 
ATOM     16  C   UNL     1      -3.470  -5.842   4.713  0.00  0.00    +0.050 A 
ATOM     17  C   UNL     1      -3.232  -4.998   3.632  0.00  0.00    +0.140 A 
ATOM     18  O   UNL     1      -3.024  -5.505   2.402  0.00  0.00    -0.450 OA
ATOM     19  C   UNL     1      -2.788  -4.748   1.313  0.00  0.00    +0.199 A 
ATOM     20  C   UNL     1      -2.541  -5.141  -0.097  0.00  0.00    +0.289 C 
ATOM     21  O   UNL     1      -2.514  -6.285  -0.504  0.00  0.00    -0.266 OA
ATOM     22  F   UNL     1      -3.867  -3.440   7.411  0.00  0.00    -0.205 F 
ENDROOT
BRANCH   8  23
ATOM     23  C   UNL     1      -1.168  -2.096   0.001  0.00  0.00    -0.019 A 
ATOM     24  C   UNL     1       0.040  -2.770  -0.013  0.00  0.00    +0.006 A 
ATOM     25  C   UNL     1       1.228  -2.064  -0.021  0.00  0.00    +0.004 A 
ATOM     26  C   UNL     1       1.212  -0.682  -0.013  0.00  0.00    +0.045 A 
ATOM     27  C   UNL     1       0.002  -0.004   0.002  0.00  0.00    +0.121 A 
ATOM     28  C   UNL     1      -1.189  -0.715   0.015  0.00  0.00    +0.051 A 
BRANCH  27  29
ATOM     29  O   UNL     1      -0.016   1.355   0.009  0.00  0.00    -0.488 OA
BRANCH  29  30
ATOM     30  C   UNL     1       1.248   2.021   0.001  0.00  0.00    +0.256 C 
BRANCH  30  31
ATOM     31  C   UNL     1       1.030   3.512   0.011  0.00  0.00    +0.006 C 
ATOM     32  C   UNL     1       1.737   4.272   0.811  0.00  0.00    +0.007 C 
ENDBRANCH  30  31
ENDBRANCH  29  30
ENDBRANCH  27  29
ENDBRANCH   8  23
TORSDOF 4
