REMARK  Name = ZINC49398164
REMARK  6 active torsions:
REMARK  status: ('A' for Active; 'I' for Inactive)
REMARK    1  A    between atoms: C_1  and  C_2
REMARK    2  A    between atoms: C_5  and  C_26
REMARK    3  A    between atoms: C_6  and  O_8
REMARK    4  A    between atoms: O_8  and  C_9
REMARK    5  A    between atoms: C_9  and  C_11
REMARK    6  A    between atoms: C_11  and  N_12
REMARK                            x       y       z     vdW  Elec       q    Type
REMARK                         _______ _______ _______ _____ _____    ______ ____
ROOT
ATOM      1  C   UNL     1       0.151  -2.060   3.507  0.00  0.00    +0.332 C 
ATOM      2  O   UNL     1       0.133  -0.853   3.473  0.00  0.00    -0.249 OA
ENDROOT
BRANCH   1   3
ATOM      3  O   UNL     1       0.052  -2.766   2.369  0.00  0.00    -0.424 OA
BRANCH   3   9
ATOM      4  C   UNL     1      -2.490  -0.631  -1.205  0.00  0.00    +0.044 C 
ATOM      5  C   UNL     1      -1.177  -1.025  -0.579  0.00  0.00    -0.047 A 
ATOM      6  C   UNL     1       0.013  -0.689  -1.206  0.00  0.00    +0.004 A 
ATOM      7  C   UNL     1       1.219  -1.044  -0.642  0.00  0.00    +0.017 A 
ATOM      8  C   UNL     1       1.244  -1.746   0.565  0.00  0.00    +0.079 A 
ATOM      9  C   UNL     1       0.039  -2.084   1.195  0.00  0.00    +0.144 A 
ATOM     10  C   UNL     1      -1.166  -1.714   0.617  0.00  0.00    +0.050 A 
BRANCH   8  11
ATOM     11  C   UNL     1       2.533  -2.131   1.173  0.00  0.00    +0.245 C 
ATOM     12  O   UNL     1       2.551  -2.741   2.224  0.00  0.00    -0.270 OA
ATOM     13  N   UNL     1       3.690  -1.804   0.563  0.00  0.00    -0.325 N 
ATOM     14  H   UNL     1       3.675  -1.317  -0.275  0.00  0.00    +0.145 HD
ATOM     15  H   UNL     1       4.537  -2.057   0.963  0.00  0.00    +0.145 HD
ENDBRANCH   8  11
ENDBRANCH   3   9
ENDBRANCH   1   3
BRANCH   1  16
ATOM     16  C   UNL     1       0.285  -2.775   4.827  0.00  0.00    +0.252 C 
BRANCH  16  17
ATOM     17  N   UNL     1       0.376  -1.790   5.908  0.00  0.00    -0.192 N 
ATOM     18  C   UNL     1       1.529  -1.129   6.362  0.00  0.00    +0.061 A 
ATOM     19  C   UNL     1       2.833  -1.263   5.887  0.00  0.00    +0.025 A 
ATOM     20  C   UNL     1       3.873  -0.532   6.448  0.00  0.00    +0.002 A 
ATOM     21  C   UNL     1       3.680   0.343   7.477  0.00  0.00    +0.009 A 
ATOM     22  C   UNL     1       2.382   0.512   7.989  0.00  0.00    -0.014 A 
ATOM     23  C   UNL     1       1.334  -0.235   7.412  0.00  0.00    +0.031 A 
ATOM     24  C   UNL     1       0.028  -0.095   7.896  0.00  0.00    +0.118 A 
ATOM     25  C   UNL     1      -0.240   0.749   8.909  0.00  0.00    +0.029 A 
ATOM     26  C   UNL     1       0.794   1.496   9.487  0.00  0.00    +0.003 A 
ATOM     27  C   UNL     1       2.080   1.386   9.046  0.00  0.00    +0.009 A 
ATOM     28  S   UNL     1      -0.877  -1.210   6.860  0.00  0.00    +0.076 S 
ATOM     29  O   UNL     1      -1.731  -0.437   6.029  0.00  0.00    -0.150 OA
ATOM     30  O   UNL     1      -1.334  -2.281   7.675  0.00  0.00    -0.150 OA
ENDBRANCH  16  17
ENDBRANCH   1  16
TORSDOF 5
