REMARK  Name = ZINC32869506
REMARK  8 active torsions:
REMARK  status: ('A' for Active; 'I' for Inactive)
REMARK    1  A    between atoms: C_1  and  O_2
REMARK    2  A    between atoms: O_2  and  C_3
REMARK    3  A    between atoms: C_6  and  C_11
REMARK    4  A    between atoms: C_8  and  O_9
REMARK    5  A    between atoms: O_9  and  C_10
REMARK    6  A    between atoms: C_11  and  C_12
REMARK    7  A    between atoms: C_12  and  N_13
REMARK    8  A    between atoms: C_17  and  C_20
REMARK                            x       y       z     vdW  Elec       q    Type
REMARK                         _______ _______ _______ _____ _____    ______ ____
ROOT
ATOM      1  N   UNL     1      -4.300   4.828  -1.375  0.00  0.00    -0.366 N 
ATOM      2  C   UNL     1      -4.912   5.167  -2.556  0.00  0.00    +0.148 C 
ATOM      3  N   UNL     1      -4.352   4.857  -3.702  0.00  0.00    -0.217 N 
ATOM      4  N   UNL     1      -4.827   5.135  -4.847  0.00  0.00    -0.184 NA
ATOM      5  C   UNL     1      -5.692   6.050  -5.132  0.00  0.00    +0.077 C 
ATOM      6  C   UNL     1      -6.257   6.971  -4.078  0.00  0.00    +0.134 C 
ATOM      7  S   UNL     1      -6.460   6.017  -2.543  0.00  0.00    -0.085 S 
ATOM      8  H   UNL     1      -3.398   4.314  -3.619  0.00  0.00    +0.176 HD
ATOM      9  H   UNL     1      -4.772   5.090  -0.416  0.00  0.00    +0.161 HD
ENDROOT
BRANCH   5  10
ATOM     10  C   UNL     1      -6.140   6.200  -6.525  0.00  0.00    -0.001 A 
ATOM     11  C   UNL     1      -7.077   7.184  -6.859  0.00  0.00    +0.011 A 
ATOM     12  C   UNL     1      -7.493   7.321  -8.165  0.00  0.00    +0.024 A 
ATOM     13  C   UNL     1      -6.985   6.482  -9.151  0.00  0.00    +0.037 A 
ATOM     14  C   UNL     1      -6.054   5.502  -8.823  0.00  0.00    -0.025 A 
ATOM     15  C   UNL     1      -5.627   5.362  -7.521  0.00  0.00    +0.015 A 
ATOM     16  C   UNL     1      -5.509   4.597  -9.897  0.00  0.00    +0.046 C 
ATOM     17  C   UNL     1      -6.595   4.327 -10.938  0.00  0.00    +0.101 C 
ATOM     18  C   UNL     1      -7.235   5.623 -11.358  0.00  0.00    +0.218 C 
ATOM     19  O   UNL     1      -7.597   5.768 -12.507  0.00  0.00    -0.275 OA
ATOM     20  N   UNL     1      -7.410   6.623 -10.475  0.00  0.00    -0.285 N 
ATOM     21  H   UNL     1      -7.891   7.556 -10.802  0.00  0.00    +0.155 HD
ENDBRANCH   5  10
BRANCH   1  22
ATOM     22  C   UNL     1      -3.019   4.118  -1.390  0.00  0.00    +0.119 C 
BRANCH  22  23
ATOM     23  C   UNL     1      -2.559   3.864   0.047  0.00  0.00    +0.056 C 
BRANCH  23  27
ATOM     24  C   UNL     1       1.178   1.785   0.000  0.00  0.00    +0.161 A 
ATOM     25  C   UNL     1      -0.013   1.076   0.008  0.00  0.00    +0.049 A 
ATOM     26  C   UNL     1      -1.219   1.751   0.017  0.00  0.00    +0.007 A 
ATOM     27  C   UNL     1      -1.241   3.133   0.031  0.00  0.00    -0.042 A 
ATOM     28  C   UNL     1      -0.057   3.846   0.023  0.00  0.00    +0.053 A 
ATOM     29  C   UNL     1       1.155   3.176   0.008  0.00  0.00    +0.162 A 
BRANCH  24  31
ATOM     30  C   UNL     1       2.312  -0.305  -0.023  0.00  0.00    +0.277 C 
ATOM     31  O   UNL     1       2.365   1.123  -0.015  0.00  0.00    -0.491 OA
ENDBRANCH  24  31
BRANCH  29  32
ATOM     32  O   UNL     1       2.321   3.877   0.001  0.00  0.00    -0.491 OA
ATOM     33  C   UNL     1       2.222   5.302   0.010  0.00  0.00    +0.277 C 
ENDBRANCH  29  32
ENDBRANCH  23  27
ENDBRANCH  22  23
ENDBRANCH   1  22
TORSDOF 6
