REMARK  Name = ZINC10708611
REMARK  6 active torsions:
REMARK  status: ('A' for Active; 'I' for Inactive)
REMARK    1  A    between atoms: C_4  and  C_7
REMARK    2  A    between atoms: N_12  and  C_15
REMARK    3  A    between atoms: C_15  and  C_16
REMARK    4  A    between atoms: C_16  and  C_17
REMARK    5  A    between atoms: C_20  and  S_23
REMARK    6  A    between atoms: S_23  and  N_26
REMARK                            x       y       z     vdW  Elec       q    Type
REMARK                         _______ _______ _______ _____ _____    ______ ____
ROOT
ATOM      1  C   UNL     1      -0.077   3.731   0.023  0.00  0.00    +0.142 C 
ATOM      2  C   UNL     1       1.236   2.975   0.006  0.00  0.00    +0.058 C 
ATOM      3  C   UNL     1       1.184   1.628  -0.001  0.00  0.00    +0.039 C 
ATOM      4  C   UNL     1       2.617   1.146  -0.016  0.00  0.00    +0.159 C 
ATOM      5  N   UNL     1       3.428   2.373  -0.017  0.00  0.00    -0.292 N 
ATOM      6  C   UNL     1       2.576   3.414  -0.004  0.00  0.00    +0.247 C 
ATOM      7  O   UNL     1       2.917   4.582  -0.001  0.00  0.00    -0.270 OA
ATOM      8  N   UNL     1      -0.011   0.966   0.007  0.00  0.00    -0.271 N 
ATOM      9  C   UNL     1      -1.200   1.583   0.017  0.00  0.00    +0.304 C 
ATOM     10  O   UNL     1      -2.212   0.910   0.018  0.00  0.00    -0.252 OA
ATOM     11  N   UNL     1      -1.310   2.926   0.030  0.00  0.00    -0.288 N 
ATOM     12  H   UNL     1       0.002  -0.004   0.002  0.00  0.00    +0.156 HD
ATOM     13  H   UNL     1      -2.181   3.352   0.041  0.00  0.00    +0.151 HD
ENDROOT
BRANCH   1  17
ATOM     14  C   UNL     1      -0.181   6.265  -3.415  0.00  0.00    +0.000 A 
ATOM     15  C   UNL     1       0.153   6.788  -2.180  0.00  0.00    +0.000 A 
ATOM     16  C   UNL     1       0.187   5.969  -1.068  0.00  0.00    +0.006 A 
ATOM     17  C   UNL     1      -0.114   4.625  -1.190  0.00  0.00    -0.023 A 
ATOM     18  C   UNL     1      -0.443   4.100  -2.426  0.00  0.00    +0.006 A 
ATOM     19  C   UNL     1      -0.481   4.921  -3.537  0.00  0.00    +0.000 A 
ENDBRANCH   1  17
BRANCH   5  20
ATOM     20  C   UNL     1       4.891   2.447  -0.030  0.00  0.00    +0.113 C 
BRANCH  20  21
ATOM     21  C   UNL     1       5.414   2.466   1.408  0.00  0.00    +0.054 C 
BRANCH  21  22
ATOM     22  C   UNL     1       6.918   2.542   1.394  0.00  0.00    -0.046 A 
ATOM     23  C   UNL     1       7.670   1.382   1.387  0.00  0.00    +0.005 A 
ATOM     24  C   UNL     1       9.050   1.452   1.371  0.00  0.00    +0.029 A 
ATOM     25  C   UNL     1       9.680   2.683   1.370  0.00  0.00    +0.105 A 
ATOM     26  C   UNL     1       8.928   3.844   1.382  0.00  0.00    +0.029 A 
ATOM     27  C   UNL     1       7.548   3.773   1.394  0.00  0.00    +0.005 A 
BRANCH  25  28
ATOM     28  S   UNL     1      11.439   2.773   1.353  0.00  0.00    +0.056 S 
ATOM     29  O   UNL     1      11.903   1.552   0.793  0.00  0.00    -0.153 OA
ATOM     30  O   UNL     1      11.776   4.039   0.805  0.00  0.00    -0.153 OA
BRANCH  28  31
ATOM     31  N   UNL     1      11.943   2.791   2.931  0.00  0.00    -0.204 NA
ATOM     32  H   UNL     1      11.292   2.754   3.649  0.00  0.00    +0.144 HD
ATOM     33  H   UNL     1      12.890   2.838   3.137  0.00  0.00    +0.144 HD
ENDBRANCH  28  31
ENDBRANCH  25  28
ENDBRANCH  21  22
ENDBRANCH  20  21
ENDBRANCH   5  20
TORSDOF 6
