REMARK  Name = ZINC46032350
REMARK  8 active torsions:
REMARK  status: ('A' for Active; 'I' for Inactive)
REMARK    1  A    between atoms: C_1  and  C_2
REMARK    2  A    between atoms: C_2  and  C_3
REMARK    3  A    between atoms: C_3  and  N_4
REMARK    4  A    between atoms: N_4  and  C_5
REMARK    5  A    between atoms: N_4  and  C_11
REMARK    6  A    between atoms: C_5  and  C_6
REMARK    7  A    between atoms: C_11  and  C_12
REMARK    8  A    between atoms: C_20  and  C_22
REMARK                            x       y       z     vdW  Elec       q    Type
REMARK                         _______ _______ _______ _____ _____    ______ ____
ROOT
ATOM      1  C   UNL     1       3.153  -1.958  -1.956  0.00  0.00    +0.033 A 
ATOM      2  C   UNL     1       4.179  -2.809  -1.604  0.00  0.00    +0.093 A 
ATOM      3  C   UNL     1       5.455  -2.296  -1.372  0.00  0.00    +0.275 A 
ATOM      4  O   UNL     1       6.368  -3.045  -1.060  0.00  0.00    -0.266 OA
ATOM      5  N   UNL     1       5.681  -0.955  -1.495  0.00  0.00    -0.171 N 
ATOM      6  C   UNL     1       4.608  -0.184  -1.848  0.00  0.00    +0.199 A 
ATOM      7  N   UNL     1       3.409  -0.658  -2.073  0.00  0.00    -0.228 NA
ATOM      8  S   UNL     1       5.310   1.451  -1.898  0.00  0.00    -0.032 S 
ATOM      9  C   UNL     1       6.978   1.003  -1.447  0.00  0.00    +0.105 A 
ATOM     10  N   UNL     1       6.885  -0.284  -1.300  0.00  0.00    -0.159 NA
ENDROOT
BRANCH   9  11
ATOM     11  C   UNL     1       8.185   1.890  -1.280  0.00  0.00    +0.047 C 
ATOM     12  C   UNL     1       9.457   1.069  -1.506  0.00  0.00    +0.010 C 
ATOM     13  C   UNL     1      10.682   1.970  -1.337  0.00  0.00    +0.001 C 
ATOM     14  C   UNL     1      10.695   2.553   0.078  0.00  0.00    +0.000 C 
ATOM     15  C   UNL     1       9.424   3.374   0.303  0.00  0.00    +0.001 C 
ATOM     16  C   UNL     1       8.199   2.473   0.134  0.00  0.00    +0.010 C 
ENDBRANCH   9  11
BRANCH   1  17
ATOM     17  C   UNL     1       1.767  -2.493  -2.212  0.00  0.00    -0.022 C 
BRANCH  17  18
ATOM     18  N   UNL     1       0.843  -1.959  -1.202  0.00  0.00    +0.388 N 
ATOM     19  H   UNL     1       1.193  -2.173  -0.280  0.00  0.00    -0.081 HD
BRANCH  18  20
ATOM     20  C   UNL     1       0.733  -0.503  -1.359  0.00  0.00    -0.078 C 
BRANCH  20  22
ATOM     21  C   UNL     1      -0.154   1.593  -0.328  0.00  0.00    +0.002 C 
ATOM     22  C   UNL     1      -0.151   0.065  -0.246  0.00  0.00    -0.022 C 
ENDBRANCH  20  22
ENDBRANCH  18  20
BRANCH  18  23
ATOM     23  C   UNL     1      -0.481  -2.572  -1.377  0.00  0.00    -0.003 C 
BRANCH  23  24
ATOM     24  C   UNL     1      -0.394  -4.047  -1.083  0.00  0.00    +0.089 A 
ATOM     25  C   UNL     1      -0.486  -4.614   0.134  0.00  0.00    +0.042 A 
ATOM     26  C   UNL     1      -0.351  -6.009  -0.053  0.00  0.00    +0.041 A 
ATOM     27  C   UNL     1      -0.186  -6.211  -1.373  0.00  0.00    +0.195 A 
ATOM     28  O   UNL     1      -0.219  -5.020  -1.992  0.00  0.00    -0.470 OA
ENDBRANCH  23  24
ENDBRANCH  18  23
ENDBRANCH  17  18
ENDBRANCH   1  17
TORSDOF 7
