REMARK  Name = ZINC04393250
REMARK  8 active torsions:
REMARK  status: ('A' for Active; 'I' for Inactive)
REMARK    1  A    between atoms: C_1  and  C_2
REMARK    2  A    between atoms: C_2  and  C_32
REMARK    3  A    between atoms: C_9  and  C_21
REMARK    4  A    between atoms: C_17  and  C_19
REMARK    5  A    between atoms: C_17  and  C_20
REMARK    6  A    between atoms: N_23  and  C_24
REMARK    7  A    between atoms: C_29  and  S_30
REMARK    8  A    between atoms: S_30  and  C_31
REMARK                            x       y       z     vdW  Elec       q    Type
REMARK                         _______ _______ _______ _____ _____    ______ ____
ROOT
ATOM      1  C   UNL     1      -3.235  -2.677  -2.361  0.00  0.00    +0.074 C 
ATOM      2  C   UNL     1      -1.855  -3.206  -1.963  0.00  0.00    +0.166 C 
ATOM      3  O   UNL     1      -1.623  -4.479  -2.596  0.00  0.00    -0.341 OA
ATOM      4  C   UNL     1      -2.001  -5.443  -1.597  0.00  0.00    +0.187 C 
ATOM      5  C   UNL     1      -1.489  -4.777  -0.295  0.00  0.00    +0.191 C 
ATOM      6  O   UNL     1      -1.798  -3.381  -0.540  0.00  0.00    -0.340 OA
ATOM      7  C   UNL     1       0.027  -4.878  -0.154  0.00  0.00    +0.238 C 
ATOM      8  O   UNL     1       0.541  -6.178  -0.463  0.00  0.00    -0.333 OA
ATOM      9  C   UNL     1       0.203  -6.554  -1.786  0.00  0.00    +0.286 C 
ATOM     10  C   UNL     1      -1.335  -6.775  -1.785  0.00  0.00    +0.209 C 
ATOM     11  O   UNL     1      -1.507  -7.433  -3.042  0.00  0.00    -0.338 OA
ATOM     12  C   UNL     1      -0.373  -8.335  -3.103  0.00  0.00    +0.168 C 
ATOM     13  O   UNL     1       0.695  -7.798  -2.271  0.00  0.00    -0.318 OA
ATOM     14  C   UNL     1      -0.788  -9.719  -2.602  0.00  0.00    +0.074 C 
ATOM     15  C   UNL     1       0.125  -8.437  -4.546  0.00  0.00    +0.074 C 
ATOM     16  C   UNL     1      -0.777  -2.213  -2.403  0.00  0.00    +0.074 C 
ENDROOT
BRANCH   7  17
ATOM     17  C   UNL     1       0.666  -3.874  -1.079  0.00  0.00    +0.249 C 
ATOM     18  O   UNL     1       0.981  -4.200  -2.204  0.00  0.00    -0.273 OA
ATOM     19  N   UNL     1       0.889  -2.614  -0.655  0.00  0.00    -0.282 N 
ATOM     20  H   UNL     1       0.646  -2.356   0.248  0.00  0.00    +0.155 HD
BRANCH  19  21
ATOM     21  C   UNL     1       1.472  -1.677  -1.519  0.00  0.00    +0.047 A 
ATOM     22  C   UNL     1       2.191  -2.103  -2.624  0.00  0.00    +0.024 A 
ATOM     23  C   UNL     1       2.765  -1.177  -3.476  0.00  0.00    +0.002 A 
ATOM     24  C   UNL     1       2.623   0.176  -3.229  0.00  0.00    +0.001 A 
ATOM     25  C   UNL     1       1.903   0.611  -2.132  0.00  0.00    +0.016 A 
ATOM     26  C   UNL     1       1.329  -0.311  -1.269  0.00  0.00    +0.029 A 
BRANCH  26  27
ATOM     27  S   UNL     1       0.416   0.240   0.134  0.00  0.00    -0.127 S 
ATOM     28  C   UNL     1       0.509   2.049   0.035  0.00  0.00    +0.090 C 
ENDBRANCH  26  27
ENDBRANCH  19  21
ENDBRANCH   7  17
TORSDOF 3
