REMARK  Name = ZINC00709762
REMARK  8 active torsions:
REMARK  status: ('A' for Active; 'I' for Inactive)
REMARK    1  A    between atoms: C_1  and  O_2
REMARK    2  A    between atoms: O_2  and  C_3
REMARK    3  A    between atoms: C_5  and  C_17
REMARK    4  A    between atoms: C_8  and  O_9
REMARK    5  A    between atoms: O_9  and  C_10
REMARK    6  A    between atoms: C_10  and  C_12
REMARK    7  A    between atoms: C_19  and  C_30
REMARK    8  A    between atoms: C_20  and  N_29
REMARK                            x       y       z     vdW  Elec       q    Type
REMARK                         _______ _______ _______ _____ _____    ______ ____
ROOT
ATOM      1  C   UNL     1      -5.997   2.249  -0.004  0.00  0.00    +0.163 A 
ATOM      2  C   UNL     1      -7.221   1.601   0.005  0.00  0.00    +0.054 A 
ATOM      3  C   UNL     1      -7.272   0.220   0.059  0.00  0.00    -0.031 A 
ATOM      4  C   UNL     1      -6.103  -0.516   0.103  0.00  0.00    +0.008 A 
ATOM      5  C   UNL     1      -4.878   0.124   0.087  0.00  0.00    +0.050 A 
ATOM      6  C   UNL     1      -4.820   1.508   0.040  0.00  0.00    +0.173 A 
ENDROOT
BRANCH   3   7
ATOM      7  C   UNL     1      -8.604  -0.484   0.068  0.00  0.00    +0.101 C 
ATOM      8  C   UNL     1      -8.704  -1.379  -1.135  0.00  0.00    +0.098 C 
ATOM      9  C   UNL     1      -8.511  -2.715  -1.013  0.00  0.00    +0.198 C 
ATOM     10  O   UNL     1      -8.225  -3.274   0.173  0.00  0.00    -0.445 OA
ATOM     11  C   UNL     1      -8.544  -2.630   1.311  0.00  0.00    +0.115 C 
ATOM     12  C   UNL     1      -8.731  -1.298   1.333  0.00  0.00    +0.046 C 
ATOM     13  C   UNL     1      -9.047  -0.623   2.528  0.00  0.00    +0.163 C 
ATOM     14  O   UNL     1      -9.224   0.579   2.505  0.00  0.00    -0.292 OA
ATOM     15  C   UNL     1      -9.169  -1.363   3.832  0.00  0.00    +0.080 C 
ATOM     16  C   UNL     1      -8.275  -2.607   3.782  0.00  0.00    +0.016 C 
ATOM     17  C   UNL     1      -8.684  -3.450   2.573  0.00  0.00    +0.075 C 
BRANCH   9  18
ATOM     18  N   UNL     1      -8.611  -3.513  -2.126  0.00  0.00    -0.328 N 
ATOM     19  H   UNL     1      -8.475  -4.470  -2.050  0.00  0.00    +0.145 HD
ATOM     20  H   UNL     1      -8.818  -3.119  -2.988  0.00  0.00    +0.145 HD
ENDBRANCH   9  18
BRANCH   8  21
ATOM     21  C   UNL     1      -9.005  -0.817  -2.417  0.00  0.00    +0.101 C 
ATOM     22  N   UNL     1      -9.243  -0.372  -3.435  0.00  0.00    -0.191 NA
ENDBRANCH   8  21
ENDBRANCH   3   7
BRANCH   1  24
ATOM     23  C   UNL     1      -7.193   4.302  -0.101  0.00  0.00    +0.277 C 
ATOM     24  O   UNL     1      -5.946   3.607  -0.058  0.00  0.00    -0.491 OA
ENDBRANCH   1  24
BRANCH   6  25
ATOM     25  O   UNL     1      -3.616   2.140   0.031  0.00  0.00    -0.418 OA
BRANCH  25  26
ATOM     26  C   UNL     1      -3.128   2.545   1.221  0.00  0.00    +0.351 C 
ATOM     27  O   UNL     1      -3.800   2.423   2.227  0.00  0.00    -0.244 OA
BRANCH  26  28
ATOM     28  C   UNL     1      -1.789   3.131   1.302  0.00  0.00    +0.097 A 
ATOM     29  C   UNL     1      -1.108   3.606   2.413  0.00  0.00    +0.022 A 
ATOM     30  C   UNL     1       0.153   4.106   2.207  0.00  0.00    +0.008 A 
ATOM     31  C   UNL     1       0.664   4.117   0.947  0.00  0.00    +0.046 A 
ATOM     32  S   UNL     1      -0.609   3.424  -0.004  0.00  0.00    -0.090 S 
ENDBRANCH  26  28
ENDBRANCH  25  26
ENDBRANCH   6  25
TORSDOF 7
