REMARK  Name = ZINC24763117
REMARK  8 active torsions:
REMARK  status: ('A' for Active; 'I' for Inactive)
REMARK    1  A    between atoms: C_1  and  C_2
REMARK    2  A    between atoms: C_3  and  C_23
REMARK    3  A    between atoms: N_9  and  C_22
REMARK    4  A    between atoms: C_10  and  S_12
REMARK    5  A    between atoms: S_12  and  C_13
REMARK    6  A    between atoms: C_13  and  C_15
REMARK    7  A    between atoms: C_13  and  C_16
REMARK    8  A    between atoms: C_18  and  C_21
REMARK                            x       y       z     vdW  Elec       q    Type
REMARK                         _______ _______ _______ _____ _____    ______ ____
ROOT
ATOM      1  C   UNL     1       6.572   4.038  -0.039  0.00  0.00    +0.045 C 
ATOM      2  C   UNL     1       5.863   2.708  -0.039  0.00  0.00    -0.026 A 
ATOM      3  C   UNL     1       6.565   1.565  -0.051  0.00  0.00    -0.008 A 
ATOM      4  S   UNL     1       5.305   0.304  -0.046  0.00  0.00    -0.073 S 
ATOM      5  C   UNL     1       3.870   1.349  -0.028  0.00  0.00    +0.117 A 
ATOM      6  C   UNL     1       4.412   2.648  -0.026  0.00  0.00    +0.075 A 
ATOM      7  C   UNL     1       3.462   3.718  -0.011  0.00  0.00    +0.263 A 
ATOM      8  O   UNL     1       3.838   4.878  -0.009  0.00  0.00    -0.267 OA
ATOM      9  N   UNL     1       2.148   3.428  -0.006  0.00  0.00    -0.290 N 
ATOM     10  C   UNL     1       1.708   2.135  -0.003  0.00  0.00    +0.173 A 
ATOM     11  N   UNL     1       2.561   1.131  -0.016  0.00  0.00    -0.216 NA
ATOM     12  C   UNL     1       1.170   4.519   0.003  0.00  0.00    +0.154 C 
ATOM     13  C   UNL     1       8.062   1.389  -0.065  0.00  0.00    +0.052 C 
ENDROOT
BRANCH  10  14
ATOM     14  S   UNL     1      -0.022   1.806   0.012  0.00  0.00    -0.075 S 
BRANCH  14  15
ATOM     15  C   UNL     1       0.002  -0.004   0.002  0.00  0.00    +0.140 C 
ATOM     16  C   UNL     1       0.606  -0.499  -1.314  0.00  0.00    +0.029 C 
BRANCH  15  17
ATOM     17  C   UNL     1      -1.405  -0.526   0.137  0.00  0.00    +0.240 A 
ATOM     18  N   UNL     1      -1.806  -1.499   0.920  0.00  0.00    -0.195 NA
ATOM     19  C   UNL     1      -3.129  -1.614   0.706  0.00  0.00    +0.169 A 
ATOM     20  N   UNL     1      -3.459  -0.722  -0.179  0.00  0.00    -0.062 NA
ATOM     21  O   UNL     1      -2.484  -0.083  -0.515  0.00  0.00    -0.337 OA
ATOM     22  C   UNL     1      -4.057  -2.596   1.372  0.00  0.00    +0.091 C 
ENDBRANCH  15  17
ENDBRANCH  14  15
ENDBRANCH  10  14
TORSDOF 3
