REMARK  Name = ZINC18036648
REMARK  3 active torsions:
REMARK  status: ('A' for Active; 'I' for Inactive)
REMARK    1  A    between atoms: C_9  and  O_20
REMARK    2  A    between atoms: C_10  and  N_11
REMARK    3  A    between atoms: N_12  and  C_13
REMARK                            x       y       z     vdW  Elec       q    Type
REMARK                         _______ _______ _______ _____ _____    ______ ____
ROOT
ATOM      1  C   UNL     1      -0.016   1.358   0.009  0.00  0.00    +0.001 A 
ATOM      2  C   UNL     1       1.167   2.091   0.002  0.00  0.00    +0.001 A 
ATOM      3  C   UNL     1       2.378   1.465  -0.013  0.00  0.00    +0.011 A 
ATOM      4  C   UNL     1       2.434   0.066  -0.021  0.00  0.00    +0.013 A 
ATOM      5  C   UNL     1       1.232  -0.682  -0.013  0.00  0.00    -0.016 A 
ATOM      6  C   UNL     1       0.002  -0.004   0.002  0.00  0.00    +0.008 A 
ATOM      7  C   UNL     1       1.290  -2.088  -0.021  0.00  0.00    +0.012 A 
ATOM      8  C   UNL     1       2.486  -2.735  -0.034  0.00  0.00    +0.048 A 
ATOM      9  C   UNL     1       3.696  -2.044  -0.042  0.00  0.00    +0.144 A 
ATOM     10  C   UNL     1       3.711  -0.646  -0.037  0.00  0.00    +0.135 A 
ENDROOT
BRANCH  10  11
ATOM     11  N   UNL     1       4.887   0.035  -0.046  0.00  0.00    -0.145 NA
ATOM     12  N   UNL     1       6.005  -0.608  -0.060  0.00  0.00    -0.149 NA
BRANCH  12  13
ATOM     13  C   UNL     1       7.187   0.077  -0.068  0.00  0.00    +0.086 A 
ATOM     14  C   UNL     1       7.189   1.475  -0.056  0.00  0.00    +0.030 A 
ATOM     15  C   UNL     1       8.385   2.160  -0.065  0.00  0.00    +0.017 A 
ATOM     16  C   UNL     1       9.584   1.467  -0.086  0.00  0.00    +0.018 A 
ATOM     17  C   UNL     1       9.590   0.082  -0.098  0.00  0.00    +0.017 A 
ATOM     18  C   UNL     1       8.401  -0.616  -0.084  0.00  0.00    +0.030 A 
ATOM     19 BR   UNL     1      11.220   2.415  -0.099  0.00  0.00    -0.050 Br
ENDBRANCH  12  13
ENDBRANCH  10  11
BRANCH   9  20
ATOM     20  O   UNL     1       4.865  -2.731  -0.055  0.00  0.00    -0.505 OA
ATOM     21  H   UNL     1       5.197  -2.927  -0.942  0.00  0.00    +0.292 HD
ENDBRANCH   9  20
TORSDOF 3
