REMARK  Name = ZINC37129947
REMARK  3 active torsions:
REMARK  status: ('A' for Active; 'I' for Inactive)
REMARK    1  A    between atoms: C_6  and  C_7
REMARK    2  A    between atoms: C_7  and  N_8
REMARK    3  A    between atoms: N_8  and  C_9
REMARK                            x       y       z     vdW  Elec       q    Type
REMARK                         _______ _______ _______ _____ _____    ______ ____
ROOT
ATOM      1  N   UNL     1      -1.726  -1.017  -1.368  0.00  0.00    -0.340 N 
ATOM      2  H   UNL     1      -1.192  -0.691  -2.108  0.00  0.00    +0.146 HD
ENDROOT
BRANCH   1   3
ATOM      3  C   UNL     1      -2.910  -1.719  -1.615  0.00  0.00    +0.030 A 
ATOM      4  C   UNL     1      -3.679  -2.182  -0.553  0.00  0.00    +0.026 A 
ATOM      5  C   UNL     1      -4.848  -2.876  -0.792  0.00  0.00    +0.050 A 
ATOM      6  C   UNL     1      -5.260  -3.113  -2.094  0.00  0.00    +0.157 A 
ATOM      7  C   UNL     1      -4.491  -2.650  -3.161  0.00  0.00    +0.089 A 
ATOM      8  C   UNL     1      -3.320  -1.948  -2.921  0.00  0.00    +0.052 A 
ATOM      9  N   UNL     1      -5.152  -3.036  -4.326  0.00  0.00    -0.288 N 
ATOM     10  H   UNL     1      -4.863  -2.859  -5.235  0.00  0.00    +0.172 HD
ATOM     11  C   UNL     1      -6.266  -3.701  -3.959  0.00  0.00    +0.419 A 
ATOM     12  O   UNL     1      -7.080  -4.181  -4.724  0.00  0.00    -0.223 OA
ATOM     13  O   UNL     1      -6.336  -3.750  -2.620  0.00  0.00    -0.408 OA
ENDBRANCH   1   3
BRANCH   1  14
ATOM     14  C   UNL     1      -1.293  -0.775   0.011  0.00  0.00    +0.137 C 
BRANCH  14  20
ATOM     15  C   UNL     1      -0.017   1.378   0.010  0.00  0.00    +0.007 A 
ATOM     16  C   UNL     1       1.171   2.086   0.002  0.00  0.00    +0.022 A 
ATOM     17  C   UNL     1       2.378   1.412  -0.013  0.00  0.00    +0.059 A 
ATOM     18  C   UNL     1       2.397   0.027  -0.021  0.00  0.00    +0.060 A 
ATOM     19  C   UNL     1       1.208  -0.680  -0.013  0.00  0.00    +0.026 A 
ATOM     20  C   UNL     1       0.002  -0.004   0.002  0.00  0.00    -0.029 A 
ATOM     21 CL   UNL     1       3.912  -0.821  -0.040  0.00  0.00    -0.082 Cl
ATOM     22 CL   UNL     1       3.869   2.301  -0.023  0.00  0.00    -0.082 Cl
ENDBRANCH  14  20
ENDBRANCH   1  14
TORSDOF 3
