REMARK  Name = ZINC57410243
REMARK  8 active torsions:
REMARK  status: ('A' for Active; 'I' for Inactive)
REMARK    1  A    between atoms: C_1  and  C_2
REMARK    2  A    between atoms: C_2  and  C_3
REMARK    3  A    between atoms: C_2  and  C_4
REMARK    4  A    between atoms: C_4  and  C_6
REMARK    5  A    between atoms: C_4  and  O_23
REMARK    6  A    between atoms: N_8  and  N_9
REMARK    7  A    between atoms: C_10  and  C_12
REMARK    8  A    between atoms: O_23  and  C_24
REMARK                            x       y       z     vdW  Elec       q    Type
REMARK                         _______ _______ _______ _____ _____    ______ ____
ROOT
ATOM      1  C   UNL     1      -1.824  -2.040  -0.393  0.00  0.00    +0.270 C 
ATOM      2  O   UNL     1      -2.170  -2.578  -1.423  0.00  0.00    -0.270 OA
ATOM      3  N   UNL     1      -1.494  -2.787   0.679  0.00  0.00    -0.231 N 
ATOM      4  H   UNL     1      -1.286  -2.357   1.524  0.00  0.00    +0.173 HD
ENDROOT
BRANCH   3   5
ATOM      5  N   UNL     1      -1.450  -4.183   0.574  0.00  0.00    -0.231 N 
ATOM      6  C   UNL     1      -1.119  -4.930   1.646  0.00  0.00    +0.273 C 
ATOM      7  O   UNL     1      -0.860  -4.393   2.702  0.00  0.00    -0.270 OA
ATOM      8  H   UNL     1      -1.657  -4.612  -0.271  0.00  0.00    +0.173 HD
BRANCH   6   9
ATOM      9  C   UNL     1      -1.072  -6.432   1.533  0.00  0.00    +0.297 C 
ATOM     10  C   UNL     1      -2.482  -6.975   1.264  0.00  0.00    +0.283 C 
ATOM     11  O   UNL     1      -2.403  -8.402   1.176  0.00  0.00    -0.484 OA
ATOM     12  C   UNL     1      -1.683  -9.035   2.142  0.00  0.00    +0.162 A 
ATOM     13  C   UNL     1      -1.855 -10.398   2.337  0.00  0.00    +0.049 A 
ATOM     14  C   UNL     1      -1.128 -11.055   3.311  0.00  0.00    +0.004 A 
ATOM     15  C   UNL     1      -0.228 -10.357   4.094  0.00  0.00    +0.004 A 
ATOM     16  C   UNL     1      -0.052  -8.999   3.906  0.00  0.00    +0.049 A 
ATOM     17  C   UNL     1      -0.779  -8.333   2.930  0.00  0.00    +0.163 A 
ATOM     18  O   UNL     1      -0.601  -6.994   2.762  0.00  0.00    -0.472 OA
ENDBRANCH   6   9
ENDBRANCH   3   5
BRANCH   1  19
ATOM     19  C   UNL     1      -1.764  -0.537  -0.311  0.00  0.00    +0.263 C 
BRANCH  19  21
ATOM     20  C   UNL     1       0.504  -0.499  -1.358  0.00  0.00    +0.011 C 
ATOM     21  C   UNL     1      -0.311  -0.094  -0.129  0.00  0.00    +0.033 C 
ATOM     22  C   UNL     1      -0.259   1.426   0.040  0.00  0.00    +0.011 C 
ENDBRANCH  19  21
BRANCH  19  23
ATOM     23  O   UNL     1      -2.286   0.027  -1.517  0.00  0.00    -0.476 OA
BRANCH  23  24
ATOM     24  C   UNL     1      -3.057   1.140  -1.394  0.00  0.00    +0.157 A 
ATOM     25  C   UNL     1      -3.210   1.746  -0.157  0.00  0.00    +0.051 A 
ATOM     26  C   UNL     1      -3.995   2.877  -0.033  0.00  0.00    +0.042 A 
ATOM     27  C   UNL     1      -4.629   3.406  -1.145  0.00  0.00    +0.126 A 
ATOM     28  C   UNL     1      -4.478   2.803  -2.382  0.00  0.00    +0.080 A 
ATOM     29  C   UNL     1      -3.689   1.675  -2.510  0.00  0.00    +0.168 A 
ATOM     30  F   UNL     1      -3.537   1.089  -3.718  0.00  0.00    -0.202 F 
ATOM     31  F   UNL     1      -5.396   4.511  -1.021  0.00  0.00    -0.205 F 
ENDBRANCH  23  24
ENDBRANCH  19  23
ENDBRANCH   1  19
TORSDOF 6
