REMARK  Name = ZINC45511473
REMARK  8 active torsions:
REMARK  status: ('A' for Active; 'I' for Inactive)
REMARK    1  A    between atoms: C_1  and  C_2
REMARK    2  A    between atoms: C_2  and  N_3
REMARK    3  A    between atoms: C_5  and  C_14
REMARK    4  A    between atoms: C_14  and  N_15
REMARK    5  A    between atoms: N_15  and  C_16
REMARK    6  A    between atoms: N_15  and  C_17
REMARK    7  A    between atoms: C_17  and  C_18
REMARK    8  A    between atoms: C_26  and  C_28
REMARK                            x       y       z     vdW  Elec       q    Type
REMARK                         _______ _______ _______ _____ _____    ______ ____
ROOT
ATOM      1  N   UNL     1       6.370   3.731   2.309  0.00  0.00    +0.386 N 
ATOM      2  C   UNL     1       6.657   5.038   2.916  0.00  0.00    -0.095 C 
ATOM      3  H   UNL     1       5.522   3.355   2.705  0.00  0.00    -0.081 HD
ENDROOT
BRANCH   1   4
ATOM      4  C   UNL     1       6.202   3.892   0.858  0.00  0.00    -0.032 C 
BRANCH   4   7
ATOM      5  N   UNL     1       3.564   5.709  -1.155  0.00  0.00    -0.324 N 
ATOM      6  C   UNL     1       4.788   4.918  -0.936  0.00  0.00    +0.147 C 
ATOM      7  C   UNL     1       4.965   4.748   0.580  0.00  0.00    +0.174 C 
ATOM      8  O   UNL     1       3.804   4.105   1.110  0.00  0.00    -0.487 OA
ATOM      9  C   UNL     1       2.589   4.606   0.765  0.00  0.00    +0.142 A 
ATOM     10  C   UNL     1       2.445   5.412  -0.360  0.00  0.00    +0.072 A 
ATOM     11  C   UNL     1       1.200   5.916  -0.699  0.00  0.00    +0.027 A 
ATOM     12  C   UNL     1       0.101   5.623   0.088  0.00  0.00    +0.002 A 
ATOM     13  C   UNL     1       0.245   4.829   1.210  0.00  0.00    +0.004 A 
ATOM     14  C   UNL     1       1.480   4.315   1.544  0.00  0.00    +0.047 A 
BRANCH   5  16
ATOM     15  C   UNL     1       3.950   8.095  -1.526  0.00  0.00    +0.024 C 
ATOM     16  C   UNL     1       3.519   6.772  -2.162  0.00  0.00    +0.102 C 
ENDBRANCH   5  16
ENDBRANCH   4   7
ENDBRANCH   1   4
BRANCH   1  17
ATOM     17  C   UNL     1       7.485   2.812   2.574  0.00  0.00    +0.019 C 
BRANCH  17  18
ATOM     18  C   UNL     1       7.579   2.551   4.055  0.00  0.00    +0.199 C 
ATOM     19  O   UNL     1       6.795   3.079   4.815  0.00  0.00    -0.278 OA
ATOM     20  N   UNL     1       8.536   1.732   4.535  0.00  0.00    -0.300 N 
ATOM     21  C   UNL     1       9.497   1.091   3.627  0.00  0.00    +0.126 C 
ATOM     22  C   UNL     1      10.916   1.437   4.092  0.00  0.00    +0.127 C 
ATOM     23  N   UNL     1      11.017   1.168   5.533  0.00  0.00    -0.294 N 
ATOM     24  C   UNL     1      10.056   1.809   6.442  0.00  0.00    +0.127 C 
ATOM     25  C   UNL     1       8.639   1.468   5.977  0.00  0.00    +0.126 C 
ATOM     26  C   UNL     1      11.973   0.349   6.013  0.00  0.00    +0.253 C 
ATOM     27  O   UNL     1      12.120   0.223   7.215  0.00  0.00    -0.269 OA
BRANCH  26  28
ATOM     28  C   UNL     1      12.836  -0.392   5.088  0.00  0.00    +0.074 A 
ATOM     29  C   UNL     1      14.146  -0.812   5.262  0.00  0.00    +0.021 A 
ATOM     30  C   UNL     1      14.699  -1.494   4.205  0.00  0.00    +0.008 A 
ATOM     31  C   UNL     1      13.952  -1.706   3.093  0.00  0.00    +0.046 A 
ATOM     32  S   UNL     1      12.472  -0.994   3.450  0.00  0.00    -0.092 S 
ENDBRANCH  26  28
ENDBRANCH  17  18
ENDBRANCH   1  17
TORSDOF 6
