REMARK  Name = ZINC00859701
REMARK  4 active torsions:
REMARK  status: ('A' for Active; 'I' for Inactive)
REMARK    1  A    between atoms: C_1  and  C_2
REMARK    2  A    between atoms: C_3  and  C_14
REMARK    3  A    between atoms: N_5  and  C_7
REMARK    4  A    between atoms: C_19  and  C_21
REMARK                            x       y       z     vdW  Elec       q    Type
REMARK                         _______ _______ _______ _____ _____    ______ ____
ROOT
ATOM      1  C   UNL     1       4.593  -1.690   0.915  0.00  0.00    +0.068 C 
ATOM      2  C   UNL     1       3.909  -0.449   0.402  0.00  0.00    +0.069 A 
ATOM      3  C   UNL     1       4.498   0.551  -0.411  0.00  0.00    +0.037 A 
ATOM      4  C   UNL     1       3.521   1.508  -0.650  0.00  0.00    +0.140 A 
ATOM      5  N   UNL     1       2.404   1.105  -0.015  0.00  0.00    -0.221 N 
ATOM      6  N   UNL     1       2.672  -0.105   0.633  0.00  0.00    -0.170 NA
ATOM      7 CL   UNL     1       3.704   2.955  -1.593  0.00  0.00    -0.061 Cl
ENDROOT
BRANCH   3   8
ATOM      8  C   UNL     1       5.875   0.570  -0.906  0.00  0.00    +0.047 C 
ATOM      9  C   UNL     1       6.124   0.791  -2.247  0.00  0.00    +0.153 C 
ATOM     10  C   UNL     1       7.435   0.849  -2.911  0.00  0.00    +0.364 C 
ATOM     11  O   UNL     1       8.530   0.714  -2.397  0.00  0.00    -0.243 OA
ATOM     12  O   UNL     1       7.164   1.083  -4.213  0.00  0.00    -0.402 OA
ATOM     13  C   UNL     1       5.829   1.174  -4.366  0.00  0.00    +0.232 C 
ATOM     14  N   UNL     1       5.205   1.008  -3.233  0.00  0.00    -0.205 NA
BRANCH  13  15
ATOM     15  C   UNL     1       5.155   1.431  -5.655  0.00  0.00    +0.037 A 
ATOM     16  C   UNL     1       3.762   1.504  -5.717  0.00  0.00    +0.013 A 
ATOM     17  C   UNL     1       3.140   1.750  -6.923  0.00  0.00    +0.001 A 
ATOM     18  C   UNL     1       3.893   1.913  -8.073  0.00  0.00    +0.000 A 
ATOM     19  C   UNL     1       5.273   1.837  -8.020  0.00  0.00    +0.001 A 
ATOM     20  C   UNL     1       5.909   1.597  -6.819  0.00  0.00    +0.013 A 
ENDBRANCH  13  15
ENDBRANCH   3   8
BRANCH   5  21
ATOM     21  C   UNL     1       1.180   1.787   0.000  0.00  0.00    +0.067 A 
ATOM     22  C   UNL     1      -0.013   1.076   0.008  0.00  0.00    +0.028 A 
ATOM     23  C   UNL     1      -1.218   1.751   0.017  0.00  0.00    +0.002 A 
ATOM     24  C   UNL     1      -1.237   3.133   0.030  0.00  0.00    +0.000 A 
ATOM     25  C   UNL     1      -0.051   3.845   0.023  0.00  0.00    +0.002 A 
ATOM     26  C   UNL     1       1.157   3.175   0.008  0.00  0.00    +0.028 A 
ENDBRANCH   5  21
TORSDOF 3
