REMARK  Name = ZINC32905800
REMARK  9 active torsions:
REMARK  status: ('A' for Active; 'I' for Inactive)
REMARK    1  A    between atoms: C_1  and  N_2
REMARK    2  A    between atoms: N_2  and  C_3
REMARK    3  A    between atoms: N_2  and  C_14
REMARK    4  A    between atoms: C_3  and  C_4
REMARK    5  A    between atoms: N_6  and  C_7
REMARK    6  A    between atoms: C_14  and  C_15
REMARK    7  A    between atoms: C_15  and  N_17
REMARK    8  A    between atoms: N_18  and  C_19
REMARK    9  A    between atoms: C_19  and  C_21
REMARK                            x       y       z     vdW  Elec       q    Type
REMARK                         _______ _______ _______ _____ _____    ______ ____
ROOT
ATOM      1  C   UNL     1       2.455   0.285  -1.252  0.00  0.00    -0.095 C 
ATOM      2  N   UNL     1       2.409   1.039   0.008  0.00  0.00    +0.389 N 
ATOM      3  H   UNL     1       2.259   0.320   0.827  0.00  0.00    -0.081 HD
ENDROOT
BRANCH   2   4
ATOM      4  C   UNL     1       1.280   1.979   0.019  0.00  0.00    +0.019 C 
BRANCH   4   5
ATOM      5  C   UNL     1      -0.015   1.208   0.015  0.00  0.00    +0.201 C 
ATOM      6  O   UNL     1       0.001  -0.005   0.005  0.00  0.00    -0.278 OA
ATOM      7  N   UNL     1      -1.191   1.867   0.018  0.00  0.00    -0.286 N 
ATOM      8  H   UNL     1      -1.207   2.963   0.102  0.00  0.00    +0.155 HD
BRANCH   7   9
ATOM      9  C   UNL     1      -2.392   1.155  -0.086  0.00  0.00    +0.052 A 
ATOM     10  C   UNL     1      -2.510  -0.099   0.499  0.00  0.00    +0.025 A 
ATOM     11  C   UNL     1      -3.698  -0.796   0.399  0.00  0.00    +0.002 A 
ATOM     12  C   UNL     1      -4.766  -0.253  -0.291  0.00  0.00    +0.002 A 
ATOM     13  C   UNL     1      -4.650   0.993  -0.880  0.00  0.00    +0.022 A 
ATOM     14  C   UNL     1      -3.466   1.699  -0.779  0.00  0.00    +0.062 A 
ATOM     15 CL   UNL     1      -3.320   3.263  -1.519  0.00  0.00    -0.082 Cl
ENDBRANCH   7   9
ENDBRANCH   4   5
ENDBRANCH   2   4
BRANCH   2  16
ATOM     16  C   UNL     1       3.679   1.738   0.249  0.00  0.00    +0.022 C 
BRANCH  16  17
ATOM     17  C   UNL     1       4.774   0.728   0.475  0.00  0.00    +0.236 C 
ATOM     18  O   UNL     1       4.522  -0.458   0.439  0.00  0.00    -0.274 OA
BRANCH  17  19
ATOM     19  N   UNL     1       6.033   1.142   0.718  0.00  0.00    -0.090 NA
ATOM     20  N   UNL     1       7.051   0.203   0.928  0.00  0.00    -0.084 NA
BRANCH  20  21
ATOM     21  C   UNL     1       8.310   0.617   1.171  0.00  0.00    +0.283 C 
ATOM     22  O   UNL     1       8.563   1.805   1.207  0.00  0.00    -0.267 OA
BRANCH  21  23
ATOM     23  C   UNL     1       9.384  -0.374   1.393  0.00  0.00    +0.040 A 
ATOM     24  C   UNL     1       9.095  -1.740   1.357  0.00  0.00    +0.016 A 
ATOM     25  C   UNL     1      10.102  -2.659   1.558  0.00  0.00    +0.039 A 
ATOM     26  C   UNL     1      11.397  -2.231   1.808  0.00  0.00    +0.123 A 
ATOM     27  C   UNL     1      11.688  -0.876   1.850  0.00  0.00    +0.039 A 
ATOM     28  C   UNL     1      10.690   0.053   1.644  0.00  0.00    +0.016 A 
ATOM     29  F   UNL     1      12.378  -3.136   2.011  0.00  0.00    -0.205 F 
ENDBRANCH  21  23
ENDBRANCH  20  21
ENDBRANCH  17  19
ENDBRANCH  16  17
ENDBRANCH   2  16
TORSDOF 8
