REMARK  Name = ZINC45910925
REMARK  11 active torsions:
REMARK  status: ('A' for Active; 'I' for Inactive)
REMARK    1  A    between atoms: C_1  and  C_2
REMARK    2  A    between atoms: C_2  and  C_3
REMARK    3  A    between atoms: C_2  and  C_4
REMARK    4  A    between atoms: C_4  and  C_6
REMARK    5  A    between atoms: C_4  and  N_13
REMARK    6  A    between atoms: N_8  and  C_9
REMARK    7  A    between atoms: C_9  and  C_10
REMARK    8  A    between atoms: C_9  and  C_11
REMARK    9  A    between atoms: C_9  and  C_12
REMARK   10  A    between atoms: N_16  and  C_19
REMARK   11  A    between atoms: C_22  and  N_25
REMARK                            x       y       z     vdW  Elec       q    Type
REMARK                         _______ _______ _______ _____ _____    ______ ____
ROOT
ATOM      1  N   UNL     1       0.094   0.088  -2.607  0.00  0.00    +0.389 N 
ATOM      2  C   UNL     1       0.995  -0.341  -3.684  0.00  0.00    -0.059 C 
ATOM      3  C   UNL     1       0.450   0.150  -5.029  0.00  0.00    +0.086 C 
ATOM      4  N   UNL     1       0.249   1.605  -4.949  0.00  0.00    -0.333 N 
ATOM      5  C   UNL     1      -0.508   2.138  -3.805  0.00  0.00    +0.086 C 
ATOM      6  C   UNL     1       0.082   1.554  -2.518  0.00  0.00    -0.059 C 
ATOM      7  H   UNL     1      -0.840  -0.243  -2.800  0.00  0.00    -0.081 HD
ENDROOT
BRANCH   4   8
ATOM      8  C   UNL     1       0.762   2.456  -5.930  0.00  0.00    +0.030 A 
ATOM      9  C   UNL     1       1.365   1.928  -7.064  0.00  0.00    +0.025 A 
ATOM     10  C   UNL     1       1.871   2.772  -8.033  0.00  0.00    +0.034 A 
ATOM     11  C   UNL     1       1.778   4.143  -7.875  0.00  0.00    +0.126 A 
ATOM     12  C   UNL     1       1.178   4.673  -6.747  0.00  0.00    +0.034 A 
ATOM     13  C   UNL     1       0.665   3.833  -5.777  0.00  0.00    +0.025 A 
BRANCH  11  14
ATOM     14  N   UNL     1       2.321   5.045  -8.915  0.00  0.00    +0.056 N 
ATOM     15  O   UNL     1       2.846   4.583  -9.901  0.00  0.00    -0.126 OA
ATOM     16  O   UNL     1       2.240   6.243  -8.777  0.00  0.00    -0.126 OA
ENDBRANCH  11  14
ENDBRANCH   4   8
BRANCH   1  17
ATOM     17  C   UNL     1       0.556  -0.474  -1.331  0.00  0.00    +0.022 C 
BRANCH  17  18
ATOM     18  C   UNL     1       0.536  -1.979  -1.409  0.00  0.00    +0.200 C 
ATOM     19  O   UNL     1       0.042  -2.530  -2.370  0.00  0.00    -0.278 OA
ATOM     20  N   UNL     1       1.066  -2.713  -0.410  0.00  0.00    -0.312 N 
ATOM     21  H   UNL     1       1.460  -2.272   0.359  0.00  0.00    +0.149 HD
BRANCH  20  22
ATOM     22  C   UNL     1       1.046  -4.176  -0.486  0.00  0.00    +0.026 C 
ATOM     23  C   UNL     1       1.814  -4.633  -1.728  0.00  0.00    +0.031 C 
ATOM     24  C   UNL     1       1.706  -4.760   0.765  0.00  0.00    +0.031 C 
ATOM     25  C   UNL     1      -0.402  -4.662  -0.573  0.00  0.00    +0.031 C 
ENDBRANCH  20  22
ENDBRANCH  17  18
BRANCH  17  27
ATOM     26  C   UNL     1       0.114   1.343   0.326  0.00  0.00    +0.006 C 
ATOM     27  C   UNL     1      -0.368  -0.010  -0.204  0.00  0.00    -0.022 C 
ATOM     28  C   UNL     1      -1.795   0.131  -0.739  0.00  0.00    +0.006 C 
ENDBRANCH  17  27
ENDBRANCH   1  17
TORSDOF 6
