REMARK  Name = ZINC27834227
REMARK  6 active torsions:
REMARK  status: ('A' for Active; 'I' for Inactive)
REMARK    1  A    between atoms: C_4  and  C_7
REMARK    2  A    between atoms: C_7  and  C_8
REMARK    3  A    between atoms: N_10  and  C_11
REMARK    4  A    between atoms: C_12  and  C_35
REMARK    5  A    between atoms: C_13  and  C_26
REMARK    6  A    between atoms: C_30  and  N_32
REMARK                            x       y       z     vdW  Elec       q    Type
REMARK                         _______ _______ _______ _____ _____    ______ ____
ROOT
ATOM      1  C   UNL     1      -2.036   6.288   1.226  0.00  0.00    +0.207 C 
ATOM      2  C   UNL     1      -0.769   5.829   1.272  0.00  0.00    +0.099 C 
ATOM      3  C   UNL     1      -0.070   5.347   0.031  0.00  0.00    +0.099 C 
ATOM      4  C   UNL     1      -0.791   5.843  -1.194  0.00  0.00    +0.015 A 
ATOM      5  C   UNL     1      -0.135   5.824  -2.438  0.00  0.00    -0.010 A 
ATOM      6  C   UNL     1       1.183   5.348  -2.555  0.00  0.00    +0.009 A 
ATOM      7  C   UNL     1       1.791   5.342  -3.773  0.00  0.00    +0.001 A 
ATOM      8  C   UNL     1       1.126   5.800  -4.909  0.00  0.00    +0.001 A 
ATOM      9  C   UNL     1      -0.150   6.268  -4.833  0.00  0.00    +0.008 A 
ATOM     10  C   UNL     1      -0.810   6.290  -3.593  0.00  0.00    -0.017 A 
ATOM     11  C   UNL     1      -2.127   6.765  -3.474  0.00  0.00    +0.012 A 
ATOM     12  C   UNL     1      -2.735   6.769  -2.260  0.00  0.00    +0.047 A 
ATOM     13  C   UNL     1      -2.071   6.308  -1.113  0.00  0.00    +0.135 A 
ATOM     14  O   UNL     1      -2.727   6.334   0.075  0.00  0.00    -0.440 OA
ENDROOT
BRANCH   3  15
ATOM     15  C   UNL     1      -0.050   3.840   0.022  0.00  0.00    -0.032 A 
ATOM     16  C   UNL     1      -1.238   3.133   0.029  0.00  0.00    +0.005 A 
ATOM     17  C   UNL     1      -1.219   1.751   0.017  0.00  0.00    +0.003 A 
ATOM     18  C   UNL     1      -0.013   1.076   0.008  0.00  0.00    +0.033 A 
ATOM     19  C   UNL     1       1.175   1.783   0.000  0.00  0.00    +0.126 A 
ATOM     20  C   UNL     1       1.156   3.166   0.008  0.00  0.00    +0.037 A 
BRANCH  19  21
ATOM     21  N   UNL     1       2.467   1.060  -0.015  0.00  0.00    +0.056 N 
ATOM     22  O   UNL     1       2.483  -0.157  -0.022  0.00  0.00    -0.126 OA
ATOM     23  O   UNL     1       3.513   1.684  -0.022  0.00  0.00    -0.126 OA
ENDBRANCH  19  21
ENDBRANCH   3  15
BRANCH   1  26
ATOM     24  C   UNL     1      -3.904   7.183   2.361  0.00  0.00    +0.224 C 
ATOM     25  O   UNL     1      -4.514   7.218   1.313  0.00  0.00    -0.275 OA
ATOM     26  N   UNL     1      -2.638   6.721   2.389  0.00  0.00    -0.255 N 
ATOM     27  H   UNL     1      -2.085   6.690   3.339  0.00  0.00    +0.158 HD
BRANCH  24  28
ATOM     28  C   UNL     1      -4.562   7.656   3.632  0.00  0.00    +0.131 C 
BRANCH  28  32
ATOM     29  C   UNL     1      -8.537   8.966   2.775  0.00  0.00    +0.000 A 
ATOM     30  C   UNL     1      -8.302   7.647   3.115  0.00  0.00    +0.000 A 
ATOM     31  C   UNL     1      -7.015   7.223   3.392  0.00  0.00    +0.004 A 
ATOM     32  C   UNL     1      -5.964   8.118   3.329  0.00  0.00    -0.039 A 
ATOM     33  C   UNL     1      -6.200   9.439   2.995  0.00  0.00    +0.004 A 
ATOM     34  C   UNL     1      -7.485   9.862   2.713  0.00  0.00    +0.000 A 
ENDBRANCH  28  32
ENDBRANCH  24  28
ENDBRANCH   1  26
BRANCH   2  35
ATOM     35  C   UNL     1      -0.078   5.800   2.526  0.00  0.00    +0.101 C 
ATOM     36  N   UNL     1       0.470   5.778   3.521  0.00  0.00    -0.191 NA
ENDBRANCH   2  35
TORSDOF 6
