REMARK  Name = ZINC35288922
REMARK  7 active torsions:
REMARK  status: ('A' for Active; 'I' for Inactive)
REMARK    1  A    between atoms: C_1  and  C_2
REMARK    2  A    between atoms: C_2  and  C_3
REMARK    3  A    between atoms: C_2  and  C_4
REMARK    4  A    between atoms: C_11  and  C_29
REMARK    5  A    between atoms: C_12  and  S_14
REMARK    6  A    between atoms: S_14  and  C_15
REMARK    7  A    between atoms: C_15  and  C_16
REMARK                            x       y       z     vdW  Elec       q    Type
REMARK                         _______ _______ _______ _____ _____    ______ ____
ROOT
ATOM      1  S   UNL     1      -7.424  -3.254  -0.778  0.00  0.00    -0.095 S 
ENDROOT
BRANCH   1  10
ATOM      2  C   UNL     1      -1.412  -0.526   0.013  0.00  0.00    -0.044 A 
ATOM      3  C   UNL     1      -2.258  -0.196   1.069  0.00  0.00    +0.006 A 
ATOM      4  C   UNL     1      -3.541  -0.651   1.109  0.00  0.00    +0.028 A 
ATOM      5  C   UNL     1      -4.027  -1.466   0.072  0.00  0.00    +0.072 A 
ATOM      6  C   UNL     1      -3.164  -1.800  -1.002  0.00  0.00    +0.002 A 
ATOM      7  C   UNL     1      -1.847  -1.308  -1.013  0.00  0.00    +0.014 A 
ATOM      8  C   UNL     1      -3.643  -2.615  -2.042  0.00  0.00    +0.031 A 
ATOM      9  C   UNL     1      -4.956  -3.062  -1.971  0.00  0.00    +0.084 A 
ATOM     10  C   UNL     1      -5.758  -2.687  -0.867  0.00  0.00    +0.115 A 
ATOM     11  N   UNL     1      -5.284  -1.922   0.094  0.00  0.00    -0.239 NA
BRANCH   2  13
ATOM     12  C   UNL     1      -0.019   1.526   0.010  0.00  0.00    +0.012 C 
ATOM     13  C   UNL     1       0.002  -0.004   0.002  0.00  0.00    +0.013 C 
ATOM     14  C   UNL     1       0.742  -0.511   1.242  0.00  0.00    +0.012 C 
ENDBRANCH   2  13
BRANCH   9  15
ATOM     15  C   UNL     1      -5.493  -3.894  -3.006  0.00  0.00    +0.102 C 
ATOM     16  N   UNL     1      -5.919  -4.554  -3.826  0.00  0.00    -0.191 NA
ENDBRANCH   9  15
ENDBRANCH   1  10
BRANCH   1  17
ATOM     17  C   UNL     1      -8.048  -2.542   0.769  0.00  0.00    +0.172 C 
BRANCH  17  18
ATOM     18  C   UNL     1      -9.483  -2.955   0.970  0.00  0.00    +0.230 C 
ATOM     19  O   UNL     1     -10.031  -3.660   0.150  0.00  0.00    -0.274 OA
ATOM     20  N   UNL     1     -10.158  -2.540   2.061  0.00  0.00    -0.260 N 
ATOM     21  C   UNL     1      -9.518  -1.679   3.067  0.00  0.00    +0.209 C 
ATOM     22  C   UNL     1      -9.908  -2.157   4.442  0.00  0.00    +0.235 C 
ATOM     23  O   UNL     1      -9.151  -1.984   5.374  0.00  0.00    -0.274 OA
ATOM     24  N   UNL     1     -11.088  -2.772   4.649  0.00  0.00    -0.283 N 
ATOM     25  C   UNL     1     -11.959  -3.027   3.585  0.00  0.00    +0.055 A 
ATOM     26  C   UNL     1     -11.495  -2.911   2.270  0.00  0.00    +0.058 A 
ATOM     27  C   UNL     1     -12.342  -3.162   1.206  0.00  0.00    +0.025 A 
ATOM     28  C   UNL     1     -13.656  -3.522   1.444  0.00  0.00    +0.002 A 
ATOM     29  C   UNL     1     -14.123  -3.631   2.741  0.00  0.00    +0.002 A 
ATOM     30  C   UNL     1     -13.275  -3.390   3.817  0.00  0.00    +0.025 A 
ATOM     31  H   UNL     1     -11.337  -3.041   5.548  0.00  0.00    +0.155 HD
ENDBRANCH  17  18
ENDBRANCH   1  17
TORSDOF 5
