REMARK  Name = ZINC24837351
REMARK  7 active torsions:
REMARK  status: ('A' for Active; 'I' for Inactive)
REMARK    1  A    between atoms: C_1  and  C_2
REMARK    2  A    between atoms: C_2  and  C_3
REMARK    3  A    between atoms: C_3  and  C_5
REMARK    4  A    between atoms: C_3  and  N_6
REMARK    5  A    between atoms: C_10  and  S_12
REMARK    6  A    between atoms: S_12  and  C_13
REMARK    7  A    between atoms: C_13  and  C_14
REMARK                            x       y       z     vdW  Elec       q    Type
REMARK                         _______ _______ _______ _____ _____    ______ ____
ROOT
ATOM      1  C   UNL     1       5.063   4.719  -0.022  0.00  0.00    +0.059 A 
ATOM      2  C   UNL     1       4.021   5.604  -0.007  0.00  0.00    +0.095 A 
ATOM      3  C   UNL     1       2.708   5.129   0.003  0.00  0.00    +0.259 A 
ATOM      4  O   UNL     1       1.773   5.913   0.017  0.00  0.00    -0.267 OA
ATOM      5  N   UNL     1       2.472   3.781  -0.002  0.00  0.00    -0.255 N 
ATOM      6  C   UNL     1       1.207   3.183   0.008  0.00  0.00    +0.066 A 
ATOM      7  C   UNL     1      -0.032   3.849   0.024  0.00  0.00    +0.027 A 
ATOM      8  C   UNL     1      -1.210   3.142   0.031  0.00  0.00    +0.002 A 
ATOM      9  C   UNL     1      -1.217   1.756   0.017  0.00  0.00    +0.001 A 
ATOM     10  C   UNL     1      -0.013   1.076   0.008  0.00  0.00    +0.017 A 
ATOM     11  C   UNL     1       1.167   1.785   0.001  0.00  0.00    +0.040 A 
ATOM     12  S   UNL     1       2.882   1.327  -0.019  0.00  0.00    -0.049 S 
ATOM     13  C   UNL     1       3.569   2.970  -0.017  0.00  0.00    +0.181 A 
ATOM     14  N   UNL     1       4.802   3.414  -0.027  0.00  0.00    -0.227 NA
ENDROOT
BRANCH   1  15
ATOM     15  C   UNL     1       6.487   5.214  -0.034  0.00  0.00    +0.132 C 
BRANCH  15  16
ATOM     16  S   UNL     1       7.219   4.986   1.610  0.00  0.00    -0.091 S 
BRANCH  16  21
ATOM     17  N   UNL     1      12.717   6.803   1.898  0.00  0.00    -0.319 N 
ATOM     18  C   UNL     1      11.410   6.440   1.596  0.00  0.00    +0.183 A 
ATOM     19  N   UNL     1      10.755   6.547   0.456  0.00  0.00    -0.125 NA
ATOM     20  N   UNL     1       9.450   6.120   0.373  0.00  0.00    -0.133 NA
ATOM     21  C   UNL     1       8.860   5.604   1.435  0.00  0.00    +0.160 A 
ATOM     22  S   UNL     1      10.166   5.708   2.649  0.00  0.00    -0.025 S 
ATOM     23  H   UNL     1      13.112   6.643   2.912  0.00  0.00    +0.148 HD
BRANCH  17  24
ATOM     24  C   UNL     1      13.569   7.400   0.866  0.00  0.00    +0.069 C 
ATOM     25  C   UNL     1      13.318   8.908   0.807  0.00  0.00    +0.028 C 
BRANCH  24  27
ATOM     26  C   UNL     1      15.318   5.637   1.141  0.00  0.00    +0.005 C 
ATOM     27  C   UNL     1      15.038   7.140   1.205  0.00  0.00    +0.018 C 
ENDBRANCH  24  27
ENDBRANCH  17  24
ENDBRANCH  16  21
ENDBRANCH  15  16
ENDBRANCH   1  15
TORSDOF 5
