REMARK  Name = ZINC61670328
REMARK  3 active torsions:
REMARK  status: ('A' for Active; 'I' for Inactive)
REMARK    1  A    between atoms: C_1  and  C_2
REMARK    2  A    between atoms: C_2  and  C_3
REMARK    3  A    between atoms: N_11  and  C_12
REMARK                            x       y       z     vdW  Elec       q    Type
REMARK                         _______ _______ _______ _____ _____    ______ ____
ROOT
ATOM      1  C   UNL     1      -1.061  -0.992  -0.152  0.00  0.00    +0.135 C 
ATOM      2  C   UNL     1      -1.273  -2.510  -0.165  0.00  0.00    +0.141 C 
ATOM      3  N   UNL     1      -2.720  -2.777  -0.197  0.00  0.00    -0.281 N 
ATOM      4  C   UNL     1      -3.528  -2.085  -1.214  0.00  0.00    +0.137 C 
ATOM      5  C   UNL     1      -3.206  -0.587  -1.150  0.00  0.00    +0.179 C 
ATOM      6  O   UNL     1      -1.790  -0.406  -1.233  0.00  0.00    -0.373 OA
ATOM      7  C   UNL     1      -3.288  -3.630   0.678  0.00  0.00    +0.307 C 
ATOM      8  O   UNL     1      -2.593  -4.262   1.450  0.00  0.00    -0.252 OA
ATOM      9  N   UNL     1      -4.627  -3.783   0.697  0.00  0.00    -0.268 N 
ATOM     10  H   UNL     1      -5.177  -3.330   0.038  0.00  0.00    +0.156 HD
ENDROOT
BRANCH   9  11
ATOM     11  C   UNL     1      -5.226  -4.594   1.670  0.00  0.00    +0.049 A 
ATOM     12  C   UNL     1      -4.524  -4.935   2.818  0.00  0.00    +0.027 A 
ATOM     13  C   UNL     1      -5.116  -5.735   3.776  0.00  0.00    +0.040 A 
ATOM     14  C   UNL     1      -6.408  -6.198   3.592  0.00  0.00    +0.125 A 
ATOM     15  C   UNL     1      -7.110  -5.859   2.447  0.00  0.00    +0.055 A 
ATOM     16  C   UNL     1      -6.524  -5.054   1.489  0.00  0.00    +0.042 A 
ATOM     17 BR   UNL     1      -7.485  -4.586  -0.070  0.00  0.00    -0.048 Br
ATOM     18  F   UNL     1      -6.985  -6.981   4.530  0.00  0.00    -0.205 F 
ENDBRANCH   9  11
BRANCH   1  20
ATOM     19  C   UNL     1       0.653   0.825  -0.182  0.00  0.00    +0.006 C 
ATOM     20  C   UNL     1       0.428  -0.683  -0.313  0.00  0.00    +0.030 C 
ENDBRANCH   1  20
TORSDOF 2
