REMARK  Name = ZINC13571496
REMARK  11 active torsions:
REMARK  status: ('A' for Active; 'I' for Inactive)
REMARK    1  A    between atoms: C_1  and  N_2
REMARK    2  A    between atoms: C_10  and  N_12
REMARK    3  A    between atoms: N_12  and  C_13
REMARK    4  A    between atoms: C_16  and  O_19
REMARK    5  A    between atoms: O_19  and  C_20
REMARK    6  A    between atoms: C_21  and  C_23
REMARK    7  A    between atoms: C_24  and  C_25
REMARK    8  A    between atoms: C_28  and  O_33
REMARK    9  A    between atoms: C_29  and  O_31
REMARK   10  A    between atoms: O_31  and  C_32
REMARK   11  A    between atoms: O_33  and  C_34
REMARK                            x       y       z     vdW  Elec       q    Type
REMARK                         _______ _______ _______ _____ _____    ______ ____
ROOT
ATOM      1  N   UNL     1       0.127  -4.033   0.096  0.00  0.00    -0.241 N 
ATOM      2  C   UNL     1       0.061  -4.676  -1.087  0.00  0.00    +0.248 C 
ATOM      3  O   UNL     1      -0.016  -5.890  -1.117  0.00  0.00    -0.270 OA
ENDROOT
BRANCH   1  11
ATOM      4  C   UNL     1       0.215   1.466  -0.606  0.00  0.00    -0.095 C 
ATOM      5  N   UNL     1       0.243   0.003  -0.477  0.00  0.00    +0.384 N 
ATOM      6  C   UNL     1       1.019  -0.405   0.725  0.00  0.00    -0.063 C 
ATOM      7  C   UNL     1       0.069  -0.149   1.911  0.00  0.00    -0.016 C 
ATOM      8  C   UNL     1      -1.348  -0.160   1.299  0.00  0.00    -0.013 C 
ATOM      9  C   UNL     1      -1.118  -0.527  -0.191  0.00  0.00    -0.044 C 
ATOM     10  C   UNL     1      -1.019  -2.039  -0.235  0.00  0.00    -0.023 C 
ATOM     11  C   UNL     1       0.085  -2.643   0.136  0.00  0.00    +0.012 C 
ATOM     12  C   UNL     1       1.324  -1.899   0.593  0.00  0.00    +0.036 C 
ATOM     13  H   UNL     1       0.623  -0.421  -1.310  0.00  0.00    -0.081 HD
ENDBRANCH   1  11
BRANCH   1  14
ATOM     14  C   UNL     1       0.237  -4.765   1.285  0.00  0.00    +0.041 A 
ATOM     15  C   UNL     1       0.136  -4.119   2.510  0.00  0.00    +0.027 A 
ATOM     16  C   UNL     1       0.244  -4.841   3.682  0.00  0.00    +0.047 A 
ATOM     17  C   UNL     1       0.454  -6.212   3.636  0.00  0.00    +0.120 A 
ATOM     18  C   UNL     1       0.555  -6.858   2.413  0.00  0.00    +0.047 A 
ATOM     19  C   UNL     1       0.441  -6.138   1.240  0.00  0.00    +0.027 A 
BRANCH  17  20
ATOM     20  O   UNL     1       0.561  -6.922   4.790  0.00  0.00    -0.495 OA
ATOM     21  C   UNL     1       0.777  -8.329   4.669  0.00  0.00    +0.277 C 
ENDBRANCH  17  20
ENDBRANCH   1  14
BRANCH   2  22
ATOM     22  C   UNL     1       0.082  -3.914  -2.334  0.00  0.00    +0.069 C 
ATOM     23  C   UNL     1      -0.090  -4.547  -3.515  0.00  0.00    +0.013 C 
BRANCH  23  24
ATOM     24  C   UNL     1      -0.069  -3.781  -4.769  0.00  0.00    -0.021 A 
ATOM     25  C   UNL     1       0.134  -2.397  -4.743  0.00  0.00    +0.012 A 
ATOM     26  C   UNL     1       0.154  -1.681  -5.920  0.00  0.00    +0.050 A 
ATOM     27  C   UNL     1      -0.028  -2.330  -7.134  0.00  0.00    +0.162 A 
ATOM     28  C   UNL     1      -0.231  -3.709  -7.169  0.00  0.00    +0.162 A 
ATOM     29  C   UNL     1      -0.246  -4.435  -5.994  0.00  0.00    +0.057 A 
BRANCH  28  30
ATOM     30  O   UNL     1      -0.409  -4.341  -8.360  0.00  0.00    -0.491 OA
ATOM     31  C   UNL     1      -0.612  -5.755  -8.321  0.00  0.00    +0.277 C 
ENDBRANCH  28  30
BRANCH  27  32
ATOM     32  O   UNL     1      -0.007  -1.620  -8.292  0.00  0.00    -0.491 OA
ATOM     33  C   UNL     1       0.206  -0.211  -8.184  0.00  0.00    +0.277 C 
ENDBRANCH  27  32
ENDBRANCH  23  24
ENDBRANCH   2  22
TORSDOF 7
