REMARK  Name = ZINC39996148
REMARK  7 active torsions:
REMARK  status: ('A' for Active; 'I' for Inactive)
REMARK    1  A    between atoms: C_1  and  C_2
REMARK    2  A    between atoms: C_4  and  C_12
REMARK    3  A    between atoms: C_12  and  C_14
REMARK    4  A    between atoms: C_14  and  C_16
REMARK    5  A    between atoms: C_14  and  S_17
REMARK    6  A    between atoms: S_17  and  C_18
REMARK    7  A    between atoms: N_23  and  C_24
REMARK                            x       y       z     vdW  Elec       q    Type
REMARK                         _______ _______ _______ _____ _____    ______ ____
ROOT
ATOM      1  C   UNL     1      -3.750  -1.043  -0.781  0.00  0.00    +0.117 C 
ATOM      2  C   UNL     1      -3.615  -2.477  -1.298  0.00  0.00    +0.027 C 
ENDROOT
BRANCH   1   3
ATOM      3  C   UNL     1      -2.428  -0.333  -0.919  0.00  0.00    +0.174 C 
ATOM      4  O   UNL     1      -2.205   0.350  -1.898  0.00  0.00    -0.291 OA
BRANCH   3   7
ATOM      5  C   UNL     1      -0.363   1.777   0.267  0.00  0.00    +0.035 C 
ATOM      6  C   UNL     1      -0.127   0.268   0.180  0.00  0.00    +0.111 C 
ATOM      7  C   UNL     1      -1.450  -0.461   0.090  0.00  0.00    +0.027 C 
ATOM      8  C   UNL     1      -1.499  -1.280   1.203  0.00  0.00    +0.006 A 
ATOM      9  C   UNL     1      -2.464  -2.197   1.682  0.00  0.00    +0.010 A 
ATOM     10  C   UNL     1      -2.246  -2.879   2.829  0.00  0.00    +0.001 A 
ATOM     11  C   UNL     1      -1.078  -2.719   3.591  0.00  0.00    +0.002 A 
ATOM     12  C   UNL     1      -0.095  -1.869   3.222  0.00  0.00    +0.026 A 
ATOM     13  C   UNL     1      -0.252  -1.087   1.985  0.00  0.00    +0.043 A 
ATOM     14  N   UNL     1       0.521  -0.213   1.404  0.00  0.00    -0.377 N 
ATOM     15  H   UNL     1       1.388   0.075   1.730  0.00  0.00    +0.160 HD
ENDBRANCH   3   7
ENDBRANCH   1   3
BRANCH   1  16
ATOM     16  S   UNL     1      -5.011  -0.167  -1.747  0.00  0.00    -0.107 S 
BRANCH  16  17
ATOM     17  C   UNL     1      -6.550  -1.045  -1.358  0.00  0.00    +0.241 C 
ATOM     18  N   UNL     1      -6.789  -1.052   0.096  0.00  0.00    -0.238 N 
ATOM     19  N   UNL     1      -6.794  -2.398   0.481  0.00  0.00    -0.177 NA
ATOM     20  C   UNL     1      -6.597  -3.177  -0.518  0.00  0.00    +0.210 C 
ATOM     21  N   UNL     1      -6.434  -2.472  -1.705  0.00  0.00    -0.261 N 
ATOM     22  H   UNL     1      -6.916  -0.281   0.670  0.00  0.00    +0.171 HD
BRANCH  21  23
ATOM     23  C   UNL     1      -6.206  -3.007  -2.975  0.00  0.00    +0.037 A 
ATOM     24  C   UNL     1      -6.058  -2.165  -4.069  0.00  0.00    +0.023 A 
ATOM     25  C   UNL     1      -5.832  -2.697  -5.323  0.00  0.00    +0.002 A 
ATOM     26  C   UNL     1      -5.752  -4.068  -5.490  0.00  0.00    +0.000 A 
ATOM     27  C   UNL     1      -5.899  -4.910  -4.403  0.00  0.00    +0.002 A 
ATOM     28  C   UNL     1      -6.120  -4.384  -3.145  0.00  0.00    +0.023 A 
ENDBRANCH  21  23
ENDBRANCH  16  17
ENDBRANCH   1  16
TORSDOF 5
