REMARK  Name = ZINC16607819
REMARK  5 active torsions:
REMARK  status: ('A' for Active; 'I' for Inactive)
REMARK    1  A    between atoms: C_1  and  C_2
REMARK    2  A    between atoms: N_4  and  C_21
REMARK    3  A    between atoms: C_7  and  C_9
REMARK    4  A    between atoms: C_9  and  C_10
REMARK    5  A    between atoms: C_19  and  O_20
REMARK                            x       y       z     vdW  Elec       q    Type
REMARK                         _______ _______ _______ _____ _____    ______ ____
ROOT
ATOM      1  C   UNL     1      -0.018   1.503   0.010  0.00  0.00    +0.063 C 
ATOM      2  C   UNL     1       0.002  -0.004   0.002  0.00  0.00    +0.047 C 
ATOM      3  N   UNL     1       0.008  -0.756  -1.029  0.00  0.00    -0.181 NA
ATOM      4  N   UNL     1       0.029  -2.112  -0.717  0.00  0.00    -0.160 N 
ATOM      5  C   UNL     1       0.037  -2.304   0.619  0.00  0.00    +0.248 C 
ATOM      6  O   UNL     1       0.055  -3.361   1.212  0.00  0.00    -0.273 OA
ATOM      7  C   UNL     1       0.026  -0.910   1.216  0.00  0.00    +0.127 C 
ENDROOT
BRANCH   4   8
ATOM      8  C   UNL     1       0.039  -3.142  -1.665  0.00  0.00    +0.060 A 
ATOM      9  C   UNL     1       0.053  -4.468  -1.252  0.00  0.00    +0.025 A 
ATOM     10  C   UNL     1       0.063  -5.481  -2.190  0.00  0.00    +0.002 A 
ATOM     11  C   UNL     1       0.059  -5.178  -3.539  0.00  0.00    +0.000 A 
ATOM     12  C   UNL     1       0.044  -3.858  -3.954  0.00  0.00    +0.002 A 
ATOM     13  C   UNL     1       0.028  -2.840  -3.021  0.00  0.00    +0.025 A 
ENDBRANCH   4   8
BRANCH   7  14
ATOM     14  C   UNL     1      -1.228  -0.701   2.067  0.00  0.00    +0.058 C 
BRANCH  14  15
ATOM     15  C   UNL     1      -1.121  -1.522   3.327  0.00  0.00    +0.003 A 
ATOM     16  C   UNL     1      -1.602  -2.841   3.354  0.00  0.00    -0.011 A 
ATOM     17  C   UNL     1      -2.190  -3.425   2.219  0.00  0.00    +0.009 A 
ATOM     18  C   UNL     1      -2.646  -4.706   2.280  0.00  0.00    +0.001 A 
ATOM     19  C   UNL     1      -2.539  -5.450   3.454  0.00  0.00    +0.001 A 
ATOM     20  C   UNL     1      -1.976  -4.917   4.573  0.00  0.00    +0.008 A 
ATOM     21  C   UNL     1      -1.493  -3.598   4.548  0.00  0.00    -0.017 A 
ATOM     22  C   UNL     1      -0.905  -3.015   5.684  0.00  0.00    +0.012 A 
ATOM     23  C   UNL     1      -0.449  -1.735   5.626  0.00  0.00    +0.046 A 
ATOM     24  C   UNL     1      -0.551  -0.988   4.448  0.00  0.00    +0.121 A 
BRANCH  24  25
ATOM     25  O   UNL     1      -0.080   0.286   4.419  0.00  0.00    -0.506 OA
ATOM     26  H   UNL     1      -0.734   0.953   4.671  0.00  0.00    +0.292 HD
ENDBRANCH  24  25
ENDBRANCH  14  15
ENDBRANCH   7  14
TORSDOF 4
