REMARK  Name = ZINC21334515
REMARK  8 active torsions:
REMARK  status: ('A' for Active; 'I' for Inactive)
REMARK    1  A    between atoms: C_1  and  C_2
REMARK    2  A    between atoms: C_5  and  C_32
REMARK    3  A    between atoms: N_8  and  C_10
REMARK    4  A    between atoms: C_10  and  C_11
REMARK    5  A    between atoms: C_14  and  C_27
REMARK    6  A    between atoms: C_17  and  C_19
REMARK    7  A    between atoms: C_22  and  O_25
REMARK    8  A    between atoms: O_25  and  C_26
REMARK                            x       y       z     vdW  Elec       q    Type
REMARK                         _______ _______ _______ _____ _____    ______ ____
ROOT
ATOM      1  C   UNL     1       1.567  -1.873  -0.022  0.00  0.00    +0.219 C 
ATOM      2  O   UNL     1       2.722  -2.243  -0.035  0.00  0.00    -0.276 OA
ATOM      3  N   UNL     1       1.281  -0.556  -0.013  0.00  0.00    -0.184 N 
ATOM      4  C   UNL     1       2.270   0.534  -0.017  0.00  0.00    +0.172 C 
ATOM      5  C   UNL     1       1.403   1.809  -0.002  0.00  0.00    +0.090 C 
ATOM      6  C   UNL     1      -0.015   1.284   0.009  0.00  0.00    +0.069 C 
ATOM      7  N   UNL     1       0.002  -0.004   0.002  0.00  0.00    -0.181 NA
ENDROOT
BRANCH   6   8
ATOM      8  C   UNL     1      -1.231   2.118   0.020  0.00  0.00    -0.002 A 
ATOM      9  C   UNL     1      -1.125   3.512   0.032  0.00  0.00    +0.013 A 
ATOM     10  C   UNL     1      -2.263   4.287   0.036  0.00  0.00    +0.046 A 
ATOM     11  C   UNL     1      -3.516   3.686   0.039  0.00  0.00    +0.120 A 
ATOM     12  C   UNL     1      -3.626   2.302   0.033  0.00  0.00    +0.046 A 
ATOM     13  C   UNL     1      -2.493   1.518   0.023  0.00  0.00    +0.013 A 
BRANCH  11  14
ATOM     14  O   UNL     1      -4.636   4.455   0.048  0.00  0.00    -0.495 OA
ATOM     15  C   UNL     1      -4.450   5.872   0.054  0.00  0.00    +0.277 C 
ENDBRANCH  11  14
ENDBRANCH   6   8
BRANCH   4  16
ATOM     16  C   UNL     1       3.116   0.479  -1.263  0.00  0.00    +0.128 A 
ATOM     17  C   UNL     1       4.433   0.740  -1.331  0.00  0.00    +0.046 A 
ATOM     18  C   UNL     1       4.816   0.567  -2.681  0.00  0.00    +0.041 A 
ATOM     19  C   UNL     1       3.707   0.218  -3.359  0.00  0.00    +0.195 A 
ATOM     20  O   UNL     1       2.680   0.167  -2.494  0.00  0.00    -0.466 OA
ENDBRANCH   4  16
BRANCH   1  21
ATOM     21  C   UNL     1       0.451  -2.886  -0.017  0.00  0.00    +0.021 C 
BRANCH  21  27
ATOM     22  C   UNL     1       3.151  -6.144  -2.525  0.00  0.00    +0.005 C 
ATOM     23  C   UNL     1       2.429  -5.861  -1.207  0.00  0.00    -0.031 C 
ATOM     24  C   UNL     1       1.386  -6.952  -0.951  0.00  0.00    +0.003 C 
ATOM     25  C   UNL     1       0.627  -6.630   0.340  0.00  0.00    -0.031 C 
ATOM     26  C   UNL     1      -0.020  -5.249   0.214  0.00  0.00    -0.075 C 
ATOM     27  N   UNL     1       1.019  -4.241  -0.029  0.00  0.00    +0.386 N 
ATOM     28  C   UNL     1       1.730  -4.502  -1.287  0.00  0.00    -0.075 C 
ATOM     29  C   UNL     1       1.601  -6.633   1.519  0.00  0.00    +0.005 C 
ATOM     30  H   UNL     1       1.751  -4.309   0.790  0.00  0.00    -0.081 HD
ENDBRANCH  21  27
ENDBRANCH   1  21
TORSDOF 5
