REMARK  Name = ZINC09465082
REMARK  5 active torsions:
REMARK  status: ('A' for Active; 'I' for Inactive)
REMARK    1  A    between atoms: C_3  and  S_9
REMARK    2  A    between atoms: S_9  and  N_12
REMARK    3  A    between atoms: N_12  and  C_13
REMARK    4  A    between atoms: C_16  and  N_23
REMARK    5  A    between atoms: C_17  and  C_19
REMARK                            x       y       z     vdW  Elec       q    Type
REMARK                         _______ _______ _______ _____ _____    ______ ____
ROOT
ATOM      1  N   UNL     1      -1.514   3.081   1.446  0.00  0.00    -0.216 N 
ATOM      2  H   UNL     1      -2.065   2.794   2.191  0.00  0.00    +0.174 HD
ENDROOT
BRANCH   1   3
ATOM      3  C   UNL     1      -0.603   4.126   1.614  0.00  0.00    +0.049 A 
ATOM      4  C   UNL     1       0.694   4.003   1.131  0.00  0.00    +0.027 A 
ATOM      5  C   UNL     1       1.590   5.041   1.294  0.00  0.00    +0.035 A 
ATOM      6  C   UNL     1       1.202   6.197   1.946  0.00  0.00    +0.138 A 
ATOM      7  C   UNL     1      -0.087   6.320   2.433  0.00  0.00    +0.087 A 
ATOM      8  C   UNL     1      -0.990   5.288   2.269  0.00  0.00    +0.039 A 
BRANCH   7   9
ATOM      9  C   UNL     1      -0.506   7.582   3.142  0.00  0.00    +0.420 C 
ATOM     10  F   UNL     1      -1.843   7.471   3.539  0.00  0.00    -0.166 F 
ATOM     11  F   UNL     1       0.301   7.773   4.269  0.00  0.00    -0.166 F 
ATOM     12  F   UNL     1      -0.364   8.672   2.277  0.00  0.00    -0.166 F 
ENDBRANCH   7   9
BRANCH   6  13
ATOM     13  N   UNL     1       2.167   7.305   2.124  0.00  0.00    +0.057 N 
ATOM     14  O   UNL     1       3.302   7.198   1.696  0.00  0.00    -0.126 OA
ATOM     15  O   UNL     1       1.827   8.323   2.699  0.00  0.00    -0.126 OA
ENDBRANCH   6  13
ENDBRANCH   1   3
BRANCH   1  16
ATOM     16  S   UNL     1      -1.653   2.331  -0.024  0.00  0.00    +0.074 S 
ATOM     17  O   UNL     1      -2.721   1.401   0.094  0.00  0.00    -0.150 OA
ATOM     18  O   UNL     1      -0.342   1.941  -0.406  0.00  0.00    -0.150 OA
BRANCH  16  21
ATOM     19  C   UNL     1      -1.754   4.866  -3.140  0.00  0.00    +0.003 A 
ATOM     20  C   UNL     1      -1.343   3.913  -2.226  0.00  0.00    +0.030 A 
ATOM     21  C   UNL     1      -2.174   3.551  -1.183  0.00  0.00    +0.128 A 
ATOM     22  C   UNL     1      -3.418   4.144  -1.052  0.00  0.00    +0.086 A 
ATOM     23  C   UNL     1      -3.829   5.098  -1.967  0.00  0.00    +0.061 A 
ATOM     24  C   UNL     1      -2.996   5.459  -3.011  0.00  0.00    +0.021 A 
ATOM     25 CL   UNL     1      -5.389   5.842  -1.804  0.00  0.00    -0.082 Cl
ATOM     26 CL   UNL     1      -4.463   3.689   0.258  0.00  0.00    -0.080 Cl
ENDBRANCH  16  21
ENDBRANCH   1  16
TORSDOF 5
