REMARK  Name = ZINC13471553
REMARK  4 active torsions:
REMARK  status: ('A' for Active; 'I' for Inactive)
REMARK    1  A    between atoms: C_7  and  N_12
REMARK    2  A    between atoms: N_20  and  N_21
REMARK    3  A    between atoms: N_21  and  C_22
REMARK    4  A    between atoms: C_22  and  N_24
REMARK                            x       y       z     vdW  Elec       q    Type
REMARK                         _______ _______ _______ _____ _____    ______ ____
ROOT
ATOM      1  N   UNL     1       1.060  -2.793   1.178  0.00  0.00    -0.225 N 
ATOM      2  C   UNL     1       0.095  -3.794   1.167  0.00  0.00    +0.050 A 
ATOM      3  C   UNL     1      -0.595  -4.402   0.124  0.00  0.00    +0.024 A 
ATOM      4  C   UNL     1      -1.522  -5.389   0.389  0.00  0.00    +0.002 A 
ATOM      5  C   UNL     1      -1.777  -5.787   1.691  0.00  0.00    +0.001 A 
ATOM      6  C   UNL     1      -1.102  -5.194   2.740  0.00  0.00    +0.012 A 
ATOM      7  C   UNL     1      -0.166  -4.199   2.483  0.00  0.00    +0.029 A 
ATOM      8  C   UNL     1       0.710  -3.380   3.354  0.00  0.00    +0.153 C 
ATOM      9  N   UNL     1       0.800  -3.422   4.662  0.00  0.00    -0.175 NA
ATOM     10  C   UNL     1       1.463  -2.512   2.428  0.00  0.00    +0.274 C 
ATOM     11  O   UNL     1       2.299  -1.685   2.743  0.00  0.00    -0.268 OA
ENDROOT
BRANCH   1  18
ATOM     12  C   UNL     1      -0.017   1.381   0.010  0.00  0.00    +0.000 A 
ATOM     13  C   UNL     1       1.169   2.094   0.002  0.00  0.00    +0.001 A 
ATOM     14  C   UNL     1       2.380   1.432  -0.013  0.00  0.00    +0.015 A 
ATOM     15  C   UNL     1       2.406   0.037  -0.021  0.00  0.00    +0.067 A 
ATOM     16  C   UNL     1       1.203  -0.674  -0.013  0.00  0.00    +0.026 A 
ATOM     17  C   UNL     1       0.002  -0.004   0.002  0.00  0.00    +0.010 A 
ATOM     18  C   UNL     1       1.578  -2.134  -0.024  0.00  0.00    +0.305 C 
ATOM     19  O   UNL     1       3.007  -2.192  -0.038  0.00  0.00    -0.434 OA
ATOM     20  C   UNL     1       3.506  -0.945  -0.037  0.00  0.00    +0.342 C 
ATOM     21  O   UNL     1       4.688  -0.667  -0.047  0.00  0.00    -0.245 OA
ENDBRANCH   1  18
BRANCH   9  22
ATOM     22  N   UNL     1       1.688  -2.570   5.330  0.00  0.00    -0.218 N 
ATOM     23  H   UNL     1       2.236  -1.948   4.826  0.00  0.00    +0.176 HD
BRANCH  22  24
ATOM     24  C   UNL     1       1.780  -2.613   6.674  0.00  0.00    +0.147 C 
ATOM     25  S   UNL     1       2.865  -1.571   7.491  0.00  0.00    -0.017 S 
BRANCH  24  26
ATOM     26  N   UNL     1       1.018  -3.476   7.375  0.00  0.00    -0.339 N 
ATOM     27  H   UNL     1       0.404  -4.066   6.912  0.00  0.00    +0.144 HD
ATOM     28  H   UNL     1       1.085  -3.507   8.342  0.00  0.00    +0.144 HD
ENDBRANCH  24  26
ENDBRANCH  22  24
ENDBRANCH   9  22
TORSDOF 4
