REMARK  Name = ZINC04776958
REMARK  7 active torsions:
REMARK  status: ('A' for Active; 'I' for Inactive)
REMARK    1  A    between atoms: C_1  and  C_2
REMARK    2  A    between atoms: C_2  and  O_3
REMARK    3  A    between atoms: O_3  and  C_4
REMARK    4  A    between atoms: C_6  and  C_11
REMARK    5  A    between atoms: C_9  and  O_10
REMARK    6  A    between atoms: C_16  and  C_21
REMARK    7  A    between atoms: C_24  and  C_27
REMARK                            x       y       z     vdW  Elec       q    Type
REMARK                         _______ _______ _______ _____ _____    ______ ____
ROOT
ATOM      1  C   UNL     1       0.654  -4.954  -0.018  0.00  0.00    +0.176 C 
ATOM      2  C   UNL     1       0.638  -5.828   1.217  0.00  0.00    +0.041 C 
ATOM      3  C   UNL     1       0.327  -7.141   1.163  0.00  0.00    +0.020 C 
ATOM      4  C   UNL     1       0.302  -7.984   2.416  0.00  0.00    +0.060 C 
ATOM      5  C   UNL     1       1.336  -7.454   3.413  0.00  0.00    +0.032 C 
ATOM      6  C   UNL     1       1.000  -5.992   3.724  0.00  0.00    +0.088 C 
ATOM      7  C   UNL     1       0.967  -5.214   2.439  0.00  0.00    +0.164 C 
ATOM      8  O   UNL     1       1.229  -4.027   2.456  0.00  0.00    -0.292 OA
ATOM      9  N   UNL     1       0.025  -7.766  -0.023  0.00  0.00    -0.287 N 
ATOM     10  C   UNL     1       0.326  -7.105  -1.203  0.00  0.00    +0.218 A 
ATOM     11  N   UNL     1       0.627  -5.785  -1.215  0.00  0.00    -0.221 N 
ATOM     12  N   UNL     1       0.880  -5.452  -2.545  0.00  0.00    -0.156 NA
ATOM     13  C   UNL     1       0.719  -6.548  -3.245  0.00  0.00    +0.247 A 
ATOM     14  N   UNL     1       0.383  -7.544  -2.430  0.00  0.00    -0.201 NA
ATOM     15  H   UNL     1      -0.386  -8.645  -0.034  0.00  0.00    +0.155 HD
ENDROOT
BRANCH   5  16
ATOM     16  C   UNL     1       1.284  -8.269   4.679  0.00  0.00    -0.043 A 
ATOM     17  C   UNL     1       0.114  -8.334   5.412  0.00  0.00    +0.004 A 
ATOM     18  C   UNL     1       0.066  -9.081   6.574  0.00  0.00    +0.003 A 
ATOM     19  C   UNL     1       1.188  -9.765   7.003  0.00  0.00    -0.050 A 
ATOM     20  C   UNL     1       2.358  -9.701   6.269  0.00  0.00    +0.003 A 
ATOM     21  C   UNL     1       2.405  -8.957   5.105  0.00  0.00    +0.004 A 
ATOM     22  C   UNL     1       1.137 -10.579   8.270  0.00  0.00    +0.044 C 
ENDBRANCH   5  16
BRANCH   1  25
ATOM     23  C   UNL     1      -1.498  -1.849   0.006  0.00  0.00    +0.162 A 
ATOM     24  C   UNL     1      -0.389  -2.680  -0.003  0.00  0.00    +0.055 A 
ATOM     25  C   UNL     1      -0.553  -4.052  -0.008  0.00  0.00    -0.015 A 
ATOM     26  C   UNL     1      -1.823  -4.600  -0.005  0.00  0.00    +0.010 A 
ATOM     27  C   UNL     1      -2.934  -3.777   0.004  0.00  0.00    +0.049 A 
ATOM     28  C   UNL     1      -2.776  -2.400   0.016  0.00  0.00    +0.158 A 
BRANCH  28  29
ATOM     29  O   UNL     1      -3.868  -1.589   0.030  0.00  0.00    -0.503 OA
ATOM     30  H   UNL     1      -4.192  -1.350  -0.849  0.00  0.00    +0.292 HD
ENDBRANCH  28  29
BRANCH  23  31
ATOM     31  O   UNL     1      -1.339  -0.499   0.012  0.00  0.00    -0.489 OA
BRANCH  31  33
ATOM     32  C   UNL     1      -0.019   1.526   0.010  0.00  0.00    +0.048 C 
ATOM     33  C   UNL     1       0.002  -0.004   0.002  0.00  0.00    +0.226 C 
ENDBRANCH  31  33
ENDBRANCH  23  31
ENDBRANCH   1  25
TORSDOF 5
