REMARK  Name = ZINC04231211
REMARK  11 active torsions:
REMARK  status: ('A' for Active; 'I' for Inactive)
REMARK    1  A    between atoms: C_1  and  C_2
REMARK    2  A    between atoms: C_7  and  C_15
REMARK    3  A    between atoms: C_13  and  C_14
REMARK    4  A    between atoms: C_15  and  N_16
REMARK    5  A    between atoms: N_16  and  C_17
REMARK    6  A    between atoms: C_17  and  C_18
REMARK    7  A    between atoms: C_18  and  C_19
REMARK    8  A    between atoms: C_19  and  N_60
REMARK    9  A    between atoms: C_20  and  N_60
REMARK   10  A    between atoms: C_21  and  N_60
REMARK   11  A    between atoms: N_24  and  C_25
REMARK                            x       y       z     vdW  Elec       q    Type
REMARK                         _______ _______ _______ _____ _____    ______ ____
ROOT
ATOM      1  N   UNL     1      -0.015   1.343   0.028  0.00  0.00    -0.281 N 
ATOM      2  C   UNL     1       0.003  -0.005   0.011  0.00  0.00    +0.307 C 
ATOM      3  O   UNL     1       1.063  -0.599  -0.005  0.00  0.00    -0.252 OA
ATOM      4  N   UNL     1      -1.156  -0.694   0.009  0.00  0.00    -0.267 N 
ATOM      5  H   UNL     1      -2.000  -0.223   0.087  0.00  0.00    +0.156 HD
ENDROOT
BRANCH   4   6
ATOM      6  C   UNL     1      -1.140  -2.090  -0.104  0.00  0.00    +0.070 A 
ATOM      7  C   UNL     1      -0.113  -2.823   0.473  0.00  0.00    +0.026 A 
ATOM      8  C   UNL     1      -0.103  -4.200   0.364  0.00  0.00    +0.002 A 
ATOM      9  C   UNL     1      -1.109  -4.849  -0.328  0.00  0.00    +0.003 A 
ATOM     10  C   UNL     1      -2.132  -4.122  -0.909  0.00  0.00    +0.040 A 
ATOM     11  C   UNL     1      -2.151  -2.744  -0.800  0.00  0.00    +0.145 A 
ATOM     12  F   UNL     1      -3.150  -2.034  -1.369  0.00  0.00    -0.204 F 
ENDBRANCH   4   6
BRANCH   1  13
ATOM     13  C   UNL     1       1.244   2.092   0.030  0.00  0.00    +0.150 C 
BRANCH  13  20
ATOM     14  C   UNL     1       3.029   4.416  -7.389  0.00  0.00    +0.044 C 
ATOM     15  C   UNL     1       2.587   4.185  -5.967  0.00  0.00    -0.046 A 
ATOM     16  C   UNL     1       1.867   5.169  -5.302  0.00  0.00    +0.004 A 
ATOM     17  C   UNL     1       1.457   4.979  -4.013  0.00  0.00    +0.010 A 
ATOM     18  C   UNL     1       1.764   3.782  -3.357  0.00  0.00    -0.001 A 
ATOM     19  C   UNL     1       1.335   3.544  -1.977  0.00  0.00    +0.020 A 
ATOM     20  C   UNL     1       1.666   2.367  -1.391  0.00  0.00    +0.035 A 
ATOM     21  C   UNL     1       2.400   1.397  -2.107  0.00  0.00    +0.254 A 
ATOM     22  O   UNL     1       2.683   0.345  -1.562  0.00  0.00    -0.268 OA
ATOM     23  N   UNL     1       2.794   1.605  -3.375  0.00  0.00    -0.322 N 
ATOM     24  H   UNL     1       3.312   0.896  -3.853  0.00  0.00    +0.169 HD
ATOM     25  C   UNL     1       2.493   2.783  -4.027  0.00  0.00    +0.052 A 
ATOM     26  C   UNL     1       2.901   2.998  -5.340  0.00  0.00    -0.024 A 
ATOM     27  C   UNL     1       3.683   1.939  -6.073  0.00  0.00    +0.046 C 
ENDBRANCH  13  20
ENDBRANCH   1  13
BRANCH   1  28
ATOM     28  C   UNL     1      -1.293   2.059   0.041  0.00  0.00    +0.108 C 
BRANCH  28  29
ATOM     29  C   UNL     1      -1.735   2.289   1.487  0.00  0.00    +0.000 C 
BRANCH  29  30
ATOM     30  C   UNL     1      -3.070   3.036   1.500  0.00  0.00    -0.078 C 
BRANCH  30  33
ATOM     31  C   UNL     1      -4.642   4.172   2.949  0.00  0.00    -0.097 C 
ATOM     32  C   UNL     1      -3.800   1.984   3.554  0.00  0.00    -0.097 C 
ATOM     33  N   UNL     1      -3.473   3.270   2.903  0.00  0.00    +0.376 N 
ATOM     34  H   UNL     1      -2.692   3.709   3.405  0.00  0.00    -0.083 HD
ENDBRANCH  30  33
ENDBRANCH  29  30
ENDBRANCH  28  29
ENDBRANCH   1  28
TORSDOF 7
