REMARK  Name = ZINC38596665
REMARK  2 active torsions:
REMARK  status: ('A' for Active; 'I' for Inactive)
REMARK    1  A    between atoms: C_4  and  C_7
REMARK    2  A    between atoms: C_9  and  C_21
REMARK                            x       y       z     vdW  Elec       q    Type
REMARK                         _______ _______ _______ _____ _____    ______ ____
ROOT
ATOM      1  C   UNL     1       3.697  -0.686  -0.037  0.00  0.00    +0.134 C 
ATOM      2  C   UNL     1       3.683  -2.007  -0.050  0.00  0.00    +0.029 C 
ATOM      3  C   UNL     1       4.934  -2.842  -0.082  0.00  0.00    +0.066 C 
ATOM      4  C   UNL     1       6.124  -1.992   0.381  0.00  0.00    +0.170 C 
ATOM      5  C   UNL     1       7.409  -2.650  -0.026  0.00  0.00    +0.233 C 
ATOM      6  O   UNL     1       7.652  -3.770   0.369  0.00  0.00    -0.275 OA
ATOM      7  N   UNL     1       8.297  -2.027  -0.818  0.00  0.00    -0.238 N 
ATOM      8  C   UNL     1       8.067  -0.791  -1.289  0.00  0.00    +0.332 C 
ATOM      9  O   UNL     1       8.912  -0.252  -1.978  0.00  0.00    -0.250 OA
ATOM     10  N   UNL     1       6.928  -0.137  -1.019  0.00  0.00    -0.131 NA
ATOM     11  C   UNL     1       5.990  -0.633  -0.265  0.00  0.00    +0.203 C 
ATOM     12  O   UNL     1       4.842   0.042  -0.045  0.00  0.00    -0.443 OA
ATOM     13  H   UNL     1       9.122  -2.480  -1.054  0.00  0.00    +0.159 HD
ENDROOT
BRANCH   3  14
ATOM     14  C   UNL     1       5.178  -3.327  -1.488  0.00  0.00    -0.039 A 
ATOM     15  C   UNL     1       5.364  -2.416  -2.511  0.00  0.00    +0.005 A 
ATOM     16  C   UNL     1       5.588  -2.861  -3.800  0.00  0.00    +0.020 A 
ATOM     17  C   UNL     1       5.627  -4.218  -4.067  0.00  0.00    +0.041 A 
ATOM     18  C   UNL     1       5.441  -5.129  -3.043  0.00  0.00    +0.020 A 
ATOM     19  C   UNL     1       5.223  -4.683  -1.753  0.00  0.00    +0.005 A 
ATOM     20 CL   UNL     1       5.908  -4.776  -5.686  0.00  0.00    -0.084 Cl
ENDBRANCH   3  14
BRANCH   1  24
ATOM     21  C   UNL     1      -0.017   1.379   0.010  0.00  0.00    +0.000 A 
ATOM     22  C   UNL     1       1.169   2.093   0.002  0.00  0.00    +0.001 A 
ATOM     23  C   UNL     1       2.377   1.428  -0.013  0.00  0.00    +0.011 A 
ATOM     24  C   UNL     1       2.403   0.033  -0.021  0.00  0.00    +0.017 A 
ATOM     25  C   UNL     1       1.205  -0.680  -0.013  0.00  0.00    +0.011 A 
ATOM     26  C   UNL     1       0.002  -0.004   0.002  0.00  0.00    +0.001 A 
ENDBRANCH   1  24
TORSDOF 2
