REMARK  Name = ZINC40500352
REMARK  2 active torsions:
REMARK  status: ('A' for Active; 'I' for Inactive)
REMARK    1  A    between atoms: N_9  and  C_13
REMARK    2  A    between atoms: C_13  and  C_14
REMARK                            x       y       z     vdW  Elec       q    Type
REMARK                         _______ _______ _______ _____ _____    ______ ____
ROOT
ATOM      1  C   UNL     1      -0.017   1.375   0.010  0.00  0.00    +0.002 A 
ATOM      2  C   UNL     1       1.164   2.096   0.002  0.00  0.00    +0.002 A 
ATOM      3  C   UNL     1       2.381   1.433  -0.013  0.00  0.00    +0.031 A 
ATOM      4  C   UNL     1       2.407   0.063  -0.021  0.00  0.00    +0.134 A 
ATOM      5  C   UNL     1       1.223  -0.684  -0.013  0.00  0.00    +0.092 A 
ATOM      6  C   UNL     1       0.002  -0.004   0.002  0.00  0.00    +0.030 A 
ATOM      7  N   UNL     1       1.257  -2.046  -0.018  0.00  0.00    -0.237 NA
ATOM      8  C   UNL     1       2.264  -2.801   0.244  0.00  0.00    +0.206 C 
ATOM      9  N   UNL     1       3.509  -2.328   0.577  0.00  0.00    -0.188 N 
ATOM     10  S   UNL     1       3.931  -0.834  -0.042  0.00  0.00    +0.078 S 
ATOM     11  O   UNL     1       4.795  -0.217   0.902  0.00  0.00    -0.150 OA
ATOM     12  O   UNL     1       4.286  -1.029  -1.405  0.00  0.00    -0.150 OA
ENDROOT
BRANCH   9  13
ATOM     13  C   UNL     1       4.420  -3.092   1.433  0.00  0.00    +0.169 C 
BRANCH  13  14
ATOM     14  C   UNL     1       5.194  -4.074   0.591  0.00  0.00    -0.010 A 
ATOM     15  C   UNL     1       4.699  -5.351   0.368  0.00  0.00    +0.009 A 
ATOM     16  C   UNL     1       5.444  -6.220  -0.412  0.00  0.00    +0.040 A 
ATOM     17  C   UNL     1       6.649  -5.789  -0.939  0.00  0.00    +0.129 A 
ATOM     18  N   UNL     1       7.088  -4.567  -0.706  0.00  0.00    -0.243 NA
ATOM     19  C   UNL     1       6.402  -3.712   0.027  0.00  0.00    +0.117 A 
ATOM     20 CL   UNL     1       7.593  -6.868  -1.918  0.00  0.00    -0.062 Cl
ENDBRANCH  13  14
ENDBRANCH   9  13
TORSDOF 2
