REMARK  Name = ZINC32768792
REMARK  4 active torsions:
REMARK  status: ('A' for Active; 'I' for Inactive)
REMARK    1  A    between atoms: C_10  and  C_11
REMARK    2  A    between atoms: C_11  and  N_12
REMARK    3  A    between atoms: N_17  and  C_18
REMARK    4  A    between atoms: C_18  and  C_20
REMARK                            x       y       z     vdW  Elec       q    Type
REMARK                         _______ _______ _______ _____ _____    ______ ____
ROOT
ATOM      1  N   UNL     1       0.084   1.878  -6.033  0.00  0.00    -0.324 N 
ATOM      2  C   UNL     1       1.006   1.599  -6.992  0.00  0.00    +0.095 A 
ATOM      3  C   UNL     1       2.157   1.025  -6.628  0.00  0.00    +0.066 A 
ATOM      4  S   UNL     1       1.952   0.872  -4.862  0.00  0.00    -0.061 S 
ATOM      5  C   UNL     1       0.370   1.573  -4.735  0.00  0.00    +0.166 A 
ATOM      6  N   UNL     1      -0.379   1.762  -3.646  0.00  0.00    -0.156 NA
ENDROOT
BRANCH   6   7
ATOM      7  C   UNL     1       0.075   1.389  -2.457  0.00  0.00    +0.243 C 
ATOM      8  O   UNL     1       1.174   0.877  -2.358  0.00  0.00    -0.273 OA
BRANCH   7   9
ATOM      9  C   UNL     1      -0.770   1.602  -1.227  0.00  0.00    +0.099 C 
ATOM     10  C   UNL     1      -0.013   1.086   0.008  0.00  0.00    +0.037 C 
ATOM     11  C   UNL     1      -0.754   1.594   1.277  0.00  0.00    +0.166 C 
ATOM     12  S   UNL     1      -1.173   3.312   0.758  0.00  0.00    -0.030 S 
ATOM     13  O   UNL     1      -0.138   4.188   1.183  0.00  0.00    -0.174 OA
ATOM     14  O   UNL     1      -2.518   3.590   1.121  0.00  0.00    -0.174 OA
ATOM     15  C   UNL     1      -1.074   3.111  -1.067  0.00  0.00    +0.178 C 
ENDBRANCH   7   9
ENDBRANCH   6   7
BRANCH   1  16
ATOM     16  C   UNL     1      -1.194   2.500  -6.388  0.00  0.00    +0.159 C 
BRANCH  16  26
ATOM     17  C   UNL     1       0.431   6.133  -9.607  0.00  0.00    +0.001 A 
ATOM     18  C   UNL     1       0.308   4.747  -9.674  0.00  0.00    +0.001 A 
ATOM     19  C   UNL     1      -0.173   4.033  -8.620  0.00  0.00    +0.009 A 
ATOM     20  C   UNL     1      -0.553   4.702  -7.444  0.00  0.00    -0.013 A 
ATOM     21  C   UNL     1      -0.434   6.113  -7.377  0.00  0.00    -0.018 A 
ATOM     22  C   UNL     1       0.063   6.816  -8.488  0.00  0.00    +0.008 A 
ATOM     23  C   UNL     1      -0.808   6.781  -6.199  0.00  0.00    +0.008 A 
ATOM     24  C   UNL     1      -1.284   6.067  -5.142  0.00  0.00    +0.001 A 
ATOM     25  C   UNL     1      -1.407   4.680  -5.210  0.00  0.00    +0.006 A 
ATOM     26  C   UNL     1      -1.054   4.000  -6.335  0.00  0.00    -0.020 A 
ENDBRANCH  16  26
ENDBRANCH   1  16
TORSDOF 4
