REMARK  Name = ZINC25443824
REMARK  10 active torsions:
REMARK  status: ('A' for Active; 'I' for Inactive)
REMARK    1  A    between atoms: C_1  and  C_2
REMARK    2  A    between atoms: C_6  and  C_29
REMARK    3  A    between atoms: C_7  and  C_13
REMARK    4  A    between atoms: C_13  and  C_14
REMARK    5  A    between atoms: C_14  and  C_15
REMARK    6  A    between atoms: N_17  and  C_18
REMARK    7  A    between atoms: C_18  and  C_19
REMARK    8  A    between atoms: C_19  and  N_26
REMARK    9  A    between atoms: N_26  and  C_27
REMARK   10  A    between atoms: N_26  and  C_28
REMARK                            x       y       z     vdW  Elec       q    Type
REMARK                         _______ _______ _______ _____ _____    ______ ____
ROOT
ATOM      1  C   UNL     1       4.535   1.153   1.742  0.00  0.00    +0.213 C 
ATOM      2  O   UNL     1       4.336   0.041   2.182  0.00  0.00    -0.276 OA
ATOM      3  N   UNL     1       3.587   1.765   1.004  0.00  0.00    -0.317 N 
ATOM      4  H   UNL     1       3.768   2.774   0.605  0.00  0.00    +0.149 HD
ENDROOT
BRANCH   1   5
ATOM      5  C   UNL     1       5.841   1.851   2.020  0.00  0.00    +0.100 C 
BRANCH   5   6
ATOM      6  C   UNL     1       6.732   0.945   2.872  0.00  0.00    +0.052 C 
BRANCH   6  13
ATOM      7  C   UNL     1      13.238   4.979   5.099  0.00  0.00    +0.044 C 
ATOM      8  C   UNL     1      11.908   4.307   4.875  0.00  0.00    -0.047 A 
ATOM      9  C   UNL     1      10.877   4.505   5.782  0.00  0.00    +0.004 A 
ATOM     10  C   UNL     1       9.664   3.903   5.595  0.00  0.00    +0.012 A 
ATOM     11  C   UNL     1       9.461   3.084   4.480  0.00  0.00    +0.021 A 
ATOM     12  C   UNL     1       8.171   2.425   4.251  0.00  0.00    -0.030 A 
ATOM     13  C   UNL     1       8.038   1.643   3.150  0.00  0.00    +0.041 A 
ATOM     14  C   UNL     1       9.130   1.479   2.270  0.00  0.00    +0.341 A 
ATOM     15  O   UNL     1       8.999   0.770   1.289  0.00  0.00    -0.245 OA
ATOM     16  O   UNL     1      10.305   2.090   2.484  0.00  0.00    -0.422 OA
ATOM     17  C   UNL     1      10.503   2.882   3.559  0.00  0.00    +0.140 A 
ATOM     18  C   UNL     1      11.728   3.503   3.769  0.00  0.00    +0.050 A 
ATOM     19  C   UNL     1       7.025   2.612   5.211  0.00  0.00    +0.045 C 
ENDBRANCH   6  13
ENDBRANCH   5   6
ENDBRANCH   1   5
BRANCH   3  20
ATOM     20  C   UNL     1       2.317   1.087   0.734  0.00  0.00    +0.092 C 
BRANCH  20  21
ATOM     21  C   UNL     1       1.473   1.943  -0.213  0.00  0.00    -0.050 C 
ATOM     22  C   UNL     1       1.028   3.182   0.518  0.00  0.00    -0.010 C 
ATOM     23  C   UNL     1       0.973   2.867   2.027  0.00  0.00    -0.001 C 
ATOM     24  C   UNL     1      -0.240   2.155   2.401  0.00  0.00    -0.000 C 
ATOM     25  C   UNL     1      -0.354   0.783   1.706  0.00  0.00    -0.000 C 
ATOM     26  C   UNL     1      -0.856   0.998   0.304  0.00  0.00    -0.001 C 
ATOM     27  C   UNL     1       0.288   1.102  -0.723  0.00  0.00    -0.010 C 
BRANCH  21  28
ATOM     28  N   UNL     1       2.303   2.340  -1.358  0.00  0.00    +0.381 N 
ATOM     29  C   UNL     1       2.724   1.165  -2.135  0.00  0.00    -0.096 C 
ATOM     30  C   UNL     1       1.598   3.308  -2.209  0.00  0.00    -0.096 C 
ATOM     31  H   UNL     1       3.208   2.828  -0.968  0.00  0.00    -0.082 HD
ENDBRANCH  21  28
ENDBRANCH  20  21
ENDBRANCH   3  20
TORSDOF 6
