REMARK  Name = ZINC06798644
REMARK  3 active torsions:
REMARK  status: ('A' for Active; 'I' for Inactive)
REMARK    1  A    between atoms: C_1  and  C_2
REMARK    2  A    between atoms: C_8  and  N_10
REMARK    3  A    between atoms: C_11  and  C_13
REMARK                            x       y       z     vdW  Elec       q    Type
REMARK                         _______ _______ _______ _____ _____    ______ ____
ROOT
ATOM      1  C   UNL     1       0.002  -0.004   0.002  0.00  0.00    +0.078 C 
ATOM      2  C   UNL     1      -0.019   1.527   0.010  0.00  0.00    +0.032 C 
ATOM      3  C   UNL     1       1.419   2.052  -0.001  0.00  0.00    +0.108 C 
ATOM      4  N   UNL     1       2.134   1.548   1.179  0.00  0.00    -0.308 N 
ATOM      5  C   UNL     1       2.208   0.081   1.168  0.00  0.00    +0.108 C 
ATOM      6  C   UNL     1       0.794  -0.503   1.214  0.00  0.00    +0.032 C 
ATOM      7  C   UNL     1       3.401   2.109   1.270  0.00  0.00    +0.186 A 
ATOM      8  N   UNL     1       4.576   1.514   1.348  0.00  0.00    -0.124 NA
ATOM      9  N   UNL     1       5.723   2.271   1.429  0.00  0.00    -0.124 NA
ATOM     10  C   UNL     1       5.641   3.586   1.437  0.00  0.00    +0.192 A 
ATOM     11  S   UNL     1       3.876   3.831   1.320  0.00  0.00    -0.015 S 
ATOM     12  N   UNL     1       6.660   4.533   1.516  0.00  0.00    -0.249 N 
ATOM     13  C   UNL     1       8.088   4.207   1.609  0.00  0.00    +0.116 C 
ATOM     14  C   UNL     1       8.774   5.499   2.106  0.00  0.00    +0.029 C 
ATOM     15  C   UNL     1       7.786   6.586   1.623  0.00  0.00    +0.098 C 
ATOM     16  C   UNL     1       6.462   5.862   1.510  0.00  0.00    +0.221 C 
ATOM     17  O   UNL     1       5.379   6.403   1.429  0.00  0.00    -0.275 OA
ENDROOT
BRANCH   1  19
ATOM     18  N   UNL     1      -1.636  -1.856   0.079  0.00  0.00    -0.312 N 
ATOM     19  C   UNL     1      -1.409  -0.527   0.073  0.00  0.00    +0.216 C 
ATOM     20  O   UNL     1      -2.341   0.247   0.126  0.00  0.00    -0.276 OA
ATOM     21  H   UNL     1      -0.891  -2.475   0.037  0.00  0.00    +0.149 HD
BRANCH  18  28
ATOM     22  C   UNL     1      -2.405  -3.718   2.159  0.00  0.00    +0.009 C 
ATOM     23  C   UNL     1      -3.001  -3.770   0.751  0.00  0.00    +0.006 C 
ATOM     24  C   UNL     1      -4.434  -4.302   0.823  0.00  0.00    +0.005 C 
ATOM     25  C   UNL     1      -5.030  -4.354  -0.585  0.00  0.00    +0.000 C 
ATOM     26  C   UNL     1      -5.037  -2.948  -1.188  0.00  0.00    +0.002 C 
ATOM     27  C   UNL     1      -3.604  -2.417  -1.260  0.00  0.00    +0.022 C 
ATOM     28  C   UNL     1      -3.008  -2.364   0.148  0.00  0.00    +0.076 C 
ENDBRANCH  18  28
ENDBRANCH   1  19
TORSDOF 2
