REMARK  Name = ZINC04464224
REMARK  5 active torsions:
REMARK  status: ('A' for Active; 'I' for Inactive)
REMARK    1  A    between atoms: C_1  and  C_2
REMARK    2  A    between atoms: N_13  and  C_16
REMARK    3  A    between atoms: C_16  and  C_17
REMARK    4  A    between atoms: N_19  and  N_20
REMARK    5  A    between atoms: C_21  and  C_22
REMARK                            x       y       z     vdW  Elec       q    Type
REMARK                         _______ _______ _______ _____ _____    ______ ____
ROOT
ATOM      1  C   UNL     1      -1.545  -8.437   1.062  0.00  0.00    +0.223 C 
ENDROOT
BRANCH   1  13
ATOM      2  C   UNL     1      -0.365   0.582   2.410  0.00  0.00    +0.008 C 
ATOM      3  C   UNL     1      -0.207  -0.892   2.030  0.00  0.00    -0.009 C 
ATOM      4  C   UNL     1      -1.550  -1.611   2.190  0.00  0.00    +0.008 C 
ATOM      5  C   UNL     1      -1.465  -3.011   1.582  0.00  0.00    +0.037 C 
ATOM      6  C   UNL     1      -0.260  -3.736   2.176  0.00  0.00    -0.023 A 
ATOM      7  C   UNL     1       0.732  -3.040   2.780  0.00  0.00    -0.004 A 
ATOM      8  S   UNL     1       1.901  -4.266   3.311  0.00  0.00    -0.073 S 
ATOM      9  C   UNL     1       1.061  -5.702   2.725  0.00  0.00    +0.116 A 
ATOM     10  C   UNL     1      -0.109  -5.179   2.131  0.00  0.00    +0.076 A 
ATOM     11  C   UNL     1      -1.022  -6.122   1.550  0.00  0.00    +0.263 A 
ATOM     12  O   UNL     1      -2.060  -5.774   1.014  0.00  0.00    -0.267 OA
ATOM     13  N   UNL     1      -0.657  -7.423   1.636  0.00  0.00    -0.290 N 
ATOM     14  C   UNL     1       0.491  -7.831   2.228  0.00  0.00    +0.203 A 
ATOM     15  N   UNL     1       1.352  -6.998   2.771  0.00  0.00    -0.230 NA
ATOM     16  C   UNL     1       0.823  -1.555   2.957  0.00  0.00    +0.046 C 
ENDBRANCH   1  13
BRANCH   1  17
ATOM     17  C   UNL     1      -1.171  -8.676  -0.378  0.00  0.00    +0.252 C 
ATOM     18  O   UNL     1      -0.252  -8.060  -0.876  0.00  0.00    -0.272 OA
ATOM     19  N   UNL     1      -1.857  -9.575  -1.112  0.00  0.00    -0.206 N 
ATOM     20  H   UNL     1      -2.591 -10.067  -0.714  0.00  0.00    +0.177 HD
BRANCH  19  21
ATOM     21  N   UNL     1      -1.509  -9.797  -2.451  0.00  0.00    -0.188 NA
ATOM     22  C   UNL     1      -2.237 -10.578  -3.190  0.00  0.00    +0.140 C 
BRANCH  22  23
ATOM     23  C   UNL     1      -3.538 -11.057  -2.696  0.00  0.00    +0.020 A 
ATOM     24  C   UNL     1      -4.295 -10.490  -1.718  0.00  0.00    +0.093 A 
ATOM     25  N   UNL     1      -5.433 -11.217  -1.538  0.00  0.00    -0.360 N 
ATOM     26  H   UNL     1      -6.129 -11.009  -0.895  0.00  0.00    +0.165 HD
ATOM     27  C   UNL     1      -5.455 -12.293  -2.401  0.00  0.00    +0.047 A 
ATOM     28  C   UNL     1      -4.279 -12.241  -3.167  0.00  0.00    +0.008 A 
ATOM     29  C   UNL     1      -4.034 -13.211  -4.137  0.00  0.00    +0.010 A 
ATOM     30  C   UNL     1      -4.952 -14.217  -4.341  0.00  0.00    +0.001 A 
ATOM     31  C   UNL     1      -6.115 -14.268  -3.587  0.00  0.00    +0.002 A 
ATOM     32  C   UNL     1      -6.366 -13.320  -2.619  0.00  0.00    +0.026 A 
ENDBRANCH  22  23
ENDBRANCH  19  21
ENDBRANCH   1  17
TORSDOF 4
