REMARK  Name = ZINC38104127
REMARK  3 active torsions:
REMARK  status: ('A' for Active; 'I' for Inactive)
REMARK    1  A    between atoms: C_6  and  N_7
REMARK    2  A    between atoms: C_8  and  C_10
REMARK    3  A    between atoms: C_12  and  N_17
REMARK                            x       y       z     vdW  Elec       q    Type
REMARK                         _______ _______ _______ _____ _____    ______ ____
ROOT
ATOM      1  N   UNL     1      -1.199  -0.721   0.010  0.00  0.00    -0.281 N 
ATOM      2  C   UNL     1      -1.183  -2.064  -0.099  0.00  0.00    +0.251 C 
ATOM      3  O   UNL     1      -0.123  -2.660  -0.113  0.00  0.00    -0.270 OA
ATOM      4  H   UNL     1      -2.044  -0.251   0.089  0.00  0.00    +0.155 HD
ENDROOT
BRANCH   1  10
ATOM      5  C   UNL     1       0.065   1.248  -0.587  0.00  0.00    +0.025 A 
ATOM      6  C   UNL     1       1.252   1.954  -0.586  0.00  0.00    +0.025 A 
ATOM      7  C   UNL     1       2.379   1.416   0.008  0.00  0.00    +0.076 A 
ATOM      8  C   UNL     1       2.321   0.165   0.604  0.00  0.00    +0.143 A 
ATOM      9  C   UNL     1       1.134  -0.545   0.606  0.00  0.00    +0.063 A 
ATOM     10  C   UNL     1       0.003  -0.005   0.010  0.00  0.00    +0.036 A 
ATOM     11  F   UNL     1       3.423  -0.359   1.183  0.00  0.00    -0.204 F 
ATOM     12 CL   UNL     1       3.869   2.306   0.007  0.00  0.00    -0.081 Cl
ENDBRANCH   1  10
BRANCH   2  13
ATOM     13  C   UNL     1      -2.452  -2.812  -0.202  0.00  0.00    +0.074 A 
ATOM     14  C   UNL     1      -3.671  -2.130  -0.192  0.00  0.00    +0.048 A 
ATOM     15  C   UNL     1      -4.853  -2.834  -0.288  0.00  0.00    +0.127 A 
ATOM     16  C   UNL     1      -4.835  -4.215  -0.395  0.00  0.00    +0.035 A 
ATOM     17  C   UNL     1      -3.634  -4.898  -0.405  0.00  0.00    +0.041 A 
ATOM     18  C   UNL     1      -2.440  -4.206  -0.315  0.00  0.00    +0.136 A 
ATOM     19  F   UNL     1      -1.266  -4.874  -0.331  0.00  0.00    -0.205 F 
BRANCH  15  20
ATOM     20  N   UNL     1      -6.145  -2.112  -0.278  0.00  0.00    +0.056 N 
ATOM     21  O   UNL     1      -6.163  -0.907  -0.185  0.00  0.00    -0.126 OA
ATOM     22  O   UNL     1      -7.182  -2.727  -0.363  0.00  0.00    -0.126 OA
ENDBRANCH  15  20
ENDBRANCH   2  13
TORSDOF 3
