REMARK  Name = ZINC04491261
REMARK  6 active torsions:
REMARK  status: ('A' for Active; 'I' for Inactive)
REMARK    1  A    between atoms: C_1  and  C_2
REMARK    2  A    between atoms: C_7  and  C_10
REMARK    3  A    between atoms: C_11  and  C_13
REMARK    4  A    between atoms: C_15  and  C_25
REMARK    5  A    between atoms: N_17  and  C_18
REMARK    6  A    between atoms: N_29  and  C_30
REMARK                            x       y       z     vdW  Elec       q    Type
REMARK                         _______ _______ _______ _____ _____    ______ ____
ROOT
ATOM      1  C   UNL     1       2.616   3.990  -0.063  0.00  0.00    +0.130 A 
ATOM      2  C   UNL     1       2.491   5.209  -0.694  0.00  0.00    +0.064 A 
ATOM      3  C   UNL     1       1.168   5.316  -1.154  0.00  0.00    +0.110 A 
ATOM      4  N   UNL     1       0.521   4.214  -0.825  0.00  0.00    -0.164 NA
ATOM      5  N   UNL     1       1.400   3.363  -0.145  0.00  0.00    -0.227 N 
ENDROOT
BRANCH   1  14
ATOM      6  C   UNL     1       5.295   3.859   3.928  0.00  0.00    +0.039 C 
ATOM      7  C   UNL     1       6.311   4.415   2.928  0.00  0.00    +0.133 C 
ATOM      8  C   UNL     1       6.058   3.802   1.546  0.00  0.00    +0.139 C 
ATOM      9  N   UNL     1       4.769   4.304   1.045  0.00  0.00    -0.291 N 
ATOM     10  C   UNL     1       4.538   5.758   1.065  0.00  0.00    +0.139 C 
ATOM     11  C   UNL     1       4.863   6.275   2.476  0.00  0.00    +0.133 C 
ATOM     12  O   UNL     1       6.172   5.835   2.846  0.00  0.00    -0.371 OA
ATOM     13  C   UNL     1       4.817   7.804   2.481  0.00  0.00    +0.039 C 
ATOM     14  C   UNL     1       3.830   3.459   0.576  0.00  0.00    +0.265 C 
ATOM     15  O   UNL     1       3.986   2.258   0.681  0.00  0.00    -0.268 OA
ENDBRANCH   1  14
BRANCH   5  16
ATOM     16  C   UNL     1       1.090   2.098   0.367  0.00  0.00    +0.066 A 
ATOM     17  C   UNL     1      -0.042   1.923   1.152  0.00  0.00    +0.029 A 
ATOM     18  C   UNL     1      -0.345   0.673   1.656  0.00  0.00    +0.022 A 
ATOM     19  C   UNL     1       0.478  -0.404   1.379  0.00  0.00    +0.041 A 
ATOM     20  C   UNL     1       1.607  -0.233   0.597  0.00  0.00    +0.022 A 
ATOM     21  C   UNL     1       1.915   1.014   0.090  0.00  0.00    +0.029 A 
ATOM     22 CL   UNL     1       0.094  -1.974   2.014  0.00  0.00    -0.084 Cl
ENDBRANCH   5  16
BRANCH   3  23
ATOM     23  C   UNL     1       0.597   6.469  -1.884  0.00  0.00    +0.069 A 
ATOM     24  C   UNL     1      -0.648   6.534  -2.431  0.00  0.00    +0.029 A 
ATOM     25  C   UNL     1      -0.780   7.801  -3.023  0.00  0.00    +0.020 A 
ATOM     26  C   UNL     1       0.380   8.466  -2.831  0.00  0.00    +0.086 A 
ATOM     27  N   UNL     1       1.230   7.659  -2.134  0.00  0.00    -0.348 N 
ATOM     28  C   UNL     1       2.593   8.006  -1.722  0.00  0.00    +0.149 C 
ENDBRANCH   3  23
TORSDOF 3
