REMARK  Name = ZINC00633387
REMARK  3 active torsions:
REMARK  status: ('A' for Active; 'I' for Inactive)
REMARK    1  A    between atoms: C_3  and  O_25
REMARK    2  A    between atoms: C_6  and  C_7
REMARK    3  A    between atoms: C_9  and  C_17
REMARK                            x       y       z     vdW  Elec       q    Type
REMARK                         _______ _______ _______ _____ _____    ______ ____
ROOT
ATOM      1  C   UNL     1      -1.259  -0.758   0.011  0.00  0.00    +0.055 C 
ATOM      2  C   UNL     1      -1.200  -2.260   0.008  0.00  0.00    +0.088 C 
ATOM      3  C   UNL     1      -2.364  -2.861   0.804  0.00  0.00    +0.148 C 
ATOM      4  N   UNL     1      -3.575  -2.110   0.475  0.00  0.00    -0.222 N 
ATOM      5  C   UNL     1      -3.550  -0.790   0.117  0.00  0.00    +0.249 A 
ATOM      6  N   UNL     1      -4.788  -0.417  -0.095  0.00  0.00    -0.198 NA
ATOM      7  C   UNL     1      -5.609  -1.449   0.104  0.00  0.00    +0.247 A 
ATOM      8  N   UNL     1      -4.909  -2.504   0.451  0.00  0.00    -0.156 NA
ATOM      9  N   UNL     1      -2.385  -0.097   0.025  0.00  0.00    -0.215 NA
ENDROOT
BRANCH   3  10
ATOM     10  C   UNL     1      -2.543  -4.309   0.428  0.00  0.00    -0.004 A 
ATOM     11  C   UNL     1      -2.821  -4.654  -0.882  0.00  0.00    +0.008 A 
ATOM     12  C   UNL     1      -2.986  -5.981  -1.228  0.00  0.00    +0.020 A 
ATOM     13  C   UNL     1      -2.873  -6.967  -0.264  0.00  0.00    +0.042 A 
ATOM     14  C   UNL     1      -2.595  -6.624   1.047  0.00  0.00    +0.040 A 
ATOM     15  C   UNL     1      -2.425  -5.295   1.392  0.00  0.00    +0.048 A 
ATOM     16 CL   UNL     1      -2.070  -4.862   3.035  0.00  0.00    -0.083 Cl
ATOM     17 CL   UNL     1      -3.080  -8.635  -0.698  0.00  0.00    -0.083 Cl
ENDBRANCH   3  10
BRANCH   1  23
ATOM     18  C   UNL     1      -0.017   1.396   0.010  0.00  0.00    +0.013 A 
ATOM     19  C   UNL     1       1.167   2.098   0.002  0.00  0.00    +0.046 A 
ATOM     20  C   UNL     1       2.380   1.419  -0.013  0.00  0.00    +0.117 A 
ATOM     21  C   UNL     1       2.405   0.029  -0.022  0.00  0.00    +0.046 A 
ATOM     22  C   UNL     1       1.226  -0.683  -0.014  0.00  0.00    +0.013 A 
ATOM     23  C   UNL     1       0.002  -0.004   0.002  0.00  0.00    -0.003 A 
BRANCH  20  24
ATOM     24  O   UNL     1       3.545   2.116  -0.021  0.00  0.00    -0.507 OA
ATOM     25  H   UNL     1       3.891   2.313   0.860  0.00  0.00    +0.292 HD
ENDBRANCH  20  24
ENDBRANCH   1  23
TORSDOF 3
