REMARK  Name = ZINC14014081
REMARK  12 active torsions:
REMARK  status: ('A' for Active; 'I' for Inactive)
REMARK    1  A    between atoms: C_1  and  C_2
REMARK    2  A    between atoms: C_5  and  N_9
REMARK    3  A    between atoms: C_6  and  C_8
REMARK    4  A    between atoms: C_21  and  C_23
REMARK    5  A    between atoms: C_23  and  C_24
REMARK    6  A    between atoms: N_26  and  C_27
REMARK    7  A    between atoms: C_27  and  C_28
REMARK    8  A    between atoms: C_28  and  C_29
REMARK    9  A    between atoms: C_32  and  O_37
REMARK   10  A    between atoms: C_33  and  O_35
REMARK   11  A    between atoms: O_35  and  C_36
REMARK   12  A    between atoms: O_37  and  C_38
REMARK                            x       y       z     vdW  Elec       q    Type
REMARK                         _______ _______ _______ _____ _____    ______ ____
ROOT
ATOM      1  N   UNL     1      -1.104  -0.369   0.155  0.00  0.00    -0.214 N 
ATOM      2  C   UNL     1      -2.376   0.116   0.192  0.00  0.00    +0.171 A 
ATOM      3  C   UNL     1      -3.236  -0.991   0.103  0.00  0.00    +0.103 A 
ATOM      4  C   UNL     1      -2.420  -2.140   0.013  0.00  0.00    +0.150 A 
ATOM      5  N   UNL     1      -1.172  -1.763   0.038  0.00  0.00    -0.172 NA
ATOM      6  C   UNL     1      -4.630  -0.774   0.119  0.00  0.00    +0.266 A 
ATOM      7  O   UNL     1      -5.396  -1.719   0.043  0.00  0.00    -0.267 OA
ATOM      8  N   UNL     1      -5.121   0.503   0.220  0.00  0.00    -0.283 N 
ATOM      9  C   UNL     1      -4.213   1.520   0.301  0.00  0.00    +0.174 A 
ATOM     10  N   UNL     1      -2.912   1.337   0.289  0.00  0.00    -0.203 NA
ATOM     11  S   UNL     1      -5.145   3.033   0.421  0.00  0.00    -0.085 S 
ATOM     12  C   UNL     1      -6.840   2.343   0.365  0.00  0.00    +0.103 C 
ATOM     13  C   UNL     1      -6.544   0.841   0.245  0.00  0.00    +0.112 C 
ENDROOT
BRANCH   1  18
ATOM     14  C   UNL     1       3.648   2.722   0.403  0.00  0.00    +0.044 C 
ATOM     15  C   UNL     1       2.386   1.901   0.338  0.00  0.00    -0.050 A 
ATOM     16  C   UNL     1       1.368   2.268  -0.523  0.00  0.00    +0.005 A 
ATOM     17  C   UNL     1       0.210   1.518  -0.586  0.00  0.00    +0.028 A 
ATOM     18  C   UNL     1       0.068   0.394   0.216  0.00  0.00    +0.071 A 
ATOM     19  C   UNL     1       1.092   0.028   1.080  0.00  0.00    -0.025 A 
ATOM     20  C   UNL     1       2.248   0.782   1.138  0.00  0.00    +0.008 A 
ATOM     21  C   UNL     1       0.943  -1.191   1.954  0.00  0.00    +0.046 C 
ENDBRANCH   1  18
BRANCH  13  22
ATOM     22  C   UNL     1      -7.191   0.128   1.434  0.00  0.00    +0.121 C 
BRANCH  22  23
ATOM     23  C   UNL     1      -8.682   0.339   1.396  0.00  0.00    +0.215 C 
ATOM     24  O   UNL     1      -9.191   0.898   0.447  0.00  0.00    -0.276 OA
ATOM     25  N   UNL     1      -9.451  -0.093   2.415  0.00  0.00    -0.315 N 
ATOM     26  H   UNL     1      -9.043  -0.540   3.174  0.00  0.00    +0.149 HD
BRANCH  25  27
ATOM     27  C   UNL     1     -10.901   0.112   2.378  0.00  0.00    +0.109 C 
BRANCH  27  28
ATOM     28  C   UNL     1     -11.531  -0.468   3.646  0.00  0.00    +0.054 C 
BRANCH  28  29
ATOM     29  C   UNL     1     -13.022  -0.256   3.608  0.00  0.00    -0.042 A 
ATOM     30  C   UNL     1     -13.840  -1.216   3.041  0.00  0.00    +0.007 A 
ATOM     31  C   UNL     1     -15.209  -1.027   3.004  0.00  0.00    +0.049 A 
ATOM     32  C   UNL     1     -15.764   0.126   3.536  0.00  0.00    +0.161 A 
ATOM     33  C   UNL     1     -14.941   1.092   4.106  0.00  0.00    +0.162 A 
ATOM     34  C   UNL     1     -13.570   0.894   4.145  0.00  0.00    +0.053 A 
BRANCH  33  35
ATOM     35  O   UNL     1     -15.481   2.225   4.630  0.00  0.00    -0.491 OA
ATOM     36  C   UNL     1     -14.575   3.172   5.199  0.00  0.00    +0.277 C 
ENDBRANCH  33  35
BRANCH  32  37
ATOM     37  O   UNL     1     -17.111   0.313   3.501  0.00  0.00    -0.491 OA
ATOM     38  C   UNL     1     -17.894  -0.721   2.900  0.00  0.00    +0.277 C 
ENDBRANCH  32  37
ENDBRANCH  28  29
ENDBRANCH  27  28
ENDBRANCH  25  27
ENDBRANCH  22  23
ENDBRANCH  13  22
TORSDOF 8
