REMARK  Name = ZINC62955381
REMARK  2 active torsions:
REMARK  status: ('A' for Active; 'I' for Inactive)
REMARK    1  A    between atoms: C_4  and  N_6
REMARK    2  A    between atoms: C_7  and  N_12
REMARK                            x       y       z     vdW  Elec       q    Type
REMARK                         _______ _______ _______ _____ _____    ______ ____
ROOT
ATOM      1  N   UNL     1       1.136  -1.207  -1.821  0.00  0.00    -0.288 N 
ATOM      2  C   UNL     1       1.579  -2.475  -2.076  0.00  0.00    +0.204 A 
ATOM      3  N   UNL     1       1.167  -2.798  -3.270  0.00  0.00    -0.114 NA
ATOM      4  N   UNL     1       0.500  -1.827  -3.783  0.00  0.00    -0.120 NA
ATOM      5  C   UNL     1       0.445  -0.826  -2.935  0.00  0.00    +0.204 A 
ATOM      6  S   UNL     1      -0.366   0.718  -3.188  0.00  0.00    -0.009 SA
ENDROOT
BRANCH   2   7
ATOM      7  N   UNL     1       2.334  -3.278  -1.216  0.00  0.00    -0.365 NA
ATOM      8  C   UNL     1       1.587  -4.504  -0.912  0.00  0.00    +0.088 C 
ATOM      9  C   UNL     1       2.370  -5.345   0.100  0.00  0.00    +0.024 C 
ATOM     10  C   UNL     1       3.736  -5.695  -0.486  0.00  0.00    -0.026 C 
ATOM     11  C   UNL     1       4.564  -6.478   0.549  0.00  0.00    +0.007 C 
ATOM     12  C   UNL     1       4.333  -7.963   0.172  0.00  0.00    +0.001 C 
ATOM     13  C   UNL     1       4.303  -7.924  -1.376  0.00  0.00    +0.001 C 
ATOM     14  C   UNL     1       3.567  -6.609  -1.708  0.00  0.00    +0.007 C 
ATOM     15  C   UNL     1       4.477  -4.420  -0.885  0.00  0.00    +0.024 C 
ATOM     16  C   UNL     1       3.610  -3.616  -1.858  0.00  0.00    +0.088 C 
ATOM     17  H   UNL     1       2.513  -2.775  -0.359  0.00  0.00    +0.129 HD
ENDBRANCH   2   7
BRANCH   1  21
ATOM     18  C   UNL     1      -0.019   1.538   0.011  0.00  0.00    +0.002 C 
ATOM     19  C   UNL     1       1.477   1.939  -0.002  0.00  0.00    +0.002 C 
ATOM     20  C   UNL     1       2.107   0.881  -0.942  0.00  0.00    +0.025 C 
ATOM     21  C   UNL     1       1.353  -0.422  -0.604  0.00  0.00    +0.092 C 
ATOM     22  C   UNL     1       0.002  -0.004   0.002  0.00  0.00    +0.025 C 
ENDBRANCH   1  21
TORSDOF 2
