REMARK  Name = ZINC13041511
REMARK  5 active torsions:
REMARK  status: ('A' for Active; 'I' for Inactive)
REMARK    1  A    between atoms: C_1  and  C_2
REMARK    2  A    between atoms: C_5  and  N_8
REMARK    3  A    between atoms: C_12  and  N_16
REMARK    4  A    between atoms: C_19  and  C_20
REMARK    5  A    between atoms: C_23  and  C_24
REMARK                            x       y       z     vdW  Elec       q    Type
REMARK                         _______ _______ _______ _____ _____    ______ ____
ROOT
ATOM      1  N   UNL     1      -1.649   0.673   1.093  0.00  0.00    -0.306 N 
ATOM      2  C   UNL     1      -1.153  -0.226   0.039  0.00  0.00    +0.128 C 
ATOM      3  C   UNL     1      -2.028   0.126  -1.180  0.00  0.00    +0.132 C 
ATOM      4  C   UNL     1      -2.669   1.436   0.562  0.00  0.00    +0.082 C 
ATOM      5  N   UNL     1      -2.927   1.183  -0.690  0.00  0.00    -0.374 N 
ATOM      6  H   UNL     1      -3.648   1.652  -1.250  0.00  0.00    +0.161 HD
ENDROOT
BRANCH   1  11
ATOM      7  N   UNL     1       0.229  -0.895   3.383  0.00  0.00    -0.209 N 
ATOM      8  C   UNL     1       1.078   0.099   3.098  0.00  0.00    +0.228 C 
ATOM      9  O   UNL     1       2.274   0.081   3.299  0.00  0.00    -0.275 OA
ATOM     10  C   UNL     1       0.310   1.251   2.487  0.00  0.00    +0.128 C 
ATOM     11  C   UNL     1      -1.146   0.744   2.467  0.00  0.00    +0.170 C 
ATOM     12  C   UNL     1      -1.048  -0.641   3.070  0.00  0.00    +0.247 C 
ATOM     13  O   UNL     1      -1.978  -1.399   3.242  0.00  0.00    -0.273 OA
BRANCH   7  18
ATOM     14  C   UNL     1       1.901  -5.788   5.724  0.00  0.00    +0.044 C 
ATOM     15  C   UNL     1       1.457  -4.489   5.103  0.00  0.00    -0.050 A 
ATOM     16  C   UNL     1       2.015  -4.069   3.909  0.00  0.00    +0.005 A 
ATOM     17  C   UNL     1       1.610  -2.878   3.337  0.00  0.00    +0.024 A 
ATOM     18  C   UNL     1       0.641  -2.104   3.961  0.00  0.00    +0.044 A 
ATOM     19  C   UNL     1       0.087  -2.526   5.162  0.00  0.00    +0.024 A 
ATOM     20  C   UNL     1       0.492  -3.720   5.726  0.00  0.00    +0.005 A 
ENDBRANCH   7  18
ENDBRANCH   1  11
BRANCH   4  21
ATOM     21  C   UNL     1      -3.373   2.411   1.312  0.00  0.00    +0.121 C 
ATOM     22  C   UNL     1      -4.323   3.235   0.812  0.00  0.00    +0.169 C 
ATOM     23  C   UNL     1      -4.861   4.125   1.836  0.00  0.00    -0.004 C 
ATOM     24  C   UNL     1      -5.817   5.059   1.655  0.00  0.00    +0.015 C 
ATOM     25  C   UNL     1      -4.154   3.812   3.136  0.00  0.00    +0.040 C 
ATOM     26  C   UNL     1      -3.178   2.677   2.784  0.00  0.00    +0.023 C 
ATOM     27  O   UNL     1      -4.726   3.234  -0.481  0.00  0.00    -0.292 OA
BRANCH  24  28
ATOM     28  C   UNL     1      -6.271   5.394   0.296  0.00  0.00    -0.025 A 
ATOM     29  C   UNL     1      -5.339   5.591  -0.728  0.00  0.00    +0.009 A 
ATOM     30  C   UNL     1      -5.772   5.899  -2.000  0.00  0.00    +0.020 A 
ATOM     31  C   UNL     1      -7.126   6.024  -2.263  0.00  0.00    +0.041 A 
ATOM     32  C   UNL     1      -8.055   5.836  -1.253  0.00  0.00    +0.020 A 
ATOM     33  C   UNL     1      -7.637   5.522   0.023  0.00  0.00    +0.009 A 
ATOM     34 CL   UNL     1      -7.662   6.420  -3.866  0.00  0.00    -0.084 Cl
ENDBRANCH  24  28
ENDBRANCH   4  21
TORSDOF 4
