REMARK  Name = ZINC32899964
REMARK  11 active torsions:
REMARK  status: ('A' for Active; 'I' for Inactive)
REMARK    1  A    between atoms: C_1  and  C_2
REMARK    2  A    between atoms: C_4  and  C_31
REMARK    3  A    between atoms: C_5  and  N_9
REMARK    4  A    between atoms: C_6  and  C_8
REMARK    5  A    between atoms: C_10  and  C_12
REMARK    6  A    between atoms: C_12  and  N_13
REMARK    7  A    between atoms: N_13  and  C_14
REMARK    8  A    between atoms: C_15  and  C_17
REMARK    9  A    between atoms: C_19  and  C_28
REMARK   10  A    between atoms: C_23  and  C_27
REMARK   11  A    between atoms: N_25  and  C_26
REMARK                            x       y       z     vdW  Elec       q    Type
REMARK                         _______ _______ _______ _____ _____    ______ ____
ROOT
ATOM      1  N   UNL     1       1.336   4.639   4.403  0.00  0.00    -0.292 N 
ATOM      2  C   UNL     1       0.440   4.412   5.540  0.00  0.00    +0.133 C 
ATOM      3  C   UNL     1       1.290   3.818   3.335  0.00  0.00    +0.248 C 
ATOM      4  O   UNL     1       2.098   3.945   2.436  0.00  0.00    -0.270 OA
ENDROOT
BRANCH   3   5
ATOM      5  C   UNL     1       0.256   2.764   3.257  0.00  0.00    +0.051 A 
ATOM      6  C   UNL     1      -1.098   3.074   3.364  0.00  0.00    +0.037 A 
ATOM      7  C   UNL     1      -2.036   2.056   3.291  0.00  0.00    +0.047 A 
ATOM      8  N   UNL     1      -1.682   0.802   3.112  0.00  0.00    -0.232 NA
ATOM      9  C   UNL     1      -0.412   0.441   2.997  0.00  0.00    +0.159 A 
ATOM     10  C   UNL     1       0.609   1.409   3.065  0.00  0.00    +0.054 A 
ATOM     11  C   UNL     1       1.837   0.730   2.912  0.00  0.00    +0.070 A 
ATOM     12  N   UNL     1       1.592  -0.540   2.763  0.00  0.00    -0.174 NA
ATOM     13  N   UNL     1       0.211  -0.765   2.809  0.00  0.00    -0.249 N 
ATOM     14  C   UNL     1      -0.452  -2.065   2.679  0.00  0.00    +0.174 C 
ATOM     15  C   UNL     1       3.202   1.368   2.919  0.00  0.00    +0.068 C 
BRANCH   7  16
ATOM     16  C   UNL     1      -3.499   2.395   3.413  0.00  0.00    +0.038 C 
ATOM     17  C   UNL     1      -3.901   3.861   3.239  0.00  0.00    +0.010 C 
ATOM     18  C   UNL     1      -4.230   2.841   2.145  0.00  0.00    +0.010 C 
ENDBRANCH   7  16
ENDBRANCH   3   5
BRANCH   1  19
ATOM     19  C   UNL     1       2.281   5.758   4.427  0.00  0.00    +0.203 C 
BRANCH  19  21
ATOM     20  N   UNL     1       2.313   8.137   3.751  0.00  0.00    -0.284 N 
ATOM     21  C   UNL     1       1.628   6.980   3.833  0.00  0.00    +0.235 C 
ATOM     22  O   UNL     1       0.486   6.921   3.430  0.00  0.00    -0.274 OA
ATOM     23  H   UNL     1       3.364   8.179   4.076  0.00  0.00    +0.155 HD
BRANCH  20  28
ATOM     24  C   UNL     1      -0.214  12.794   1.724  0.00  0.00    +0.044 C 
ATOM     25  C   UNL     1       0.457  11.557   2.263  0.00  0.00    -0.050 A 
ATOM     26  C   UNL     1       1.020  11.572   3.526  0.00  0.00    +0.008 A 
ATOM     27  C   UNL     1       1.636  10.439   4.022  0.00  0.00    -0.029 A 
ATOM     28  C   UNL     1       1.690   9.286   3.251  0.00  0.00    +0.039 A 
ATOM     29  C   UNL     1       1.128   9.276   1.981  0.00  0.00    -0.029 A 
ATOM     30  C   UNL     1       0.509  10.410   1.492  0.00  0.00    +0.008 A 
ATOM     31  C   UNL     1       1.190   8.028   1.139  0.00  0.00    +0.045 C 
ATOM     32  C   UNL     1       2.248  10.456   5.399  0.00  0.00    +0.045 C 
ENDBRANCH  20  28
ENDBRANCH  19  21
ENDBRANCH   1  19
TORSDOF 5
