REMARK  Name = ZINC58513670
REMARK  5 active torsions:
REMARK  status: ('A' for Active; 'I' for Inactive)
REMARK    1  A    between atoms: N_10  and  C_11
REMARK    2  A    between atoms: C_11  and  C_13
REMARK    3  A    between atoms: C_13  and  N_14
REMARK    4  A    between atoms: N_14  and  S_15
REMARK    5  A    between atoms: S_15  and  C_18
REMARK                            x       y       z     vdW  Elec       q    Type
REMARK                         _______ _______ _______ _____ _____    ______ ____
ROOT
ATOM      1  C   UNL     1       5.677  -1.469  -0.062  0.00  0.00    +0.255 C 
ATOM      2  O   UNL     1       5.337  -2.637  -0.065  0.00  0.00    -0.272 OA
ENDROOT
BRANCH   1  12
ATOM      3  C   UNL     1      -0.016   1.352   0.009  0.00  0.00    +0.005 A 
ATOM      4  C   UNL     1       1.196   2.069   0.002  0.00  0.00    +0.018 A 
ATOM      5  C   UNL     1       2.375   1.420  -0.013  0.00  0.00    +0.096 A 
ATOM      6  N   UNL     1       2.419   0.048  -0.021  0.00  0.00    -0.271 N 
ATOM      7  C   UNL     1       1.247  -0.681  -0.013  0.00  0.00    +0.160 A 
ATOM      8  C   UNL     1       0.002  -0.004   0.002  0.00  0.00    +0.048 A 
ATOM      9  N   UNL     1       1.552  -1.959  -0.023  0.00  0.00    -0.153 NA
ATOM     10  N   UNL     1       2.949  -2.074  -0.038  0.00  0.00    -0.246 N 
ATOM     11  C   UNL     1       3.462  -0.829  -0.036  0.00  0.00    +0.222 A 
ATOM     12  N   UNL     1       4.760  -0.511  -0.048  0.00  0.00    -0.144 NA
ATOM     13  H   UNL     1       3.455  -2.902  -0.047  0.00  0.00    +0.192 HD
ENDBRANCH   1  12
BRANCH   1  14
ATOM     14  C   UNL     1       7.141  -1.110  -0.075  0.00  0.00    +0.203 C 
BRANCH  14  15
ATOM     15  N   UNL     1       7.944  -2.335  -0.089  0.00  0.00    -0.181 NA
ATOM     16  H   UNL     1       7.533  -3.187   0.128  0.00  0.00    +0.149 HD
BRANCH  15  17
ATOM     17  S   UNL     1       9.552  -2.267  -0.477  0.00  0.00    +0.065 S 
ATOM     18  O   UNL     1      10.051  -3.594  -0.377  0.00  0.00    -0.153 OA
ATOM     19  O   UNL     1       9.650  -1.504  -1.671  0.00  0.00    -0.153 OA
BRANCH  17  20
ATOM     20  C   UNL     1      10.352  -1.332   0.785  0.00  0.00    +0.142 A 
ATOM     21  C   UNL     1      10.914  -1.764   1.940  0.00  0.00    +0.036 A 
ATOM     22  C   UNL     1      11.493  -0.840   2.790  0.00  0.00    +0.010 A 
ATOM     23  C   UNL     1      11.482   0.470   2.442  0.00  0.00    +0.047 A 
ATOM     24  S   UNL     1      10.640   0.428   0.869  0.00  0.00    -0.077 S 
ENDBRANCH  17  20
ENDBRANCH  15  17
ENDBRANCH  14  15
ENDBRANCH   1  14
TORSDOF 5
