REMARK  Name = ZINC17302192
REMARK  6 active torsions:
REMARK  status: ('A' for Active; 'I' for Inactive)
REMARK    1  A    between atoms: C_1  and  O_2
REMARK    2  A    between atoms: O_2  and  C_3
REMARK    3  A    between atoms: C_11  and  C_12
REMARK    4  A    between atoms: C_15  and  O_20
REMARK    5  A    between atoms: C_16  and  O_18
REMARK    6  A    between atoms: O_18  and  C_19
REMARK                            x       y       z     vdW  Elec       q    Type
REMARK                         _______ _______ _______ _____ _____    ______ ____
ROOT
ATOM      1  C   UNL     1      -1.174  10.382   1.317  0.00  0.00    +0.163 A 
ATOM      2  C   UNL     1      -1.086  11.696   0.894  0.00  0.00    +0.049 A 
ATOM      3  C   UNL     1      -0.486  12.010  -0.315  0.00  0.00    +0.004 A 
ATOM      4  C   UNL     1       0.031  11.011  -1.111  0.00  0.00    +0.016 A 
ATOM      5  C   UNL     1      -0.050   9.682  -0.696  0.00  0.00    +0.071 A 
ATOM      6  C   UNL     1      -0.655   9.356   0.525  0.00  0.00    +0.181 A 
ATOM      7  O   UNL     1      -0.620   8.017   0.708  0.00  0.00    -0.448 OA
ATOM      8  C   UNL     1      -0.011   7.384  -0.321  0.00  0.00    +0.176 C 
ATOM      9  C   UNL     1       0.186   6.044  -0.436  0.00  0.00    +0.058 C 
ATOM     10  C   UNL     1       0.393   8.408  -1.294  0.00  0.00    +0.232 C 
ATOM     11  O   UNL     1       0.966   8.242  -2.357  0.00  0.00    -0.283 OA
ENDROOT
BRANCH   9  12
ATOM     12  C   UNL     1      -0.374   5.131   0.567  0.00  0.00    -0.018 A 
ATOM     13  C   UNL     1      -1.001   5.643   1.710  0.00  0.00    +0.012 A 
ATOM     14  C   UNL     1      -1.526   4.784   2.650  0.00  0.00    +0.050 A 
ATOM     15  C   UNL     1      -1.441   3.410   2.464  0.00  0.00    +0.158 A 
ATOM     16  C   UNL     1      -0.814   2.892   1.331  0.00  0.00    +0.162 A 
ATOM     17  C   UNL     1      -0.284   3.746   0.384  0.00  0.00    +0.057 A 
BRANCH  16  18
ATOM     18  O   UNL     1      -0.728   1.546   1.157  0.00  0.00    -0.491 OA
ATOM     19  C   UNL     1      -0.078   1.086  -0.029  0.00  0.00    +0.277 C 
ENDBRANCH  16  18
BRANCH  15  20
ATOM     20  O   UNL     1      -1.966   2.568   3.391  0.00  0.00    -0.503 OA
ATOM     21  H   UNL     1      -1.346   2.317   4.090  0.00  0.00    +0.292 HD
ENDBRANCH  15  20
ENDBRANCH   9  12
BRANCH   1  23
ATOM     22  C   UNL     1      -2.273  11.188   3.265  0.00  0.00    +0.277 C 
ATOM     23  O   UNL     1      -1.765  10.089   2.506  0.00  0.00    -0.491 OA
ENDBRANCH   1  23
TORSDOF 4
