REMARK  Name = ZINC52007328
REMARK  3 active torsions:
REMARK  status: ('A' for Active; 'I' for Inactive)
REMARK    1  A    between atoms: C_6  and  N_10
REMARK    2  A    between atoms: N_10  and  C_11
REMARK    3  A    between atoms: C_17  and  O_19
REMARK                            x       y       z     vdW  Elec       q    Type
REMARK                         _______ _______ _______ _____ _____    ______ ____
ROOT
ATOM      1  N   UNL     1      -2.386  -0.477   0.022  0.00  0.00    -0.323 N 
ATOM      2  H   UNL     1      -2.570   0.475   0.030  0.00  0.00    +0.148 HD
ENDROOT
BRANCH   1   8
ATOM      3  C   UNL     1      -0.018   1.448   0.010  0.00  0.00    +0.021 A 
ATOM      4  C   UNL     1       1.144   2.119   0.003  0.00  0.00    +0.048 A 
ATOM      5  S   UNL     1       2.371   0.826  -0.016  0.00  0.00    -0.077 S 
ATOM      6  C   UNL     1       1.291  -0.580  -0.013  0.00  0.00    +0.113 A 
ATOM      7  C   UNL     1       0.002  -0.004   0.002  0.00  0.00    +0.047 A 
ATOM      8  C   UNL     1      -1.078  -0.928   0.007  0.00  0.00    +0.131 A 
ATOM      9  N   UNL     1      -0.818  -2.226  -0.003  0.00  0.00    -0.220 NA
ATOM     10  C   UNL     1       0.417  -2.695  -0.017  0.00  0.00    +0.224 A 
ATOM     11  N   UNL     1       1.460  -1.888  -0.022  0.00  0.00    -0.228 NA
ENDBRANCH   1   8
BRANCH   1  12
ATOM     12  C   UNL     1      -3.492  -1.437   0.027  0.00  0.00    +0.100 C 
ATOM     13  C   UNL     1      -3.809  -1.858  -1.409  0.00  0.00    +0.025 C 
ATOM     14  C   UNL     1      -4.206  -0.626  -2.226  0.00  0.00    +0.002 C 
ATOM     15  C   UNL     1      -5.442   0.023  -1.600  0.00  0.00    +0.003 C 
ATOM     16  C   UNL     1      -5.126   0.444  -0.164  0.00  0.00    +0.033 C 
ATOM     17  C   UNL     1      -4.728  -0.788   0.653  0.00  0.00    +0.135 C 
BRANCH  17  18
ATOM     18  O   UNL     1      -4.433  -0.395   1.994  0.00  0.00    -0.390 OA
ATOM     19  H   UNL     1      -5.173   0.025   2.454  0.00  0.00    +0.210 HD
ENDBRANCH  17  18
ENDBRANCH   1  12
TORSDOF 3
