REMARK  Name = ZINC04347051
REMARK  7 active torsions:
REMARK  status: ('A' for Active; 'I' for Inactive)
REMARK    1  A    between atoms: C_1  and  C_2
REMARK    2  A    between atoms: C_5  and  N_9
REMARK    3  A    between atoms: C_6  and  C_8
REMARK    4  A    between atoms: C_10  and  C_12
REMARK    5  A    between atoms: C_12  and  S_13
REMARK    6  A    between atoms: S_13  and  C_14
REMARK    7  A    between atoms: C_19  and  C_24
REMARK                            x       y       z     vdW  Elec       q    Type
REMARK                         _______ _______ _______ _____ _____    ______ ____
ROOT
ATOM      1  C   UNL     1      -3.702   2.128  -0.184  0.00  0.00    +0.172 C 
ENDROOT
BRANCH   1   3
ATOM      2  N   UNL     1      -1.237   2.069   0.019  0.00  0.00    -0.285 N 
ATOM      3  C   UNL     1      -2.394   1.385  -0.081  0.00  0.00    +0.227 C 
ATOM      4  O   UNL     1      -2.383   0.173  -0.088  0.00  0.00    -0.275 OA
ATOM      5  H   UNL     1      -1.250   3.037   0.090  0.00  0.00    +0.155 HD
BRANCH   2  10
ATOM      6  C   UNL     1       3.704  -0.717   0.009  0.00  0.00    +0.044 C 
ATOM      7  C   UNL     1       2.392   0.024   0.013  0.00  0.00    -0.050 A 
ATOM      8  C   UNL     1       1.282  -0.542   0.613  0.00  0.00    +0.005 A 
ATOM      9  C   UNL     1       0.078   0.134   0.619  0.00  0.00    +0.024 A 
ATOM     10  C   UNL     1      -0.017   1.384   0.021  0.00  0.00    +0.036 A 
ATOM     11  C   UNL     1       1.099   1.949  -0.581  0.00  0.00    -0.029 A 
ATOM     12  C   UNL     1       2.300   1.267  -0.584  0.00  0.00    +0.008 A 
ATOM     13  C   UNL     1       1.000   3.305  -1.231  0.00  0.00    +0.045 C 
ENDBRANCH   2  10
ENDBRANCH   1   3
BRANCH   1  14
ATOM     14  S   UNL     1      -5.062   0.940  -0.304  0.00  0.00    -0.088 S 
BRANCH  14  15
ATOM     15  C   UNL     1      -6.428   2.048  -0.410  0.00  0.00    +0.159 A 
ATOM     16  N   UNL     1      -6.428   3.357  -0.402  0.00  0.00    -0.148 NA
ATOM     17  N   UNL     1      -7.612   4.079  -0.495  0.00  0.00    -0.167 N 
ATOM     18  C   UNL     1      -7.771   5.436  -0.500  0.00  0.00    +0.297 A 
ATOM     19  O   UNL     1      -6.801   6.173  -0.415  0.00  0.00    -0.264 OA
ATOM     20  C   UNL     1      -9.060   5.969  -0.603  0.00  0.00    +0.127 A 
ATOM     21  N   UNL     1     -10.106   5.175  -0.695  0.00  0.00    -0.146 NA
ATOM     22  N   UNL     1      -9.952   3.895  -0.690  0.00  0.00    -0.122 NA
ATOM     23  C   UNL     1      -8.764   3.350  -0.595  0.00  0.00    +0.220 A 
ATOM     24  S   UNL     1      -8.167   1.676  -0.564  0.00  0.00    -0.020 S 
ATOM     25  C   UNL     1      -9.253   7.464  -0.610  0.00  0.00    +0.073 C 
ENDBRANCH  14  15
ENDBRANCH   1  14
TORSDOF 4
