REMARK  Name = ZINC37443809
REMARK  12 active torsions:
REMARK  status: ('A' for Active; 'I' for Inactive)
REMARK    1  A    between atoms: C_1  and  C_2
REMARK    2  A    between atoms: C_2  and  C_3
REMARK    3  A    between atoms: C_3  and  N_4
REMARK    4  A    between atoms: C_10  and  O_35
REMARK    5  A    between atoms: C_13  and  O_33
REMARK    6  A    between atoms: C_17  and  C_18
REMARK    7  A    between atoms: C_17  and  C_19
REMARK    8  A    between atoms: N_21  and  C_22
REMARK    9  A    between atoms: C_27  and  C_32
REMARK   10  A    between atoms: C_29  and  C_31
REMARK   11  A    between atoms: O_33  and  C_34
REMARK   12  A    between atoms: O_35  and  C_36
REMARK                            x       y       z     vdW  Elec       q    Type
REMARK                         _______ _______ _______ _____ _____    ______ ____
ROOT
ATOM      1  N   UNL     1       0.773  -1.862  -1.225  0.00  0.00    -0.281 N 
ATOM      2  C   UNL     1       1.826  -2.311  -0.502  0.00  0.00    +0.264 C 
ATOM      3  O   UNL     1       2.483  -1.567   0.202  0.00  0.00    -0.268 OA
ATOM      4  C   UNL     1       2.134  -3.747  -0.613  0.00  0.00    +0.106 A 
ATOM      5  C   UNL     1       2.986  -4.507   0.108  0.00  0.00    +0.044 A 
ATOM      6  C   UNL     1       2.898  -5.820  -0.385  0.00  0.00    +0.046 A 
ATOM      7  C   UNL     1       3.554  -7.006  -0.004  0.00  0.00    +0.129 A 
ATOM      8  C   UNL     1       3.229  -8.155  -0.708  0.00  0.00    +0.050 A 
ATOM      9  C   UNL     1       2.304  -8.145  -1.739  0.00  0.00    +0.051 A 
ATOM     10  C   UNL     1       1.646  -6.990  -2.134  0.00  0.00    +0.144 A 
ATOM     11  C   UNL     1       1.951  -5.812  -1.444  0.00  0.00    +0.095 A 
ATOM     12  N   UNL     1       1.503  -4.539  -1.576  0.00  0.00    -0.331 N 
ATOM     13  C   UNL     1       0.543  -3.966  -2.526  0.00  0.00    +0.157 C 
ATOM     14  C   UNL     1      -0.163  -2.774  -1.871  0.00  0.00    +0.128 C 
ATOM     15  C   UNL     1      -0.939  -2.009  -2.944  0.00  0.00    +0.043 C 
ENDROOT
BRANCH  14  16
ATOM     16  C   UNL     1      -1.136  -3.284  -0.840  0.00  0.00    +0.238 C 
ATOM     17  O   UNL     1      -2.289  -3.501  -1.149  0.00  0.00    -0.273 OA
ATOM     18  N   UNL     1      -0.726  -3.499   0.425  0.00  0.00    -0.310 N 
ATOM     19  H   UNL     1       0.211  -3.397   0.656  0.00  0.00    +0.149 HD
BRANCH  18  20
ATOM     20  C   UNL     1      -1.695  -3.887   1.454  0.00  0.00    +0.076 C 
ATOM     21  C   UNL     1      -1.898  -5.403   1.417  0.00  0.00    +0.022 C 
ATOM     22  C   UNL     1      -2.910  -5.809   2.491  0.00  0.00    +0.002 C 
ATOM     23  C   UNL     1      -2.385  -5.397   3.868  0.00  0.00    +0.003 C 
ATOM     24  C   UNL     1      -2.182  -3.881   3.904  0.00  0.00    -0.009 C 
ATOM     25  C   UNL     1      -1.170  -3.476   2.830  0.00  0.00    +0.009 C 
ATOM     26  C   UNL     1      -0.967  -1.960   2.867  0.00  0.00    +0.009 C 
ATOM     27  C   UNL     1      -3.516  -3.182   3.637  0.00  0.00    +0.008 C 
ENDBRANCH  18  20
ENDBRANCH  14  16
BRANCH  10  28
ATOM     28  O   UNL     1       0.742  -7.002  -3.150  0.00  0.00    -0.493 OA
ATOM     29  C   UNL     1       0.501  -8.256  -3.791  0.00  0.00    +0.277 C 
ENDBRANCH  10  28
BRANCH   7  30
ATOM     30  O   UNL     1       4.464  -7.024   1.005  0.00  0.00    -0.494 OA
ATOM     31  C   UNL     1       5.070  -8.281   1.310  0.00  0.00    +0.277 C 
ENDBRANCH   7  30
BRANCH   1  32
ATOM     32  C   UNL     1       0.565  -0.417  -1.357  0.00  0.00    +0.109 C 
BRANCH  32  34
ATOM     33  C   UNL     1      -0.367   1.615  -0.241  0.00  0.00    +0.005 C 
ATOM     34  C   UNL     1      -0.249   0.091  -0.165  0.00  0.00    +0.016 C 
ENDBRANCH  32  34
ENDBRANCH   1  32
TORSDOF 6
