REMARK  Name = ZINC46438892
REMARK  3 active torsions:
REMARK  status: ('A' for Active; 'I' for Inactive)
REMARK    1  A    between atoms: C_1  and  N_2
REMARK    2  A    between atoms: N_2  and  C_3
REMARK    3  A    between atoms: N_13  and  C_14
REMARK                            x       y       z     vdW  Elec       q    Type
REMARK                         _______ _______ _______ _____ _____    ______ ____
ROOT
ATOM      1  C   UNL     1      -0.018   1.461   0.010  0.00  0.00    +0.134 C 
ATOM      2  N   UNL     1       0.002  -0.004   0.002  0.00  0.00    -0.284 N 
ATOM      3  C   UNL     1       0.000  -0.672  -1.169  0.00  0.00    +0.302 C 
ATOM      4  O   UNL     1       0.017  -1.887  -1.175  0.00  0.00    -0.253 OA
ATOM      5  N   UNL     1      -0.020   0.009  -2.332  0.00  0.00    -0.296 N 
ATOM      6  H   UNL     1      -0.033   0.978  -2.327  0.00  0.00    +0.151 HD
ENDROOT
BRANCH   2   7
ATOM      7  C   UNL     1       0.024  -0.743   1.267  0.00  0.00    +0.100 C 
ATOM      8  C   UNL     1      -1.209  -0.372   2.107  0.00  0.00    +0.047 C 
ATOM      9  C   UNL     1      -1.036  -0.889   3.555  0.00  0.00    +0.168 C 
ATOM     10  S   UNL     1       0.791  -0.893   3.767  0.00  0.00    -0.029 S 
ATOM     11  O   UNL     1       1.229  -2.228   3.981  0.00  0.00    -0.174 OA
ATOM     12  O   UNL     1       1.151   0.119   4.698  0.00  0.00    -0.174 OA
ATOM     13  C   UNL     1       1.295  -0.360   2.077  0.00  0.00    +0.188 C 
ENDBRANCH   2   7
BRANCH   5  14
ATOM     14  C   UNL     1      -0.022  -0.717  -3.605  0.00  0.00    +0.074 C 
ATOM     15  C   UNL     1       1.416  -1.059  -3.999  0.00  0.00    +0.022 C 
ATOM     16  C   UNL     1       1.413  -1.817  -5.329  0.00  0.00    +0.002 C 
ATOM     17  C   UNL     1       0.782  -0.943  -6.413  0.00  0.00    +0.000 C 
ATOM     18  C   UNL     1      -0.657  -0.600  -6.019  0.00  0.00    +0.002 C 
ATOM     19  C   UNL     1      -0.654   0.158  -4.690  0.00  0.00    +0.022 C 
ENDBRANCH   5  14
TORSDOF 2
