REMARK  Name = ZINC37497727
REMARK  4 active torsions:
REMARK  status: ('A' for Active; 'I' for Inactive)
REMARK    1  A    between atoms: C_1  and  C_2
REMARK    2  A    between atoms: C_6  and  C_7
REMARK    3  A    between atoms: C_12  and  C_15
REMARK    4  A    between atoms: C_18  and  O_21
REMARK                            x       y       z     vdW  Elec       q    Type
REMARK                         _______ _______ _______ _____ _____    ______ ____
ROOT
ATOM      1  C   UNL     1       0.031  -0.395   2.495  0.00  0.00    +0.282 C 
ATOM      2  O   UNL     1       0.152   0.785   2.768  0.00  0.00    -0.267 OA
ATOM      3  N   UNL     1      -0.049  -1.310   3.481  0.00  0.00    -0.295 N 
ATOM      4  C   UNL     1      -0.028  -2.746   3.173  0.00  0.00    +0.109 C 
ATOM      5  C   UNL     1       1.077  -3.412   4.000  0.00  0.00    +0.027 C 
ATOM      6  C   UNL     1       0.864  -3.090   5.481  0.00  0.00    +0.022 C 
ATOM      7  C   UNL     1       0.947  -1.577   5.693  0.00  0.00    +0.027 C 
ATOM      8  C   UNL     1      -0.153  -0.890   4.885  0.00  0.00    +0.109 C 
ENDROOT
BRANCH   1  14
ATOM      9  C   UNL     1       0.540   1.439   0.014  0.00  0.00    +0.048 C 
ATOM     10  C   UNL     1       0.193  -0.027   0.004  0.00  0.00    -0.000 A 
ATOM     11  C   UNL     1       0.040  -0.844  -1.128  0.00  0.00    +0.045 A 
ATOM     12  C   UNL     1      -0.269  -2.083  -0.685  0.00  0.00    +0.196 A 
ATOM     13  O   UNL     1      -0.311  -2.064   0.653  0.00  0.00    -0.458 OA
ATOM     14  C   UNL     1      -0.028  -0.821   1.093  0.00  0.00    +0.192 A 
ENDBRANCH   1  14
BRANCH   6  15
ATOM     15  C   UNL     1       1.929  -3.771   6.301  0.00  0.00    -0.044 A 
ATOM     16  C   UNL     1       3.261  -3.473   6.087  0.00  0.00    +0.007 A 
ATOM     17  C   UNL     1       4.240  -4.096   6.837  0.00  0.00    +0.045 A 
ATOM     18  C   UNL     1       3.884  -5.022   7.806  0.00  0.00    +0.117 A 
ATOM     19  C   UNL     1       2.546  -5.320   8.020  0.00  0.00    +0.045 A 
ATOM     20  C   UNL     1       1.571  -4.690   7.271  0.00  0.00    +0.007 A 
BRANCH  18  21
ATOM     21  O   UNL     1       4.844  -5.637   8.545  0.00  0.00    -0.507 OA
ATOM     22  H   UNL     1       5.074  -5.169   9.359  0.00  0.00    +0.292 HD
ENDBRANCH  18  21
ENDBRANCH   6  15
TORSDOF 3
