REMARK  Name = ZINC10233167
REMARK  13 active torsions:
REMARK  status: ('A' for Active; 'I' for Inactive)
REMARK    1  A    between atoms: C_1  and  C_2
REMARK    2  A    between atoms: C_2  and  N_65
REMARK    3  A    between atoms: C_3  and  C_4
REMARK    4  A    between atoms: C_3  and  N_65
REMARK    5  A    between atoms: C_5  and  C_6
REMARK    6  A    between atoms: C_5  and  N_65
REMARK    7  A    between atoms: C_6  and  C_7
REMARK    8  A    between atoms: C_7  and  N_8
REMARK    9  A    between atoms: C_9  and  C_26
REMARK   10  A    between atoms: C_16  and  C_25
REMARK   11  A    between atoms: C_17  and  C_24
REMARK   12  A    between atoms: C_31  and  O_32
REMARK   13  A    between atoms: O_32  and  C_33
REMARK                            x       y       z     vdW  Elec       q    Type
REMARK                         _______ _______ _______ _____ _____    ______ ____
ROOT
ATOM      1  N   UNL     1      -0.647  -2.232  -0.001  0.00  0.00    -0.284 N 
ATOM      2  C   UNL     1       0.817  -2.135  -0.028  0.00  0.00    +0.148 C 
ATOM      3  C   UNL     1       1.136  -0.662  -0.015  0.00  0.00    +0.072 A 
ATOM      4  C   UNL     1       2.400   0.080  -0.030  0.00  0.00    +0.199 A 
ATOM      5  O   UNL     1       3.476  -0.490  -0.059  0.00  0.00    -0.287 OA
ATOM      6  C   UNL     1       2.303   1.553  -0.009  0.00  0.00    +0.065 A 
ATOM      7  C   UNL     1       3.441   2.357  -0.021  0.00  0.00    +0.019 A 
ATOM      8  C   UNL     1       3.308   3.718  -0.001  0.00  0.00    -0.047 A 
ATOM      9  C   UNL     1       2.048   4.298   0.031  0.00  0.00    -0.044 A 
ATOM     10  C   UNL     1       0.912   3.519   0.043  0.00  0.00    +0.050 A 
ATOM     11  C   UNL     1       1.023   2.131   0.025  0.00  0.00    +0.140 A 
ATOM     12  O   UNL     1      -0.077   1.356   0.036  0.00  0.00    -0.450 OA
ATOM     13  C   UNL     1      -0.041   0.009   0.017  0.00  0.00    +0.199 A 
ATOM     14  C   UNL     1      -1.145  -0.983   0.025  0.00  0.00    +0.283 C 
ATOM     15  O   UNL     1      -2.328  -0.707   0.052  0.00  0.00    -0.267 OA
ATOM     16  C   UNL     1       1.921   5.800   0.053  0.00  0.00    +0.044 C 
ATOM     17  C   UNL     1       4.536   4.591  -0.013  0.00  0.00    +0.044 C 
ENDROOT
BRANCH   2  18
ATOM     18  C   UNL     1       1.405  -2.805   1.187  0.00  0.00    +0.019 A 
ATOM     19  C   UNL     1       0.622  -3.017   2.306  0.00  0.00    +0.009 A 
ATOM     20  C   UNL     1       1.159  -3.636   3.419  0.00  0.00    +0.001 A 
ATOM     21  C   UNL     1       2.483  -4.036   3.420  0.00  0.00    +0.004 A 
ATOM     22  C   UNL     1       3.271  -3.822   2.306  0.00  0.00    +0.046 A 
ATOM     23  C   UNL     1       2.733  -3.205   1.185  0.00  0.00    +0.125 A 
BRANCH  23  24
ATOM     24  O   UNL     1       3.506  -2.994   0.088  0.00  0.00    -0.495 OA
ATOM     25  C   UNL     1       4.864  -3.433   0.157  0.00  0.00    +0.277 C 
ENDBRANCH  23  24
ENDBRANCH   2  18
BRANCH   1  26
ATOM     26  C   UNL     1      -1.429  -3.471  -0.002  0.00  0.00    +0.107 C 
BRANCH  26  27
ATOM     27  C   UNL     1      -1.729  -3.883  -1.445  0.00  0.00    +0.000 C 
BRANCH  27  28
ATOM     28  C   UNL     1      -2.545  -5.177  -1.446  0.00  0.00    -0.077 C 
BRANCH  28  29
ATOM     29  N   UNL     1      -2.946  -5.482  -2.836  0.00  0.00    +0.379 N 
ATOM     30  H   UNL     1      -3.242  -4.613  -3.296  0.00  0.00    -0.082 HD
BRANCH  29  32
ATOM     31  C   UNL     1      -2.174  -6.150  -5.059  0.00  0.00    -0.017 C 
ATOM     32  C   UNL     1      -1.803  -6.053  -3.578  0.00  0.00    -0.082 C 
ENDBRANCH  29  32
BRANCH  29  33
ATOM     33  C   UNL     1      -4.076  -6.435  -2.838  0.00  0.00    -0.082 C 
ATOM     34  C   UNL     1      -5.359  -5.676  -2.492  0.00  0.00    -0.017 C 
ENDBRANCH  29  33
ENDBRANCH  28  29
ENDBRANCH  27  28
ENDBRANCH  26  27
ENDBRANCH   1  26
TORSDOF 8
