REMARK  Name = ZINC20894900
REMARK  9 active torsions:
REMARK  status: ('A' for Active; 'I' for Inactive)
REMARK    1  A    between atoms: C_1  and  C_2
REMARK    2  A    between atoms: C_2  and  C_3
REMARK    3  A    between atoms: C_3  and  N_4
REMARK    4  A    between atoms: C_13  and  S_14
REMARK    5  A    between atoms: S_14  and  C_15
REMARK    6  A    between atoms: C_15  and  C_17
REMARK    7  A    between atoms: C_15  and  C_18
REMARK    8  A    between atoms: N_23  and  C_24
REMARK    9  A    between atoms: C_24  and  C_25
REMARK                            x       y       z     vdW  Elec       q    Type
REMARK                         _______ _______ _______ _____ _____    ______ ____
ROOT
ATOM      1  N   UNL     1      -1.176  -0.693   0.010  0.00  0.00    -0.287 N 
ATOM      2  C   UNL     1      -1.198  -2.039   0.002  0.00  0.00    +0.263 A 
ATOM      3  O   UNL     1      -2.258  -2.641   0.010  0.00  0.00    -0.267 OA
ATOM      4  C   UNL     1       0.042  -2.751  -0.014  0.00  0.00    +0.076 A 
ATOM      5  C   UNL     1       0.248  -4.209  -0.023  0.00  0.00    -0.023 A 
ATOM      6  C   UNL     1       1.519  -4.642  -0.041  0.00  0.00    -0.004 A 
ATOM      7  S   UNL     1       2.509  -3.165  -0.042  0.00  0.00    -0.073 S 
ATOM      8  C   UNL     1       1.203  -1.965  -0.021  0.00  0.00    +0.117 A 
ATOM      9  N   UNL     1       1.157  -0.638  -0.018  0.00  0.00    -0.216 NA
ATOM     10  C   UNL     1       0.002  -0.004   0.002  0.00  0.00    +0.173 A 
ATOM     11  C   UNL     1       1.607  -6.144  -0.054  0.00  0.00    +0.043 C 
ATOM     12  C   UNL     1       0.197  -6.612  -0.477  0.00  0.00    +0.010 C 
ATOM     13  C   UNL     1      -0.676  -5.429  -0.014  0.00  0.00    +0.037 C 
ENDROOT
BRANCH   1  14
ATOM     14  C   UNL     1      -2.441   0.047   0.026  0.00  0.00    +0.127 C 
BRANCH  14  16
ATOM     15  C   UNL     1      -4.216   1.085  -1.393  0.00  0.00    +0.005 C 
ATOM     16  C   UNL     1      -2.895   0.313  -1.410  0.00  0.00    +0.018 C 
ENDBRANCH  14  16
ENDBRANCH   1  14
BRANCH  10  17
ATOM     17  S   UNL     1      -0.022   1.758   0.012  0.00  0.00    -0.075 S 
BRANCH  17  18
ATOM     18  C   UNL     1       1.756   2.096  -0.004  0.00  0.00    +0.137 C 
ATOM     19  C   UNL     1       2.359   1.600  -1.319  0.00  0.00    +0.029 C 
BRANCH  18  20
ATOM     20  C   UNL     1       1.986   3.580   0.126  0.00  0.00    +0.233 C 
ATOM     21  O   UNL     1       1.095   4.357  -0.140  0.00  0.00    -0.274 OA
ATOM     22  N   UNL     1       3.183   4.043   0.538  0.00  0.00    -0.239 N 
ATOM     23  C   UNL     1       3.389   5.370   0.654  0.00  0.00    +0.306 C 
ATOM     24  O   UNL     1       2.495   6.149   0.387  0.00  0.00    -0.252 OA
ATOM     25  N   UNL     1       4.585   5.833   1.067  0.00  0.00    -0.299 N 
ATOM     26  H   UNL     1       3.992   3.338   0.780  0.00  0.00    +0.159 HD
ATOM     27  H   UNL     1       5.394   5.128   1.308  0.00  0.00    +0.150 HD
BRANCH  25  28
ATOM     28  C   UNL     1       4.809   7.275   1.193  0.00  0.00    +0.102 C 
ATOM     29  C   UNL     1       6.239   7.529   1.674  0.00  0.00    +0.024 C 
ENDBRANCH  25  28
ENDBRANCH  18  20
ENDBRANCH  17  18
ENDBRANCH  10  17
TORSDOF 6
