REMARK  Name = ZINC32768655
REMARK  10 active torsions:
REMARK  status: ('A' for Active; 'I' for Inactive)
REMARK    1  A    between atoms: C_1  and  C_2
REMARK    2  A    between atoms: C_3  and  S_8
REMARK    3  A    between atoms: C_4  and  C_7
REMARK    4  A    between atoms: S_8  and  N_11
REMARK    5  A    between atoms: N_11  and  C_12
REMARK    6  A    between atoms: C_12  and  C_14
REMARK    7  A    between atoms: C_12  and  C_15
REMARK    8  A    between atoms: N_17  and  C_18
REMARK    9  A    between atoms: C_18  and  C_20
REMARK   10  A    between atoms: C_18  and  C_21
REMARK                            x       y       z     vdW  Elec       q    Type
REMARK                         _______ _______ _______ _____ _____    ______ ____
ROOT
ATOM      1  C   UNL     1       5.887   3.633   0.904  0.00  0.00    +0.232 C 
ATOM      2  O   UNL     1       6.077   2.435   0.925  0.00  0.00    -0.274 OA
ATOM      3  N   UNL     1       4.715   4.121   0.450  0.00  0.00    -0.307 N 
ATOM      4  H   UNL     1       4.542   5.207   0.430  0.00  0.00    +0.149 HD
ENDROOT
BRANCH   1   5
ATOM      5  C   UNL     1       6.960   4.575   1.384  0.00  0.00    +0.159 C 
ATOM      6  C   UNL     1       6.426   5.402   2.555  0.00  0.00    +0.035 C 
BRANCH   5   7
ATOM      7  N   UNL     1       8.126   3.804   1.822  0.00  0.00    -0.178 NA
ATOM      8  H   UNL     1       7.991   2.914   2.454  0.00  0.00    +0.149 HD
BRANCH   7   9
ATOM      9  S   UNL     1       9.652   4.402   1.581  0.00  0.00    +0.064 S 
ATOM     10  O   UNL     1      10.552   3.450   2.131  0.00  0.00    -0.153 OA
ATOM     11  O   UNL     1       9.716   4.816   0.223  0.00  0.00    -0.153 OA
BRANCH   9  14
ATOM     12  C   UNL     1      10.703   4.844   4.791  0.00  0.00    +0.071 C 
ATOM     13  C   UNL     1      10.249   5.969   3.897  0.00  0.00    +0.107 A 
ATOM     14  C   UNL     1       9.801   5.860   2.560  0.00  0.00    +0.169 A 
ATOM     15  C   UNL     1       9.519   7.136   2.204  0.00  0.00    +0.161 A 
ATOM     16  O   UNL     1       9.785   7.896   3.275  0.00  0.00    -0.358 OA
ATOM     17  N   UNL     1      10.191   7.233   4.201  0.00  0.00    -0.081 NA
ATOM     18  C   UNL     1       9.005   7.607   0.868  0.00  0.00    +0.091 C 
ENDBRANCH   9  14
ENDBRANCH   7   9
ENDBRANCH   5   7
ENDBRANCH   1   5
BRANCH   3  19
ATOM     19  C   UNL     1       3.671   3.205  -0.017  0.00  0.00    +0.101 C 
ATOM     20  C   UNL     1       3.898   2.885  -1.496  0.00  0.00    +0.033 C 
BRANCH  19  21
ATOM     21  C   UNL     1       2.321   3.851   0.157  0.00  0.00    -0.020 A 
ATOM     22  C   UNL     1       2.206   5.208   0.152  0.00  0.00    +0.006 A 
ATOM     23  C   UNL     1       0.967   5.823   0.311  0.00  0.00    +0.001 A 
ATOM     24  C   UNL     1      -0.166   5.086   0.475  0.00  0.00    +0.008 A 
ATOM     25  C   UNL     1      -0.087   3.683   0.484  0.00  0.00    -0.018 A 
ATOM     26  C   UNL     1       1.174   3.057   0.323  0.00  0.00    -0.013 A 
ATOM     27  C   UNL     1       1.253   1.654   0.333  0.00  0.00    +0.009 A 
ATOM     28  C   UNL     1       0.120   0.917   0.496  0.00  0.00    +0.001 A 
ATOM     29  C   UNL     1      -1.121   1.533   0.649  0.00  0.00    +0.001 A 
ATOM     30  C   UNL     1      -1.235   2.889   0.651  0.00  0.00    +0.008 A 
ENDBRANCH  19  21
ENDBRANCH   3  19
TORSDOF 6
