REMARK  Name = ZINC05619848
REMARK  8 active torsions:
REMARK  status: ('A' for Active; 'I' for Inactive)
REMARK    1  A    between atoms: C_1  and  C_2
REMARK    2  A    between atoms: C_7  and  N_8
REMARK    3  A    between atoms: C_9  and  C_29
REMARK    4  A    between atoms: C_12  and  S_13
REMARK    5  A    between atoms: S_13  and  C_14
REMARK    6  A    between atoms: C_14  and  C_16
REMARK    7  A    between atoms: C_14  and  C_22
REMARK    8  A    between atoms: N_27  and  C_28
REMARK                            x       y       z     vdW  Elec       q    Type
REMARK                         _______ _______ _______ _____ _____    ______ ____
ROOT
ATOM      1  C   UNL     1      -4.137   0.080  -3.563  0.00  0.00    +0.170 C 
ENDROOT
BRANCH   1   2
ATOM      2  C   UNL     1      -3.932   0.080  -5.056  0.00  0.00    +0.238 C 
ATOM      3  O   UNL     1      -3.164   0.869  -5.562  0.00  0.00    -0.274 OA
ATOM      4  N   UNL     1      -4.604  -0.797  -5.828  0.00  0.00    -0.239 N 
ATOM      5  C   UNL     1      -4.421  -0.797  -7.163  0.00  0.00    +0.306 C 
ATOM      6  O   UNL     1      -3.651  -0.006  -7.671  0.00  0.00    -0.252 OA
ATOM      7  N   UNL     1      -5.093  -1.674  -7.936  0.00  0.00    -0.302 N 
ATOM      8  C   UNL     1      -4.894  -1.673  -9.387  0.00  0.00    +0.129 C 
ATOM      9  H   UNL     1      -5.219  -1.428  -5.423  0.00  0.00    +0.159 HD
ATOM     10  H   UNL     1      -5.707  -2.305  -7.530  0.00  0.00    +0.150 HD
ENDBRANCH   1   2
BRANCH   1  11
ATOM     11  C   UNL     1      -5.408   0.817  -3.230  0.00  0.00    -0.025 A 
ATOM     12  C   UNL     1      -5.548   2.147  -3.581  0.00  0.00    +0.005 A 
ATOM     13  C   UNL     1      -6.715   2.822  -3.279  0.00  0.00    +0.000 A 
ATOM     14  C   UNL     1      -7.740   2.171  -2.618  0.00  0.00    +0.000 A 
ATOM     15  C   UNL     1      -7.598   0.843  -2.262  0.00  0.00    +0.000 A 
ATOM     16  C   UNL     1      -6.432   0.166  -2.568  0.00  0.00    +0.005 A 
ENDBRANCH   1  11
BRANCH   1  17
ATOM     17  S   UNL     1      -2.736   0.899  -2.762  0.00  0.00    -0.068 S 
BRANCH  17  22
ATOM     18  N   UNL     1      -2.430   1.039   0.019  0.00  0.00    -0.274 N 
ATOM     19  C   UNL     1      -3.137   0.610   1.111  0.00  0.00    +0.135 A 
ATOM     20  N   UNL     1      -4.193  -0.013   0.669  0.00  0.00    -0.133 NA
ATOM     21  N   UNL     1      -4.204  -0.008  -0.616  0.00  0.00    -0.122 NA
ATOM     22  C   UNL     1      -3.149   0.628  -1.070  0.00  0.00    +0.197 A 
ATOM     23  C   UNL     1      -2.763   0.820   2.556  0.00  0.00    +0.088 C 
BRANCH  18  30
ATOM     24  C   UNL     1      -2.551   3.882   0.046  0.00  0.00    +0.046 C 
ATOM     25  C   UNL     1      -1.239   3.142   0.030  0.00  0.00    -0.027 A 
ATOM     26  C   UNL     1      -0.049   3.844   0.023  0.00  0.00    +0.005 A 
ATOM     27  C   UNL     1       1.155   3.166   0.008  0.00  0.00    +0.000 A 
ATOM     28  C   UNL     1       1.173   1.783   0.000  0.00  0.00    +0.002 A 
ATOM     29  C   UNL     1      -0.013   1.076   0.008  0.00  0.00    +0.026 A 
ATOM     30  C   UNL     1      -1.224   1.754   0.017  0.00  0.00    +0.053 A 
ENDBRANCH  18  30
ENDBRANCH  17  22
ENDBRANCH   1  17
TORSDOF 5
