REMARK  Name = ZINC00323086
REMARK  2 active torsions:
REMARK  status: ('A' for Active; 'I' for Inactive)
REMARK    1  A    between atoms: C_3  and  C_6
REMARK    2  A    between atoms: C_18  and  C_20
REMARK                            x       y       z     vdW  Elec       q    Type
REMARK                         _______ _______ _______ _____ _____    ______ ____
ROOT
ATOM      1  C   UNL     1       5.864   4.721   0.479  0.00  0.00    +0.283 C 
ATOM      2  O   UNL     1       5.084   3.941  -0.033  0.00  0.00    -0.267 OA
ATOM      3  N   UNL     1       6.562   4.356   1.573  0.00  0.00    -0.279 N 
ATOM      4  C   UNL     1       7.671   5.158   2.089  0.00  0.00    +0.120 C 
ATOM      5  C   UNL     1       7.779   5.023   3.637  0.00  0.00    +0.090 C 
ATOM      6  S   UNL     1       7.365   3.225   3.782  0.00  0.00    -0.133 S 
ATOM      7  C   UNL     1       6.256   3.130   2.319  0.00  0.00    +0.087 C 
ATOM      8  C   UNL     1       6.594   1.891   1.503  0.00  0.00    +0.056 C 
ATOM      9  C   UNL     1       5.680   1.823   0.274  0.00  0.00    +0.110 C 
ATOM     10  N   UNL     1       4.283   1.916   0.721  0.00  0.00    -0.301 N 
ATOM     11  C   UNL     1       3.880   3.057   1.553  0.00  0.00    +0.110 C 
ATOM     12  C   UNL     1       4.806   3.115   2.780  0.00  0.00    +0.056 C 
ATOM     13  C   UNL     1       3.386   0.974   0.368  0.00  0.00    +0.219 C 
ATOM     14  O   UNL     1       3.729   0.039  -0.324  0.00  0.00    -0.275 OA
ENDROOT
BRANCH   1  17
ATOM     15  C   UNL     1       5.832   7.887  -1.339  0.00  0.00    +0.042 A 
ATOM     16  C   UNL     1       5.324   6.597  -1.121  0.00  0.00    +0.054 A 
ATOM     17  C   UNL     1       6.046   6.059  -0.094  0.00  0.00    +0.189 A 
ATOM     18  O   UNL     1       6.951   6.976   0.305  0.00  0.00    -0.458 OA
ATOM     19  C   UNL     1       6.829   8.078  -0.447  0.00  0.00    +0.196 A 
ENDBRANCH   1  17
BRANCH  13  20
ATOM     20  C   UNL     1       1.956   1.083   0.833  0.00  0.00    +0.075 C 
ATOM     21  C   UNL     1       1.260   2.306   0.186  0.00  0.00    +0.013 C 
ATOM     22  C   UNL     1      -0.241   1.956   0.235  0.00  0.00    +0.001 C 
ATOM     23  C   UNL     1      -0.333   0.422   0.311  0.00  0.00    +0.001 C 
ATOM     24  C   UNL     1       1.116  -0.107   0.306  0.00  0.00    +0.013 C 
ENDBRANCH  13  20
TORSDOF 2
