REMARK  Name = ZINC06685232
REMARK  6 active torsions:
REMARK  status: ('A' for Active; 'I' for Inactive)
REMARK    1  A    between atoms: C_1  and  C_2
REMARK    2  A    between atoms: C_5  and  C_8
REMARK    3  A    between atoms: C_8  and  C_22
REMARK    4  A    between atoms: N_9  and  N_10
REMARK    5  A    between atoms: C_13  and  C_21
REMARK    6  A    between atoms: C_14  and  C_20
REMARK                            x       y       z     vdW  Elec       q    Type
REMARK                         _______ _______ _______ _____ _____    ______ ____
ROOT
ATOM      1  N   UNL     1      -0.095   0.054  -2.332  0.00  0.00    -0.220 N 
ATOM      2  C   UNL     1      -0.090  -0.630  -3.534  0.00  0.00    +0.150 A 
ATOM      3  C   UNL     1      -0.190   0.075  -4.765  0.00  0.00    +0.052 A 
ATOM      4  C   UNL     1      -0.292   1.502  -5.012  0.00  0.00    -0.028 A 
ATOM      5  C   UNL     1      -0.369   1.945  -6.276  0.00  0.00    -0.008 A 
ATOM      6  S   UNL     1      -0.300   0.450  -7.245  0.00  0.00    -0.074 S 
ATOM      7  C   UNL     1      -0.170  -0.728  -5.926  0.00  0.00    +0.114 A 
ATOM      8  N   UNL     1      -0.076  -2.041  -5.852  0.00  0.00    -0.228 NA
ATOM      9  C   UNL     1       0.008  -2.639  -4.679  0.00  0.00    +0.224 A 
ATOM     10  N   UNL     1       0.001  -1.951  -3.552  0.00  0.00    -0.219 NA
ATOM     11  C   UNL     1      -0.486   3.366  -6.762  0.00  0.00    +0.052 C 
ATOM     12  C   UNL     1      -0.319   2.475  -3.861  0.00  0.00    +0.045 C 
ATOM     13  H   UNL     1      -0.480   0.943  -2.281  0.00  0.00    +0.176 HD
ENDROOT
BRANCH   1  15
ATOM     14  C   UNL     1       0.453   0.106  -0.059  0.00  0.00    +0.063 C 
ATOM     15  N   UNL     1       0.457  -0.536  -1.187  0.00  0.00    -0.186 NA
ATOM     16  C   UNL     1      -0.146   1.487   0.019  0.00  0.00    +0.068 C 
BRANCH  14  21
ATOM     17  C   UNL     1       2.716  -2.318   4.639  0.00  0.00    +0.044 C 
ATOM     18  C   UNL     1       2.123  -1.683   3.408  0.00  0.00    -0.050 A 
ATOM     19  C   UNL     1       2.130  -2.370   2.207  0.00  0.00    +0.004 A 
ATOM     20  C   UNL     1       1.589  -1.795   1.076  0.00  0.00    +0.010 A 
ATOM     21  C   UNL     1       1.033  -0.515   1.145  0.00  0.00    -0.003 A 
ATOM     22  C   UNL     1       1.036   0.175   2.360  0.00  0.00    +0.010 A 
ATOM     23  C   UNL     1       1.575  -0.415   3.484  0.00  0.00    +0.004 A 
ENDBRANCH  14  21
ENDBRANCH   1  15
TORSDOF 2
