REMARK  Name = ZINC06099415
REMARK  6 active torsions:
REMARK  status: ('A' for Active; 'I' for Inactive)
REMARK    1  A    between atoms: C_1  and  C_2
REMARK    2  A    between atoms: C_2  and  C_3
REMARK    3  A    between atoms: C_2  and  C_4
REMARK    4  A    between atoms: C_4  and  C_6
REMARK    5  A    between atoms: C_4  and  S_12
REMARK    6  A    between atoms: S_12  and  C_13
REMARK                            x       y       z     vdW  Elec       q    Type
REMARK                         _______ _______ _______ _____ _____    ______ ____
ROOT
ATOM      1  C   UNL     1      -0.015   1.840   0.015  0.00  0.00    +0.143 C 
ENDROOT
BRANCH   1   2
ATOM      2  C   UNL     1      -0.850   2.501  -1.052  0.00  0.00    +0.234 C 
ATOM      3  O   UNL     1      -1.102   1.908  -2.079  0.00  0.00    -0.274 OA
ATOM      4  N   UNL     1      -1.316   3.752  -0.864  0.00  0.00    -0.239 N 
ATOM      5  C   UNL     1      -2.062   4.343  -1.818  0.00  0.00    +0.303 C 
ATOM      6  O   UNL     1      -2.315   3.749  -2.847  0.00  0.00    -0.253 OA
ATOM      7  N   UNL     1      -2.528   5.594  -1.630  0.00  0.00    -0.313 N 
ATOM      8  H   UNL     1      -1.114   4.226  -0.042  0.00  0.00    +0.159 HD
ATOM      9  H   UNL     1      -2.326   6.069  -0.808  0.00  0.00    +0.146 HD
ATOM     10  H   UNL     1      -3.065   6.020  -2.316  0.00  0.00    +0.146 HD
ENDBRANCH   1   2
BRANCH   1  12
ATOM     11  C   UNL     1       2.241   1.778   1.085  0.00  0.00    +0.009 C 
ATOM     12  C   UNL     1       1.425   2.349  -0.076  0.00  0.00    +0.005 C 
ATOM     13  C   UNL     1       2.042   1.900  -1.402  0.00  0.00    +0.009 C 
ENDBRANCH   1  12
BRANCH   1  14
ATOM     14  S   UNL     1      -0.038   0.042  -0.228  0.00  0.00    -0.073 S 
BRANCH  14  15
ATOM     15  C   UNL     1      -1.703  -0.414   0.123  0.00  0.00    +0.197 A 
ATOM     16  N   UNL     1      -2.693   0.404   0.400  0.00  0.00    -0.122 NA
ATOM     17  N   UNL     1      -3.777  -0.259   0.602  0.00  0.00    -0.127 NA
ATOM     18  C   UNL     1      -3.538  -1.551   0.474  0.00  0.00    +0.180 A 
ATOM     19  N   UNL     1      -2.201  -1.683   0.164  0.00  0.00    -0.275 N 
ATOM     20  C   UNL     1      -1.654  -2.922  -0.031  0.00  0.00    +0.115 A 
ATOM     21  C   UNL     1      -2.415  -4.030   0.079  0.00  0.00    +0.059 A 
ATOM     22  C   UNL     1      -3.783  -3.928   0.394  0.00  0.00    +0.045 A 
ATOM     23  C   UNL     1      -4.343  -2.704   0.591  0.00  0.00    +0.087 A 
ATOM     24 CL   UNL     1      -6.029  -2.562   0.981  0.00  0.00    -0.080 Cl
ATOM     25 CL   UNL     1      -1.702  -5.593  -0.172  0.00  0.00    -0.082 Cl
ENDBRANCH  14  15
ENDBRANCH   1  14
TORSDOF 4
