REMARK  Name = ZINC48545938
REMARK  5 active torsions:
REMARK  status: ('A' for Active; 'I' for Inactive)
REMARK    1  A    between atoms: C_1  and  C_2
REMARK    2  A    between atoms: C_3  and  C_18
REMARK    3  A    between atoms: C_4  and  C_11
REMARK    4  A    between atoms: C_5  and  C_9
REMARK    5  A    between atoms: C_6  and  C_8
REMARK                            x       y       z     vdW  Elec       q    Type
REMARK                         _______ _______ _______ _____ _____    ______ ____
ROOT
ATOM      1  C   UNL     1      -0.018   1.503   0.010  0.00  0.00    +0.061 C 
ATOM      2  C   UNL     1       0.002  -0.004   0.002  0.00  0.00    +0.019 C 
ATOM      3  C   UNL     1      -1.156  -0.683   0.004  0.00  0.00    +0.058 C 
ATOM      4  C   UNL     1      -1.184  -2.185   0.005  0.00  0.00    +0.104 C 
ATOM      5  C   UNL     1       0.154  -2.744  -0.387  0.00  0.00    +0.058 C 
ATOM      6  C   UNL     1       1.261  -1.986  -0.375  0.00  0.00    +0.019 C 
ATOM      7  N   UNL     1       1.203  -0.665  -0.013  0.00  0.00    -0.320 N 
ATOM      8  C   UNL     1       2.584  -2.592  -0.767  0.00  0.00    +0.061 C 
ATOM      9  H   UNL     1       2.016  -0.198   0.236  0.00  0.00    +0.152 HD
ENDROOT
BRANCH   4  10
ATOM     10  C   UNL     1      -1.540  -2.673   1.385  0.00  0.00    -0.013 A 
ATOM     11  C   UNL     1      -0.748  -2.354   2.478  0.00  0.00    +0.026 A 
ATOM     12  C   UNL     1      -1.106  -2.819   3.729  0.00  0.00    +0.111 A 
ATOM     13  N   UNL     1      -2.186  -3.559   3.890  0.00  0.00    -0.262 NA
ATOM     14  C   UNL     1      -2.963  -3.882   2.876  0.00  0.00    +0.131 A 
ATOM     15  C   UNL     1      -2.672  -3.449   1.595  0.00  0.00    +0.063 A 
ATOM     16 CL   UNL     1      -3.705  -3.874   0.266  0.00  0.00    -0.082 Cl
ENDBRANCH   4  10
BRANCH   5  17
ATOM     17  C   UNL     1       0.250  -4.117  -0.783  0.00  0.00    +0.097 C 
ATOM     18  N   UNL     1       0.326  -5.206  -1.098  0.00  0.00    -0.191 NA
ENDBRANCH   5  17
BRANCH   3  19
ATOM     19  C   UNL     1      -2.392   0.040   0.005  0.00  0.00    +0.097 C 
ATOM     20  N   UNL     1      -3.372   0.614   0.006  0.00  0.00    -0.191 NA
ENDBRANCH   3  19
TORSDOF 3
