REMARK  Name = ZINC12438522
REMARK  7 active torsions:
REMARK  status: ('A' for Active; 'I' for Inactive)
REMARK    1  A    between atoms: C_1  and  N_2
REMARK    2  A    between atoms: C_4  and  C_7
REMARK    3  A    between atoms: C_7  and  N_57
REMARK    4  A    between atoms: C_8  and  N_57
REMARK    5  A    between atoms: C_9  and  C_10
REMARK    6  A    between atoms: C_9  and  N_57
REMARK    7  A    between atoms: C_11  and  C_20
REMARK                            x       y       z     vdW  Elec       q    Type
REMARK                         _______ _______ _______ _____ _____    ______ ____
ROOT
ATOM      1  C   UNL     1       4.622   0.304  -2.894  0.00  0.00    +0.039 A 
ATOM      2  C   UNL     1       4.333  -0.871  -3.528  0.00  0.00    +0.146 A 
ATOM      3  N   UNL     1       4.832  -0.807  -4.776  0.00  0.00    -0.223 NA
ATOM      4  C   UNL     1       5.429   0.361  -4.943  0.00  0.00    +0.139 A 
ATOM      5  N   UNL     1       5.311   1.077  -3.778  0.00  0.00    -0.303 N 
ATOM      6  C   UNL     1       5.847   2.332  -3.681  0.00  0.00    +0.113 A 
ATOM      7  C   UNL     1       6.499   2.884  -4.725  0.00  0.00    +0.058 A 
ATOM      8  C   UNL     1       6.636   2.174  -5.932  0.00  0.00    +0.025 A 
ATOM      9  C   UNL     1       6.108   0.927  -6.044  0.00  0.00    +0.048 A 
ATOM     10 CL   UNL     1       7.171   4.478  -4.579  0.00  0.00    -0.082 Cl
ENDROOT
BRANCH   2  11
ATOM     11  C   UNL     1       3.599  -2.011  -2.946  0.00  0.00    +0.267 C 
ATOM     12  O   UNL     1       3.287  -1.997  -1.771  0.00  0.00    -0.268 OA
ATOM     13  N   UNL     1       3.275  -3.068  -3.717  0.00  0.00    -0.292 N 
ATOM     14  C   UNL     1       2.483  -4.189  -3.185  0.00  0.00    +0.113 C 
ATOM     15  C   UNL     1       1.154  -4.223  -3.948  0.00  0.00    +0.054 C 
ATOM     16  C   UNL     1       1.387  -4.117  -5.432  0.00  0.00    -0.041 A 
ATOM     17  C   UNL     1       0.368  -4.544  -6.276  0.00  0.00    +0.004 A 
ATOM     18  C   UNL     1       0.511  -4.464  -7.645  0.00  0.00    +0.000 A 
ATOM     19  C   UNL     1       1.677  -3.955  -8.186  0.00  0.00    +0.000 A 
ATOM     20  C   UNL     1       2.692  -3.534  -7.351  0.00  0.00    +0.005 A 
ATOM     21  C   UNL     1       2.550  -3.618  -5.973  0.00  0.00    -0.027 A 
ATOM     22  C   UNL     1       3.701  -3.150  -5.118  0.00  0.00    +0.143 C 
ENDBRANCH   2  11
BRANCH   1  23
ATOM     23  C   UNL     1       4.252   0.673  -1.481  0.00  0.00    -0.022 C 
BRANCH  23  25
ATOM     24  C   UNL     1       3.002   2.630  -2.169  0.00  0.00    -0.095 C 
ATOM     25  N   UNL     1       2.922   1.320  -1.489  0.00  0.00    +0.384 N 
ATOM     26  H   UNL     1       2.263   0.720  -1.998  0.00  0.00    -0.081 HD
BRANCH  25  27
ATOM     27  C   UNL     1       2.439   1.499  -0.104  0.00  0.00    -0.040 C 
BRANCH  27  31
ATOM     28  C   UNL     1      -2.571   1.481  -0.243  0.00  0.00    +0.172 C 
ATOM     29  N   UNL     1      -1.180   1.938  -0.206  0.00  0.00    -0.274 N 
ATOM     30  C   UNL     1      -0.086   1.149  -0.165  0.00  0.00    +0.109 A 
ATOM     31  C   UNL     1       1.002   1.952  -0.146  0.00  0.00    -0.026 A 
ATOM     32  C   UNL     1       0.558   3.279  -0.170  0.00  0.00    +0.136 A 
ATOM     33  N   UNL     1      -0.750   3.271  -0.203  0.00  0.00    -0.180 NA
ENDBRANCH  27  31
ENDBRANCH  25  27
ENDBRANCH  23  25
ENDBRANCH   1  23
TORSDOF 5
