REMARK  Name = ZINC34755221
REMARK  7 active torsions:
REMARK  status: ('A' for Active; 'I' for Inactive)
REMARK    1  A    between atoms: C_1  and  C_2
REMARK    2  A    between atoms: C_2  and  O_3
REMARK    3  A    between atoms: O_3  and  C_4
REMARK    4  A    between atoms: C_4  and  C_6
REMARK    5  A    between atoms: C_13  and  C_15
REMARK    6  A    between atoms: C_18  and  C_30
REMARK    7  A    between atoms: C_23  and  C_25
REMARK                            x       y       z     vdW  Elec       q    Type
REMARK                         _______ _______ _______ _____ _____    ______ ____
ROOT
ATOM      1  C   UNL     1      -5.368  -5.337  -0.292  0.00  0.00    +0.093 C 
ATOM      2  C   UNL     1      -5.311  -6.059  -1.641  0.00  0.00    +0.024 C 
ATOM      3  C   UNL     1      -4.275  -7.184  -1.575  0.00  0.00    +0.037 C 
ATOM      4  C   UNL     1      -4.693  -8.195  -0.503  0.00  0.00    +0.116 C 
ATOM      5  N   UNL     1      -4.891  -7.483   0.767  0.00  0.00    -0.296 N 
ATOM      6  C   UNL     1      -5.799  -6.327   0.795  0.00  0.00    +0.120 C 
ATOM      7  C   UNL     1      -4.254  -7.883   1.885  0.00  0.00    +0.250 C 
ATOM      8  O   UNL     1      -4.442  -7.297   2.934  0.00  0.00    -0.270 OA
ENDROOT
BRANCH   1  15
ATOM      9  C   UNL     1      -1.711  -2.357  -1.100  0.00  0.00    +0.115 C 
ATOM     10  C   UNL     1      -2.648  -1.381  -1.815  0.00  0.00    +0.018 C 
ATOM     11  C   UNL     1      -3.905  -2.123  -2.276  0.00  0.00    +0.020 C 
ATOM     12  C   UNL     1      -4.636  -2.687  -1.054  0.00  0.00    +0.108 C 
ATOM     13  N   UNL     1      -3.698  -3.513  -0.281  0.00  0.00    -0.300 N 
ATOM     14  C   UNL     1      -2.417  -2.925   0.135  0.00  0.00    +0.122 C 
ATOM     15  C   UNL     1      -4.007  -4.784   0.041  0.00  0.00    +0.220 C 
ATOM     16  O   UNL     1      -3.188  -5.484   0.599  0.00  0.00    -0.275 OA
BRANCH   9  17
ATOM     17  C   UNL     1      -0.459  -1.634  -0.676  0.00  0.00    +0.312 C 
ATOM     18  O   UNL     1      -0.161  -1.578   0.494  0.00  0.00    -0.250 OA
BRANCH  17  19
ATOM     19  O   UNL     1       0.324  -1.051  -1.597  0.00  0.00    -0.465 OA
BRANCH  19  21
ATOM     20  C   UNL     1       2.255   0.216  -2.309  0.00  0.00    +0.048 C 
ATOM     21  C   UNL     1       1.495  -0.382  -1.124  0.00  0.00    +0.229 C 
ENDBRANCH  19  21
ENDBRANCH  17  19
ENDBRANCH   9  17
ENDBRANCH   1  15
BRANCH   3  22
ATOM     22  C   UNL     1      -4.195  -7.872  -2.913  0.00  0.00    -0.043 A 
ATOM     23  C   UNL     1      -5.318  -8.476  -3.448  0.00  0.00    +0.004 A 
ATOM     24  C   UNL     1      -5.244  -9.108  -4.675  0.00  0.00    +0.000 A 
ATOM     25  C   UNL     1      -4.049  -9.135  -5.368  0.00  0.00    +0.000 A 
ATOM     26  C   UNL     1      -2.926  -8.530  -4.834  0.00  0.00    +0.000 A 
ATOM     27  C   UNL     1      -3.001  -7.894  -3.609  0.00  0.00    +0.004 A 
ENDBRANCH   3  22
BRANCH   7  28
ATOM     28  C   UNL     1      -3.330  -9.030   1.837  0.00  0.00    +0.074 A 
ATOM     29  C   UNL     1      -2.183  -9.284   2.720  0.00  0.00    +0.054 A 
ATOM     30  C   UNL     1      -1.644 -10.439   2.301  0.00  0.00    +0.195 A 
ATOM     31  O   UNL     1      -2.351 -10.901   1.258  0.00  0.00    -0.470 OA
ATOM     32  C   UNL     1      -3.364 -10.080   0.967  0.00  0.00    +0.207 A 
ENDBRANCH   7  28
TORSDOF 6
