REMARK  Name = ZINC11847587
REMARK  5 active torsions:
REMARK  status: ('A' for Active; 'I' for Inactive)
REMARK    1  A    between atoms: C_3  and  C_6
REMARK    2  A    between atoms: C_6  and  C_8
REMARK    3  A    between atoms: C_10  and  C_22
REMARK    4  A    between atoms: C_16  and  C_17
REMARK    5  A    between atoms: C_16  and  O_21
REMARK                            x       y       z     vdW  Elec       q    Type
REMARK                         _______ _______ _______ _____ _____    ______ ____
ROOT
ATOM      1  C   UNL     1      -2.726   2.462  -0.521  0.00  0.00    +0.145 C 
ATOM      2  C   UNL     1      -3.493   3.130   0.626  0.00  0.00    +0.120 C 
ATOM      3  N   UNL     1      -3.598   4.565   0.361  0.00  0.00    -0.292 N 
ATOM      4  C   UNL     1      -3.621   5.044  -0.891  0.00  0.00    +0.302 C 
ATOM      5  O   UNL     1      -3.719   6.245  -1.056  0.00  0.00    -0.253 OA
ATOM      6  N   UNL     1      -3.540   4.251  -1.970  0.00  0.00    -0.264 N 
ATOM      7  C   UNL     1      -3.432   2.797  -1.839  0.00  0.00    +0.243 C 
ATOM      8  H   UNL     1      -3.652   5.183   1.107  0.00  0.00    +0.151 HD
ATOM      9  H   UNL     1      -3.553   4.649  -2.854  0.00  0.00    +0.153 HD
ENDROOT
BRANCH   2  10
ATOM     10  C   UNL     1      -4.873   2.533   0.723  0.00  0.00    -0.026 A 
ATOM     11  C   UNL     1      -5.948   3.180   0.142  0.00  0.00    +0.007 A 
ATOM     12  C   UNL     1      -7.213   2.631   0.226  0.00  0.00    +0.020 A 
ATOM     13  C   UNL     1      -7.407   1.439   0.902  0.00  0.00    +0.041 A 
ATOM     14  C   UNL     1      -6.332   0.795   1.489  0.00  0.00    +0.020 A 
ATOM     15  C   UNL     1      -5.066   1.343   1.399  0.00  0.00    +0.007 A 
ATOM     16 CL   UNL     1      -8.997   0.752   1.014  0.00  0.00    -0.084 Cl
ENDBRANCH   2  10
BRANCH   7  17
ATOM     17  C   UNL     1      -2.621   2.236  -3.010  0.00  0.00    +0.436 C 
ATOM     18  F   UNL     1      -2.514   0.848  -2.879  0.00  0.00    -0.166 F 
ATOM     19  F   UNL     1      -3.266   2.543  -4.213  0.00  0.00    -0.166 F 
ATOM     20  F   UNL     1      -1.343   2.805  -3.007  0.00  0.00    -0.166 F 
ENDBRANCH   7  17
BRANCH   1  21
ATOM     21  C   UNL     1      -1.313   2.983  -0.556  0.00  0.00    +0.179 C 
ATOM     22  O   UNL     1      -1.055   4.071  -0.080  0.00  0.00    -0.291 OA
BRANCH  21  25
ATOM     23  C   UNL     1       1.845   1.563  -1.903  0.00  0.00    +0.008 A 
ATOM     24  C   UNL     1       1.064   2.502  -1.282  0.00  0.00    +0.019 A 
ATOM     25  C   UNL     1      -0.288   2.208  -1.142  0.00  0.00    +0.055 A 
ATOM     26  S   UNL     1      -0.393   0.598  -1.905  0.00  0.00    -0.094 S 
ATOM     27  C   UNL     1       1.274   0.410  -2.345  0.00  0.00    +0.046 A 
ENDBRANCH  21  25
ENDBRANCH   1  21
BRANCH   7  28
ATOM     28  O   UNL     1      -4.738   2.219  -1.843  0.00  0.00    -0.364 OA
ATOM     29  H   UNL     1      -5.243   2.392  -2.649  0.00  0.00    +0.212 HD
ENDBRANCH   7  28
TORSDOF 5
