REMARK  Name = ZINC14970957
REMARK  9 active torsions:
REMARK  status: ('A' for Active; 'I' for Inactive)
REMARK    1  A    between atoms: C_1  and  C_2
REMARK    2  A    between atoms: C_3  and  C_8
REMARK    3  A    between atoms: N_6  and  C_7
REMARK    4  A    between atoms: C_8  and  N_9
REMARK    5  A    between atoms: C_15  and  S_21
REMARK    6  A    between atoms: C_16  and  C_17
REMARK    7  A    between atoms: C_17  and  O_19
REMARK    8  A    between atoms: O_19  and  C_20
REMARK    9  A    between atoms: S_21  and  N_24
REMARK                            x       y       z     vdW  Elec       q    Type
REMARK                         _______ _______ _______ _____ _____    ______ ____
ROOT
ATOM      1  N   UNL     1      -1.826  -1.281   1.308  0.00  0.00    -0.293 NA
ATOM      2  C   UNL     1      -3.062  -2.055   1.492  0.00  0.00    +0.090 C 
ATOM      3  C   UNL     1      -2.957  -2.924   2.749  0.00  0.00    +0.052 C 
ATOM      4  C   UNL     1      -2.530  -2.031   3.908  0.00  0.00    -0.019 A 
ATOM      5  C   UNL     1      -1.980  -0.818   3.665  0.00  0.00    +0.010 A 
ATOM      6  S   UNL     1      -1.651  -0.148   5.268  0.00  0.00    -0.071 S 
ATOM      7  C   UNL     1      -2.233  -1.458   6.242  0.00  0.00    +0.157 A 
ATOM      8  C   UNL     1      -2.666  -2.377   5.309  0.00  0.00    +0.096 A 
ATOM      9  C   UNL     1      -1.722  -0.213   2.321  0.00  0.00    +0.127 C 
ENDROOT
BRANCH   7  10
ATOM     10  S   UNL     1      -2.264  -1.585   7.999  0.00  0.00    +0.068 S 
ATOM     11  O   UNL     1      -2.274  -0.257   8.502  0.00  0.00    -0.152 OA
ATOM     12  O   UNL     1      -3.277  -2.529   8.320  0.00  0.00    -0.152 OA
BRANCH  10  13
ATOM     13  N   UNL     1      -0.825  -2.258   8.466  0.00  0.00    -0.176 NA
ATOM     14  C   UNL     1       0.289  -1.402   8.898  0.00  0.00    +0.109 C 
ATOM     15  C   UNL     1      -0.076  -0.751  10.231  0.00  0.00    +0.017 C 
ATOM     16  C   UNL     1      -0.020  -1.810  11.345  0.00  0.00    +0.001 C 
ATOM     17  C   UNL     1      -1.276  -2.673  11.287  0.00  0.00    +0.000 C 
ATOM     18  C   UNL     1      -0.925  -4.120  10.898  0.00  0.00    +0.001 C 
ATOM     19  C   UNL     1       0.072  -4.116   9.739  0.00  0.00    +0.017 C 
ATOM     20  C   UNL     1      -0.648  -3.700   8.449  0.00  0.00    +0.109 C 
ENDBRANCH  10  13
ENDBRANCH   7  10
BRANCH   8  21
ATOM     21  C   UNL     1      -3.246  -3.664   5.721  0.00  0.00    +0.342 C 
ATOM     22  O   UNL     1      -2.527  -4.629   5.890  0.00  0.00    -0.245 OA
BRANCH  21  23
ATOM     23  O   UNL     1      -4.576  -3.773   5.912  0.00  0.00    -0.464 OA
ATOM     24  C   UNL     1      -5.079  -5.073   6.319  0.00  0.00    +0.280 C 
ENDBRANCH  21  23
ENDBRANCH   8  21
BRANCH   1  25
ATOM     25  C   UNL     1      -1.750  -0.727  -0.051  0.00  0.00    +0.123 C 
BRANCH  25  28
ATOM     26  C   UNL     1       1.275  -1.447  -0.392  0.00  0.00    +0.065 C 
ATOM     27  C   UNL     1       0.700  -0.059  -0.277  0.00  0.00    +0.040 A 
ATOM     28  C   UNL     1      -0.608   0.254  -0.130  0.00  0.00    +0.007 A 
ATOM     29  C   UNL     1      -0.713   1.647  -0.064  0.00  0.00    +0.139 A 
ATOM     30  N   UNL     1       0.489   2.153  -0.168  0.00  0.00    -0.179 NA
ATOM     31  N   UNL     1       1.398   1.096  -0.303  0.00  0.00    -0.271 N 
ATOM     32  C   UNL     1       2.851   1.222  -0.448  0.00  0.00    +0.172 C 
ENDBRANCH  25  28
ENDBRANCH   1  25
TORSDOF 6
