REMARK  Name = ZINC37271714
REMARK  5 active torsions:
REMARK  status: ('A' for Active; 'I' for Inactive)
REMARK    1  A    between atoms: C_1  and  O_2
REMARK    2  A    between atoms: O_2  and  C_3
REMARK    3  A    between atoms: C_9  and  N_11
REMARK    4  A    between atoms: N_11  and  C_12
REMARK    5  A    between atoms: C_17  and  N_18
REMARK                            x       y       z     vdW  Elec       q    Type
REMARK                         _______ _______ _______ _____ _____    ______ ____
ROOT
ATOM      1  C   UNL     1      -0.718  -3.883  -0.133  0.00  0.00    +0.053 A 
ATOM      2  C   UNL     1      -1.749  -4.089  -1.038  0.00  0.00    +0.025 A 
ATOM      3  C   UNL     1      -2.631  -5.136  -0.855  0.00  0.00    +0.003 A 
ATOM      4  C   UNL     1      -2.491  -5.983   0.230  0.00  0.00    +0.022 A 
ATOM      5  C   UNL     1      -1.466  -5.785   1.138  0.00  0.00    +0.067 A 
ATOM      6  C   UNL     1      -0.572  -4.739   0.958  0.00  0.00    +0.087 A 
ATOM      7 CL   UNL     1      -1.294  -6.851   2.498  0.00  0.00    -0.081 Cl
ENDROOT
BRANCH   6   8
ATOM      8  N   UNL     1       0.473  -4.540   1.875  0.00  0.00    -0.303 N 
ATOM      9  C   UNL     1       1.528  -5.385   2.103  0.00  0.00    +0.112 A 
ATOM     10  C   UNL     1       2.288  -4.811   3.056  0.00  0.00    +0.130 A 
ATOM     11  N   UNL     1       1.716  -3.649   3.403  0.00  0.00    -0.244 NA
ATOM     12  C   UNL     1       0.631  -3.473   2.698  0.00  0.00    +0.204 A 
ENDBRANCH   6   8
BRANCH   1  13
ATOM     13  N   UNL     1       0.176  -2.824  -0.316  0.00  0.00    -0.337 N 
ATOM     14  H   UNL     1       0.899  -2.684   0.315  0.00  0.00    +0.147 HD
BRANCH  13  20
ATOM     15  C   UNL     1       0.652  -0.570  -1.138  0.00  0.00    +0.138 C 
ATOM     16  C   UNL     1       2.140  -0.759  -0.835  0.00  0.00    +0.033 C 
ATOM     17  C   UNL     1       2.835  -1.365  -2.056  0.00  0.00    +0.003 C 
ATOM     18  C   UNL     1       2.205  -2.721  -2.381  0.00  0.00    +0.002 C 
ATOM     19  C   UNL     1       0.717  -2.532  -2.684  0.00  0.00    +0.025 C 
ATOM     20  C   UNL     1       0.021  -1.926  -1.463  0.00  0.00    +0.099 C 
BRANCH  15  22
ATOM     21  C   UNL     1      -0.017   1.425   0.010  0.00  0.00    +0.194 C 
ATOM     22  O   UNL     1       0.002  -0.004   0.002  0.00  0.00    -0.378 OA
ENDBRANCH  15  22
ENDBRANCH  13  20
ENDBRANCH   1  13
TORSDOF 4
