REMARK  Name = ZINC36874576
REMARK  6 active torsions:
REMARK  status: ('A' for Active; 'I' for Inactive)
REMARK    1  A    between atoms: C_1  and  C_2
REMARK    2  A    between atoms: C_9  and  N_14
REMARK    3  A    between atoms: C_15  and  C_17
REMARK    4  A    between atoms: C_17  and  C_19
REMARK    5  A    between atoms: C_17  and  N_20
REMARK    6  A    between atoms: C_21  and  C_23
REMARK                            x       y       z     vdW  Elec       q    Type
REMARK                         _______ _______ _______ _____ _____    ______ ____
ROOT
ATOM      1  N   UNL     1       6.197   0.088   1.141  0.00  0.00    -0.284 N 
ATOM      2  C   UNL     1       6.845   0.415   2.277  0.00  0.00    +0.237 C 
ATOM      3  O   UNL     1       6.234   0.494   3.322  0.00  0.00    -0.273 OA
ATOM      4  H   UNL     1       6.696  -0.050   0.321  0.00  0.00    +0.155 HD
ENDROOT
BRANCH   1  12
ATOM      5  C   UNL     1       0.292  -1.410   3.347  0.00  0.00    +0.062 C 
ATOM      6  C   UNL     1       0.035  -0.231   2.407  0.00  0.00    +0.256 C 
ATOM      7  C   UNL     1       0.568   1.034   3.030  0.00  0.00    +0.258 C 
ATOM      8  O   UNL     1      -0.151   1.722   3.724  0.00  0.00    -0.271 OA
ATOM      9  N   UNL     1       1.851   1.398   2.813  0.00  0.00    -0.279 N 
ATOM     10  C   UNL     1       2.651   0.604   1.979  0.00  0.00    +0.077 A 
ATOM     11  C   UNL     1       4.028   0.745   1.979  0.00  0.00    +0.050 A 
ATOM     12  C   UNL     1       4.803  -0.051   1.145  0.00  0.00    +0.035 A 
ATOM     13  C   UNL     1       4.196  -0.983   0.314  0.00  0.00    +0.027 A 
ATOM     14  C   UNL     1       2.821  -1.125   0.315  0.00  0.00    +0.049 A 
ATOM     15  C   UNL     1       2.045  -0.335   1.145  0.00  0.00    +0.143 A 
ATOM     16  O   UNL     1       0.691  -0.465   1.159  0.00  0.00    -0.478 OA
ATOM     17  H   UNL     1       2.213   2.196   3.228  0.00  0.00    +0.155 HD
ENDBRANCH   1  12
BRANCH   2  18
ATOM     18  C   UNL     1       8.328   0.680   2.249  0.00  0.00    +0.156 C 
ATOM     19  C   UNL     1       9.060  -0.567   1.751  0.00  0.00    +0.038 C 
BRANCH  18  20
ATOM     20  N   UNL     1       8.790   1.012   3.599  0.00  0.00    -0.300 N 
ATOM     21  C   UNL     1       9.902   1.756   3.767  0.00  0.00    +0.245 C 
ATOM     22  O   UNL     1      10.521   2.151   2.798  0.00  0.00    -0.270 OA
ATOM     23  H   UNL     1       8.296   0.697   4.372  0.00  0.00    +0.150 HD
BRANCH  21  24
ATOM     24  C   UNL     1      10.368   2.090   5.128  0.00  0.00    +0.037 A 
ATOM     25  C   UNL     1       9.663   1.633   6.243  0.00  0.00    +0.014 A 
ATOM     26  C   UNL     1      10.103   1.948   7.511  0.00  0.00    +0.016 A 
ATOM     27  C   UNL     1      11.242   2.717   7.681  0.00  0.00    +0.018 A 
ATOM     28  C   UNL     1      11.946   3.174   6.579  0.00  0.00    +0.016 A 
ATOM     29  C   UNL     1      11.519   2.860   5.306  0.00  0.00    +0.014 A 
ATOM     30 BR   UNL     1      11.839   3.146   9.423  0.00  0.00    -0.050 Br
ENDBRANCH  21  24
ENDBRANCH  18  20
ENDBRANCH   2  18
TORSDOF 4
