REMARK  Name = ZINC37224587
REMARK  6 active torsions:
REMARK  status: ('A' for Active; 'I' for Inactive)
REMARK    1  A    between atoms: C_1  and  N_2
REMARK    2  A    between atoms: C_3  and  C_5
REMARK    3  A    between atoms: C_5  and  N_6
REMARK    4  A    between atoms: N_6  and  S_7
REMARK    5  A    between atoms: S_7  and  C_10
REMARK    6  A    between atoms: C_11  and  N_18
REMARK                            x       y       z     vdW  Elec       q    Type
REMARK                         _______ _______ _______ _____ _____    ______ ____
ROOT
ATOM      1  S   UNL     1      -3.047  -5.142  -0.694  0.00  0.00    +0.062 S 
ATOM      2  O   UNL     1      -4.359  -5.675  -0.573  0.00  0.00    -0.153 OA
ATOM      3  O   UNL     1      -2.211  -5.423  -1.807  0.00  0.00    -0.153 OA
ENDROOT
BRANCH   1   4
ATOM      4  C   UNL     1      -2.163  -5.652   0.742  0.00  0.00    +0.140 A 
ATOM      5  C   UNL     1      -0.781  -5.788   0.696  0.00  0.00    +0.053 A 
ATOM      6  C   UNL     1      -0.087  -6.190   1.830  0.00  0.00    +0.040 A 
ATOM      7  C   UNL     1      -0.773  -6.452   3.001  0.00  0.00    +0.021 A 
ATOM      8  C   UNL     1      -2.149  -6.316   3.044  0.00  0.00    +0.032 A 
ATOM      9  C   UNL     1      -2.842  -5.910   1.917  0.00  0.00    +0.047 A 
ATOM     10 BR   UNL     1      -4.722  -5.718   1.984  0.00  0.00    -0.048 Br
ATOM     11 BR   UNL     1       0.171  -6.999   4.546  0.00  0.00    -0.050 Br
BRANCH   5  12
ATOM     12  N   UNL     1      -0.091  -5.523  -0.489  0.00  0.00    -0.356 N 
ATOM     13  H   UNL     1      -0.473  -4.922  -1.149  0.00  0.00    +0.142 HD
ATOM     14  H   UNL     1       0.770  -5.939  -0.653  0.00  0.00    +0.142 HD
ENDBRANCH   5  12
ENDBRANCH   1   4
BRANCH   1  15
ATOM     15  N   UNL     1      -3.197  -3.495  -0.618  0.00  0.00    -0.181 NA
ATOM     16  H   UNL     1      -4.074  -3.091  -0.526  0.00  0.00    +0.149 HD
BRANCH  15  17
ATOM     17  C   UNL     1      -2.004  -2.647  -0.689  0.00  0.00    +0.201 C 
BRANCH  17  20
ATOM     18  C   UNL     1      -1.878   1.122  -1.348  0.00  0.00    +0.128 C 
ATOM     19  N   UNL     1      -1.478  -0.261  -1.077  0.00  0.00    -0.317 N 
ATOM     20  C   UNL     1      -2.415  -1.224  -0.968  0.00  0.00    +0.228 C 
ATOM     21  O   UNL     1      -3.588  -0.946  -1.095  0.00  0.00    -0.274 OA
ATOM     22  H   UNL     1      -0.540  -0.484  -0.975  0.00  0.00    +0.148 HD
ENDBRANCH  17  20
ENDBRANCH  15  17
ENDBRANCH   1  15
TORSDOF 5
