REMARK  Name = ZINC04802864
REMARK  6 active torsions:
REMARK  status: ('A' for Active; 'I' for Inactive)
REMARK    1  A    between atoms: C_1  and  C_2
REMARK    2  A    between atoms: C_9  and  C_11
REMARK    3  A    between atoms: C_12  and  C_32
REMARK    4  A    between atoms: C_16  and  C_18
REMARK    5  A    between atoms: C_21  and  O_24
REMARK    6  A    between atoms: C_28  and  C_31
REMARK                            x       y       z     vdW  Elec       q    Type
REMARK                         _______ _______ _______ _____ _____    ______ ____
ROOT
ATOM      1  C   UNL     1       0.118  -6.252  -1.174  0.00  0.00    +0.043 C 
ATOM      2  C   UNL     1       0.172  -6.865  -2.369  0.00  0.00    +0.014 C 
ATOM      3  N   UNL     1       0.200  -8.230  -2.446  0.00  0.00    -0.321 N 
ATOM      4  C   UNL     1       0.568  -8.983  -1.364  0.00  0.00    +0.016 C 
ATOM      5  C   UNL     1       0.535  -8.458  -0.121  0.00  0.00    +0.024 C 
ATOM      6  C   UNL     1       0.085  -7.038   0.103  0.00  0.00    +0.090 C 
ATOM      7  C   UNL     1       0.925  -9.215   0.997  0.00  0.00    +0.162 C 
ATOM      8  O   UNL     1       0.876  -8.715   2.103  0.00  0.00    -0.292 OA
ATOM      9  C   UNL     1       1.402 -10.634   0.850  0.00  0.00    +0.083 C 
ATOM     10  C   UNL     1       2.036 -10.807  -0.535  0.00  0.00    -0.001 C 
ATOM     11  C   UNL     1       1.005 -10.409  -1.594  0.00  0.00    +0.055 C 
ATOM     12  C   UNL     1       2.446 -12.267  -0.734  0.00  0.00    +0.008 C 
ATOM     13  C   UNL     1       0.202  -6.042  -3.631  0.00  0.00    +0.061 C 
ATOM     14  H   UNL     1      -0.043  -8.669  -3.277  0.00  0.00    +0.152 HD
ENDROOT
BRANCH   1  23
ATOM     15  C   UNL     1      -0.972   1.445  -1.522  0.00  0.00    +0.045 C 
ATOM     16  C   UNL     1      -1.032  -0.060  -1.474  0.00  0.00    -0.032 A 
ATOM     17  C   UNL     1      -2.225  -0.723  -1.729  0.00  0.00    +0.008 A 
ATOM     18  C   UNL     1      -2.237  -2.105  -1.675  0.00  0.00    +0.044 A 
ATOM     19  C   UNL     1      -1.061  -2.780  -1.368  0.00  0.00    +0.125 A 
ATOM     20  N   UNL     1       0.057  -2.112  -1.130  0.00  0.00    -0.240 NA
ATOM     21  C   UNL     1       0.099  -0.795  -1.180  0.00  0.00    +0.116 A 
ATOM     22  N   UNL     1      -1.059  -4.172  -1.310  0.00  0.00    -0.267 N 
ATOM     23  C   UNL     1       0.098  -4.837  -1.120  0.00  0.00    +0.248 C 
ATOM     24  O   UNL     1       1.125  -4.221  -0.903  0.00  0.00    -0.270 OA
ATOM     25  H   UNL     1      -1.891  -4.663  -1.405  0.00  0.00    +0.157 HD
ENDBRANCH   1  23
BRANCH   6  26
ATOM     26  C   UNL     1      -1.322  -7.049   0.641  0.00  0.00    -0.035 A 
ATOM     27  C   UNL     1      -2.345  -7.594  -0.113  0.00  0.00    +0.008 A 
ATOM     28  C   UNL     1      -3.637  -7.604   0.378  0.00  0.00    +0.046 A 
ATOM     29  C   UNL     1      -3.907  -7.069   1.629  0.00  0.00    +0.117 A 
ATOM     30  C   UNL     1      -2.878  -6.523   2.384  0.00  0.00    +0.046 A 
ATOM     31  C   UNL     1      -1.588  -6.519   1.891  0.00  0.00    +0.008 A 
BRANCH  29  32
ATOM     32  O   UNL     1      -5.176  -7.078   2.114  0.00  0.00    -0.507 OA
ATOM     33  H   UNL     1      -5.397  -7.869   2.623  0.00  0.00    +0.292 HD
ENDBRANCH  29  32
ENDBRANCH   6  26
TORSDOF 3
