REMARK  Name = ZINC31227905
REMARK  5 active torsions:
REMARK  status: ('A' for Active; 'I' for Inactive)
REMARK    1  A    between atoms: C_1  and  C_2
REMARK    2  A    between atoms: C_5  and  C_7
REMARK    3  A    between atoms: C_9  and  C_12
REMARK    4  A    between atoms: C_17  and  C_21
REMARK    5  A    between atoms: C_18  and  C_20
REMARK                            x       y       z     vdW  Elec       q    Type
REMARK                         _______ _______ _______ _____ _____    ______ ____
ROOT
ATOM      1  C   UNL     1       1.662  -3.221  -0.023  0.00  0.00    +0.144 A 
ATOM      2  N   UNL     1       2.985  -3.233  -0.023  0.00  0.00    -0.231 NA
ATOM      3  C   UNL     1       3.605  -4.405  -0.033  0.00  0.00    +0.134 A 
ATOM      4  C   UNL     1       2.858  -5.554  -0.042  0.00  0.00    +0.080 A 
ATOM      5  S   UNL     1       1.281  -4.964  -0.029  0.00  0.00    -0.072 S 
ENDROOT
BRANCH   3   6
ATOM      6  C   UNL     1       5.076  -4.472  -0.035  0.00  0.00    +0.269 C 
ATOM      7  O   UNL     1       5.635  -5.552  -0.044  0.00  0.00    -0.268 OA
ATOM      8  N   UNL     1       5.802  -3.337  -0.026  0.00  0.00    -0.259 N 
ATOM      9  C   UNL     1       7.189  -3.400  -0.028  0.00  0.00    +0.165 A 
ATOM     10  N   UNL     1       7.959  -4.467  -0.043  0.00  0.00    -0.230 NA
ATOM     11  C   UNL     1       9.275  -4.358  -0.043  0.00  0.00    +0.050 A 
ATOM     12  C   UNL     1       9.790  -3.104  -0.026  0.00  0.00    +0.011 A 
ATOM     13  S   UNL     1       8.294  -2.130  -0.018  0.00  0.00    -0.057 S 
ATOM     14  C   UNL     1      11.229  -2.656  -0.020  0.00  0.00    +0.053 C 
ATOM     15  C   UNL     1      10.165  -5.574  -0.059  0.00  0.00    +0.066 C 
ATOM     16  H   UNL     1       5.355  -2.476  -0.019  0.00  0.00    +0.157 HD
ENDBRANCH   3   6
BRANCH   1  21
ATOM     17  C   UNL     1      -0.018   1.503   0.010  0.00  0.00    +0.086 C 
ATOM     18  C   UNL     1       0.002  -0.004   0.002  0.00  0.00    +0.103 A 
ATOM     19  C   UNL     1      -1.083  -0.805   0.003  0.00  0.00    +0.045 A 
ATOM     20  C   UNL     1      -0.617  -2.133  -0.007  0.00  0.00    +0.052 A 
ATOM     21  C   UNL     1       0.744  -2.070  -0.013  0.00  0.00    +0.160 A 
ATOM     22  O   UNL     1       1.103  -0.771  -0.013  0.00  0.00    -0.458 OA
ENDBRANCH   1  21
TORSDOF 2
