REMARK  Name = ZINC47011470
REMARK  7 active torsions:
REMARK  status: ('A' for Active; 'I' for Inactive)
REMARK    1  A    between atoms: C_1  and  C_2
REMARK    2  A    between atoms: N_11  and  C_12
REMARK    3  A    between atoms: C_12  and  C_13
REMARK    4  A    between atoms: C_13  and  C_15
REMARK    5  A    between atoms: C_13  and  N_16
REMARK    6  A    between atoms: C_18  and  C_25
REMARK    7  A    between atoms: C_21  and  C_24
REMARK                            x       y       z     vdW  Elec       q    Type
REMARK                         _______ _______ _______ _____ _____    ______ ____
ROOT
ATOM      1  C   UNL     1       0.105   1.395  -0.348  0.00  0.00    +0.009 C 
ATOM      2  C   UNL     1       0.062  -0.133  -0.284  0.00  0.00    +0.003 C 
ATOM      3  C   UNL     1       0.659  -0.715  -1.567  0.00  0.00    +0.006 C 
ATOM      4  C   UNL     1       0.586  -2.243  -1.518  0.00  0.00    +0.019 C 
ATOM      5  C   UNL     1       1.407  -2.752  -0.328  0.00  0.00    +0.109 C 
ATOM      6  N   UNL     1       0.933  -2.085   0.893  0.00  0.00    -0.285 N 
ATOM      7  C   UNL     1       0.876  -0.617   0.920  0.00  0.00    +0.112 C 
ATOM      8  C   UNL     1       0.557  -2.807   1.967  0.00  0.00    +0.302 C 
ATOM      9  O   UNL     1       0.255  -2.244   3.002  0.00  0.00    -0.253 OA
ATOM     10  N   UNL     1       0.517  -4.152   1.895  0.00  0.00    -0.298 N 
ATOM     11  H   UNL     1       0.827  -4.604   1.095  0.00  0.00    +0.150 HD
ENDROOT
BRANCH  10  12
ATOM     12  C   UNL     1       0.005  -4.931   3.025  0.00  0.00    +0.124 C 
BRANCH  12  13
ATOM     13  C   UNL     1       0.181  -6.424   2.737  0.00  0.00    +0.071 C 
ATOM     14  C   UNL     1      -0.479  -7.239   3.851  0.00  0.00    +0.026 C 
BRANCH  13  15
ATOM     15  N   UNL     1      -0.450  -6.752   1.451  0.00  0.00    -0.293 NA
ATOM     16  C   UNL     1      -0.141  -8.132   1.050  0.00  0.00    +0.116 C 
ATOM     17  C   UNL     1      -0.766  -8.412  -0.319  0.00  0.00    +0.130 C 
ATOM     18  O   UNL     1      -2.174  -8.168  -0.254  0.00  0.00    -0.371 OA
ATOM     19  C   UNL     1      -2.511  -6.833   0.133  0.00  0.00    +0.130 C 
ATOM     20  C   UNL     1      -1.903  -6.538   1.507  0.00  0.00    +0.116 C 
ATOM     21  C   UNL     1      -4.032  -6.690   0.205  0.00  0.00    +0.039 C 
ATOM     22  C   UNL     1      -0.516  -9.870  -0.707  0.00  0.00    +0.039 C 
ENDBRANCH  13  15
ENDBRANCH  12  13
ENDBRANCH  10  12
TORSDOF 3
