REMARK  Name = ZINC22287312
REMARK  7 active torsions:
REMARK  status: ('A' for Active; 'I' for Inactive)
REMARK    1  A    between atoms: C_1  and  O_2
REMARK    2  A    between atoms: O_2  and  C_3
REMARK    3  A    between atoms: C_3  and  C_5
REMARK    4  A    between atoms: C_5  and  C_7
REMARK    5  A    between atoms: C_5  and  N_14
REMARK    6  A    between atoms: N_17  and  S_20
REMARK    7  A    between atoms: S_20  and  C_23
REMARK                            x       y       z     vdW  Elec       q    Type
REMARK                         _______ _______ _______ _____ _____    ______ ____
ROOT
ATOM      1  N   UNL     1       3.534   3.070  -0.488  0.00  0.00    +0.393 N 
ATOM      2  C   UNL     1       3.626   1.841   0.311  0.00  0.00    -0.060 C 
ATOM      3  C   UNL     1       4.638   0.890  -0.336  0.00  0.00    +0.091 C 
ATOM      4  N   UNL     1       5.907   1.611  -0.518  0.00  0.00    -0.180 NA
ATOM      5  C   UNL     1       5.875   2.918  -1.190  0.00  0.00    +0.091 C 
ATOM      6  C   UNL     1       4.814   3.790  -0.509  0.00  0.00    -0.060 C 
ATOM      7  H   UNL     1       3.296   2.780  -1.522  0.00  0.00    -0.080 HD
ENDROOT
BRANCH   4   8
ATOM      8  S   UNL     1       7.335   0.967   0.021  0.00  0.00    +0.061 S 
ATOM      9  O   UNL     1       7.146  -0.440   0.088  0.00  0.00    -0.153 OA
ATOM     10  O   UNL     1       8.367   1.561  -0.755  0.00  0.00    -0.153 OA
BRANCH   8  11
ATOM     11  C   UNL     1       7.566   1.524   1.676  0.00  0.00    +0.106 A 
ATOM     12  C   UNL     1       8.248   2.701   1.920  0.00  0.00    +0.030 A 
ATOM     13  C   UNL     1       8.425   3.141   3.219  0.00  0.00    +0.022 A 
ATOM     14  C   UNL     1       7.929   2.397   4.274  0.00  0.00    +0.041 A 
ATOM     15  C   UNL     1       7.251   1.216   4.030  0.00  0.00    +0.022 A 
ATOM     16  C   UNL     1       7.070   0.780   2.731  0.00  0.00    +0.030 A 
ATOM     17 CL   UNL     1       8.156   2.946   5.906  0.00  0.00    -0.084 Cl
ENDBRANCH   8  11
ENDBRANCH   4   8
BRANCH   1  18
ATOM     18  C   UNL     1       2.452   3.936   0.000  0.00  0.00    +0.075 C 
BRANCH  18  19
ATOM     19  C   UNL     1       1.143   3.192  -0.069  0.00  0.00    -0.032 A 
ATOM     20  C   UNL     1       0.579   2.677   1.083  0.00  0.00    +0.004 A 
ATOM     21  C   UNL     1      -0.622   1.994   1.019  0.00  0.00    +0.000 A 
ATOM     22  C   UNL     1      -1.256   1.822  -0.197  0.00  0.00    +0.001 A 
ATOM     23  C   UNL     1      -0.695   2.341  -1.349  0.00  0.00    +0.020 A 
ATOM     24  C   UNL     1       0.507   3.024  -1.286  0.00  0.00    +0.043 A 
ATOM     25 CL   UNL     1       1.215   3.670  -2.733  0.00  0.00    -0.083 Cl
ENDBRANCH  18  19
BRANCH  18  26
ATOM     26  C   UNL     1       2.730   4.331   1.428  0.00  0.00    +0.297 C 
ATOM     27  O   UNL     1       3.727   3.932   1.982  0.00  0.00    -0.252 OA
BRANCH  26  29
ATOM     28  C   UNL     1       2.202   5.465   3.456  0.00  0.00    +0.280 C 
ATOM     29  O   UNL     1       1.870   5.125   2.084  0.00  0.00    -0.469 OA
ENDBRANCH  26  29
ENDBRANCH  18  26
ENDBRANCH   1  18
TORSDOF 6
