REMARK  Name = ZINC64595702
REMARK  5 active torsions:
REMARK  status: ('A' for Active; 'I' for Inactive)
REMARK    1  A    between atoms: C_1  and  N_2
REMARK    2  A    between atoms: N_2  and  S_3
REMARK    3  A    between atoms: S_3  and  C_6
REMARK    4  A    between atoms: C_10  and  S_12
REMARK    5  A    between atoms: S_12  and  N_15
REMARK                            x       y       z     vdW  Elec       q    Type
REMARK                         _______ _______ _______ _____ _____    ______ ____
ROOT
ATOM      1  S   UNL     1      -2.389  -2.028  -5.218  0.00  0.00    +0.075 S 
ATOM      2  O   UNL     1      -1.950  -3.289  -4.733  0.00  0.00    -0.150 OA
ATOM      3  O   UNL     1      -3.531  -1.888  -6.052  0.00  0.00    -0.150 OA
ENDROOT
BRANCH   1   4
ATOM      4  N   UNL     1      -1.115  -1.369  -6.045  0.00  0.00    -0.203 N 
ATOM      5  C   UNL     1      -1.348  -0.438  -7.157  0.00  0.00    +0.132 C 
ATOM      6  C   UNL     1      -0.414  -0.839  -8.307  0.00  0.00    +0.025 C 
ATOM      7  C   UNL     1       1.035  -0.669  -7.848  0.00  0.00    +0.039 C 
ATOM      8  C   UNL     1       1.259  -1.373  -6.536  0.00  0.00    -0.022 A 
ATOM      9  C   UNL     1       0.203  -1.686  -5.691  0.00  0.00    +0.055 A 
ATOM     10  C   UNL     1       0.444  -2.327  -4.481  0.00  0.00    +0.028 A 
ATOM     11  C   UNL     1       1.735  -2.650  -4.115  0.00  0.00    +0.040 A 
ATOM     12  C   UNL     1       2.790  -2.336  -4.955  0.00  0.00    +0.124 A 
ATOM     13  C   UNL     1       2.551  -1.706  -6.167  0.00  0.00    +0.043 A 
ATOM     14  F   UNL     1       4.054  -2.654  -4.598  0.00  0.00    -0.205 F 
ENDBRANCH   1   4
BRANCH   1  19
ATOM     15  C   UNL     1      -2.247  -0.499  -1.505  0.00  0.00    +0.107 A 
ATOM     16  C   UNL     1      -3.117   0.572  -1.584  0.00  0.00    +0.028 A 
ATOM     17  C   UNL     1      -3.765   0.849  -2.773  0.00  0.00    +0.004 A 
ATOM     18  C   UNL     1      -3.542   0.055  -3.883  0.00  0.00    +0.029 A 
ATOM     19  C   UNL     1      -2.672  -1.016  -3.804  0.00  0.00    +0.111 A 
ATOM     20  C   UNL     1      -2.020  -1.290  -2.615  0.00  0.00    +0.057 A 
BRANCH  15  21
ATOM     21  S   UNL     1      -1.420  -0.852   0.011  0.00  0.00    +0.058 S 
ATOM     22  O   UNL     1      -1.073  -2.229  -0.027  0.00  0.00    -0.153 OA
ATOM     23  O   UNL     1      -2.218  -0.296   1.047  0.00  0.00    -0.153 OA
BRANCH  21  25
ATOM     24  C   UNL     1      -0.017   1.460   0.010  0.00  0.00    +0.127 C 
ATOM     25  N   UNL     1       0.003  -0.005   0.002  0.00  0.00    -0.193 NA
ATOM     26  H   UNL     1       0.849  -0.478  -0.009  0.00  0.00    +0.148 HD
ENDBRANCH  21  25
ENDBRANCH  15  21
ENDBRANCH   1  19
TORSDOF 4
