REMARK  Name = ZINC34830056
REMARK  6 active torsions:
REMARK  status: ('A' for Active; 'I' for Inactive)
REMARK    1  A    between atoms: C_4  and  C_7
REMARK    2  A    between atoms: N_16  and  C_17
REMARK    3  A    between atoms: C_17  and  C_18
REMARK    4  A    between atoms: C_18  and  C_19
REMARK    5  A    between atoms: C_28  and  C_30
REMARK    6  A    between atoms: C_30  and  C_31
REMARK                            x       y       z     vdW  Elec       q    Type
REMARK                         _______ _______ _______ _____ _____    ______ ____
ROOT
ATOM      1  C   UNL     1       3.225  -2.651   3.130  0.00  0.00    +0.077 C 
ENDROOT
BRANCH   1   2
ATOM      2  C   UNL     1       3.025  -2.193   4.551  0.00  0.00    +0.214 C 
ATOM      3  O   UNL     1       3.047  -1.010   4.816  0.00  0.00    -0.276 OA
ATOM      4  N   UNL     1       2.820  -3.099   5.529  0.00  0.00    -0.300 N 
ATOM      5  C   UNL     1       2.621  -2.701   6.878  0.00  0.00    +0.109 C 
ATOM      6  C   UNL     1       3.938  -2.445   7.683  0.00  0.00    +0.038 C 
ATOM      7  C   UNL     1       4.976  -3.522   7.229  0.00  0.00    +0.109 C 
ATOM      8  N   UNL     1       4.426  -4.811   6.990  0.00  0.00    -0.300 N 
ATOM      9  C   UNL     1       4.081  -5.148   5.585  0.00  0.00    +0.126 C 
ATOM     10  C   UNL     1       2.787  -4.556   5.241  0.00  0.00    +0.126 C 
ATOM     11  C   UNL     1       4.228  -5.689   7.994  0.00  0.00    +0.220 C 
ATOM     12  O   UNL     1       4.520  -5.386   9.131  0.00  0.00    -0.275 OA
BRANCH  11  13
ATOM     13  C   UNL     1       3.643  -7.046   7.702  0.00  0.00    +0.138 C 
BRANCH  13  14
ATOM     14  C   UNL     1       3.525  -7.828   8.985  0.00  0.00    -0.001 A 
ATOM     15  C   UNL     1       2.487  -7.889   9.855  0.00  0.00    +0.011 A 
ATOM     16  C   UNL     1       2.602  -8.684  10.981  0.00  0.00    +0.008 A 
ATOM     17  C   UNL     1       3.748  -9.378  11.181  0.00  0.00    +0.045 A 
ATOM     18  S   UNL     1       4.712  -8.921   9.750  0.00  0.00    -0.101 S 
ENDBRANCH  13  14
ENDBRANCH  11  13
ENDBRANCH   1   2
BRANCH   1  19
ATOM     19  C   UNL     1       3.435  -1.434   2.227  0.00  0.00    -0.068 C 
BRANCH  19  28
ATOM     20  C   UNL     1       3.711  -0.707  -0.038  0.00  0.00    -0.006 C 
ATOM     21  C   UNL     1       4.017  -1.174  -1.457  0.00  0.00    -0.047 A 
ATOM     22  C   UNL     1       3.786  -0.408  -2.597  0.00  0.00    +0.010 A 
ATOM     23  C   UNL     1       4.087  -0.905  -3.819  0.00  0.00    +0.045 A 
ATOM     24  S   UNL     1       4.729  -2.522  -3.412  0.00  0.00    -0.101 S 
ATOM     25  C   UNL     1       4.550  -2.413  -1.655  0.00  0.00    -0.010 A 
ATOM     26  C   UNL     1       4.891  -3.411  -0.597  0.00  0.00    +0.024 C 
ATOM     27  C   UNL     1       4.860  -2.681   0.756  0.00  0.00    -0.072 C 
ATOM     28  N   UNL     1       3.631  -1.880   0.841  0.00  0.00    +0.388 N 
ATOM     29  H   UNL     1       2.846  -2.450   0.562  0.00  0.00    -0.080 HD
BRANCH  20  33
ATOM     30  C   UNL     1      -0.017   1.378   0.010  0.00  0.00    +0.000 A 
ATOM     31  C   UNL     1       1.171   2.086   0.002  0.00  0.00    +0.000 A 
ATOM     32  C   UNL     1       2.377   1.411  -0.013  0.00  0.00    +0.002 A 
ATOM     33  C   UNL     1       2.396   0.029  -0.020  0.00  0.00    -0.057 A 
ATOM     34  C   UNL     1       1.208  -0.679  -0.012  0.00  0.00    +0.002 A 
ATOM     35  C   UNL     1       0.002  -0.004   0.002  0.00  0.00    +0.000 A 
ENDBRANCH  20  33
ENDBRANCH  19  28
ENDBRANCH   1  19
TORSDOF 6
