REMARK  Name = ZINC34785335
REMARK  7 active torsions:
REMARK  status: ('A' for Active; 'I' for Inactive)
REMARK    1  A    between atoms: C_1  and  C_2
REMARK    2  A    between atoms: C_2  and  O_3
REMARK    3  A    between atoms: O_3  and  C_4
REMARK    4  A    between atoms: C_4  and  C_6
REMARK    5  A    between atoms: C_10  and  N_11
REMARK    6  A    between atoms: N_17  and  C_20
REMARK    7  A    between atoms: C_20  and  C_21
REMARK                            x       y       z     vdW  Elec       q    Type
REMARK                         _______ _______ _______ _____ _____    ______ ____
ROOT
ATOM      1  C   UNL     1       1.448  -2.353  -2.514  0.00  0.00    +0.091 A 
ATOM      2  C   UNL     1       2.875  -2.629  -2.513  0.00  0.00    -0.021 A 
ATOM      3  C   UNL     1       3.342  -3.123  -3.679  0.00  0.00    -0.004 A 
ATOM      4  S   UNL     1       1.922  -3.214  -4.730  0.00  0.00    -0.077 S 
ATOM      5  C   UNL     1       0.750  -2.629  -3.680  0.00  0.00    +0.087 A 
ATOM      6  C   UNL     1       4.756  -3.503  -3.993  0.00  0.00    +0.043 C 
ATOM      7  C   UNL     1       5.669  -2.895  -2.917  0.00  0.00    +0.005 C 
ATOM      8  C   UNL     1       5.081  -3.203  -1.537  0.00  0.00    +0.005 C 
ATOM      9  C   UNL     1       3.798  -2.396  -1.326  0.00  0.00    +0.037 C 
ENDROOT
BRANCH   5  10
ATOM     10  N   UNL     1      -0.604  -2.459  -3.924  0.00  0.00    -0.263 N 
ATOM     11  C   UNL     1      -1.118  -2.782  -5.127  0.00  0.00    +0.307 C 
ATOM     12  O   UNL     1      -0.382  -3.136  -6.027  0.00  0.00    -0.252 OA
ATOM     13  N   UNL     1      -2.448  -2.712  -5.332  0.00  0.00    -0.289 N 
ATOM     14  C   UNL     1      -3.346  -2.173  -4.298  0.00  0.00    +0.091 C 
ATOM     15  C   UNL     1      -4.249  -1.116  -4.942  0.00  0.00    -0.059 C 
ATOM     16  N   UNL     1      -4.939  -1.702  -6.099  0.00  0.00    +0.384 N 
ATOM     17  C   UNL     1      -3.961  -2.069  -7.131  0.00  0.00    -0.059 C 
ATOM     18  C   UNL     1      -3.043  -3.168  -6.598  0.00  0.00    +0.091 C 
ATOM     19  H   UNL     1      -1.181  -2.107  -3.228  0.00  0.00    +0.157 HD
ATOM     20  H   UNL     1      -5.442  -2.526  -5.806  0.00  0.00    -0.081 HD
BRANCH  16  21
ATOM     21  C   UNL     1      -5.886  -0.723  -6.649  0.00  0.00    -0.052 C 
BRANCH  21  22
ATOM     22  C   UNL     1      -6.682  -1.363  -7.758  0.00  0.00    -0.053 C 
ATOM     23  C   UNL     1      -7.991  -1.356  -7.712  0.00  0.00    +0.002 C 
ENDBRANCH  21  22
ENDBRANCH  16  21
ENDBRANCH   5  10
BRANCH   1  24
ATOM     24  C   UNL     1       0.775  -1.814  -1.331  0.00  0.00    +0.342 C 
ATOM     25  O   UNL     1       0.310  -2.569  -0.498  0.00  0.00    -0.245 OA
BRANCH  24  26
ATOM     26  O   UNL     1       0.669  -0.479  -1.165  0.00  0.00    -0.461 OA
BRANCH  26  28
ATOM     27  C   UNL     1      -0.021   1.507   0.026  0.00  0.00    +0.048 C 
ATOM     28  C   UNL     1       0.000  -0.023   0.012  0.00  0.00    +0.229 C 
ENDBRANCH  26  28
ENDBRANCH  24  26
ENDBRANCH   1  24
TORSDOF 6
