REMARK  Name = ZINC66578512
REMARK  6 active torsions:
REMARK  status: ('A' for Active; 'I' for Inactive)
REMARK    1  A    between atoms: C_1  and  C_2
REMARK    2  A    between atoms: C_2  and  C_3
REMARK    3  A    between atoms: C_2  and  C_4
REMARK    4  A    between atoms: N_11  and  S_12
REMARK    5  A    between atoms: S_12  and  C_15
REMARK    6  A    between atoms: C_18  and  N_22
REMARK                            x       y       z     vdW  Elec       q    Type
REMARK                         _______ _______ _______ _____ _____    ______ ____
ROOT
ATOM      1  S   UNL     1      -1.707  -2.882   1.373  0.00  0.00    +0.063 S 
ATOM      2  O   UNL     1      -1.176  -4.199   1.313  0.00  0.00    -0.153 OA
ATOM      3  O   UNL     1      -1.303  -1.942   2.359  0.00  0.00    -0.153 OA
ENDROOT
BRANCH   1  10
ATOM      4  C   UNL     1      -1.153  -0.741  -0.223  0.00  0.00    +0.168 C 
ATOM      5  C   UNL     1      -1.903  -0.212  -1.415  0.00  0.00    +0.232 C 
ATOM      6  O   UNL     1      -2.010   0.989  -1.545  0.00  0.00    -0.274 OA
ATOM      7  N   UNL     1      -2.457  -1.004  -2.334  0.00  0.00    -0.313 N 
ATOM      8  C   UNL     1      -2.488  -2.458  -2.263  0.00  0.00    +0.121 C 
ATOM      9  C   UNL     1      -1.385  -2.980  -1.340  0.00  0.00    +0.129 C 
ATOM     10  N   UNL     1      -1.407  -2.183  -0.099  0.00  0.00    -0.163 NA
ATOM     11  H   UNL     1      -2.867  -0.581  -3.105  0.00  0.00    +0.149 HD
BRANCH   4  13
ATOM     12  C   UNL     1       0.608   1.003  -0.548  0.00  0.00    +0.009 C 
ATOM     13  C   UNL     1       0.346  -0.499  -0.413  0.00  0.00    +0.011 C 
ATOM     14  C   UNL     1       1.108  -1.042   0.798  0.00  0.00    +0.009 C 
ENDBRANCH   4  13
ENDBRANCH   1  10
BRANCH   1  15
ATOM     15  C   UNL     1      -3.454  -3.050   1.523  0.00  0.00    +0.124 A 
ATOM     16  C   UNL     1      -4.029  -4.307   1.540  0.00  0.00    +0.032 A 
ATOM     17  C   UNL     1      -5.400  -4.439   1.657  0.00  0.00    +0.035 A 
ATOM     18  C   UNL     1      -6.197  -3.314   1.759  0.00  0.00    +0.128 A 
ATOM     19  C   UNL     1      -5.623  -2.057   1.743  0.00  0.00    +0.054 A 
ATOM     20  C   UNL     1      -4.251  -1.924   1.631  0.00  0.00    +0.069 A 
ATOM     21 CL   UNL     1      -3.529  -0.345   1.619  0.00  0.00    -0.081 Cl
BRANCH  18  22
ATOM     22  N   UNL     1      -7.665  -3.456   1.884  0.00  0.00    +0.056 N 
ATOM     23  O   UNL     1      -8.167  -4.556   1.897  0.00  0.00    -0.126 OA
ATOM     24  O   UNL     1      -8.362  -2.472   1.973  0.00  0.00    -0.126 OA
ENDBRANCH  18  22
ENDBRANCH   1  15
TORSDOF 4
