REMARK  Name = ZINC39676710
REMARK  11 active torsions:
REMARK  status: ('A' for Active; 'I' for Inactive)
REMARK    1  A    between atoms: C_1  and  C_2
REMARK    2  A    between atoms: C_2  and  C_3
REMARK    3  A    between atoms: C_3  and  C_4
REMARK    4  A    between atoms: C_3  and  C_6
REMARK    5  A    between atoms: C_4  and  C_5
REMARK    6  A    between atoms: C_10  and  C_19
REMARK    7  A    between atoms: N_21  and  C_22
REMARK    8  A    between atoms: C_22  and  C_24
REMARK    9  A    between atoms: C_22  and  C_25
REMARK   10  A    between atoms: C_29  and  O_31
REMARK   11  A    between atoms: O_31  and  C_32
REMARK                            x       y       z     vdW  Elec       q    Type
REMARK                         _______ _______ _______ _____ _____    ______ ____
ROOT
ATOM      1  C   UNL     1      -1.696  -2.062   0.370  0.00  0.00    +0.219 C 
ATOM      2  O   UNL     1      -2.325  -2.841  -0.315  0.00  0.00    -0.275 OA
ATOM      3  N   UNL     1      -0.952  -2.517   1.397  0.00  0.00    -0.300 N 
ATOM      4  C   UNL     1      -0.128  -1.727   2.342  0.00  0.00    +0.121 C 
ATOM      5  C   UNL     1      -0.347  -2.405   3.713  0.00  0.00    +0.100 C 
ATOM      6  C   UNL     1      -0.768  -3.845   3.375  0.00  0.00    -0.004 C 
ATOM      7  C   UNL     1      -0.778  -3.921   1.842  0.00  0.00    +0.115 C 
ATOM      8  C   UNL     1      -2.164  -4.128   3.921  0.00  0.00    -0.010 C 
ATOM      9  C   UNL     1      -2.538  -5.583   3.623  0.00  0.00    -0.082 C 
ATOM     10  N   UNL     1      -1.556  -6.480   4.245  0.00  0.00    +0.379 N 
ATOM     11  C   UNL     1      -0.232  -6.264   3.649  0.00  0.00    -0.082 C 
ATOM     12  C   UNL     1       0.239  -4.838   3.948  0.00  0.00    -0.010 C 
ATOM     13  H   UNL     1      -1.512  -6.292   5.236  0.00  0.00    -0.086 HD
ATOM     14  H   UNL     1      -1.837  -7.438   4.100  0.00  0.00    -0.086 HD
ENDROOT
BRANCH   5  15
ATOM     15  C   UNL     1       0.933  -2.403   4.509  0.00  0.00    +0.219 C 
ATOM     16  O   UNL     1       2.002  -2.356   3.939  0.00  0.00    -0.275 OA
ATOM     17  N   UNL     1       0.888  -2.454   5.855  0.00  0.00    -0.308 N 
ATOM     18  H   UNL     1       0.033  -2.492   6.311  0.00  0.00    +0.149 HD
BRANCH  17  19
ATOM     19  C   UNL     1       2.132  -2.452   6.630  0.00  0.00    +0.100 C 
ATOM     20  C   UNL     1       2.667  -3.881   6.740  0.00  0.00    +0.033 C 
BRANCH  19  21
ATOM     21  C   UNL     1       1.864  -1.908   8.009  0.00  0.00    -0.024 A 
ATOM     22  C   UNL     1       0.705  -2.260   8.677  0.00  0.00    +0.005 A 
ATOM     23  C   UNL     1       0.456  -1.763   9.943  0.00  0.00    +0.004 A 
ATOM     24  C   UNL     1       1.365  -0.913  10.544  0.00  0.00    +0.045 A 
ATOM     25  C   UNL     1       2.528  -0.559   9.877  0.00  0.00    +0.120 A 
ATOM     26  C   UNL     1       2.779  -1.064   8.608  0.00  0.00    +0.051 A 
BRANCH  25  27
ATOM     27  O   UNL     1       3.424   0.276  10.466  0.00  0.00    -0.495 OA
ATOM     28  C   UNL     1       3.103   0.752  11.774  0.00  0.00    +0.277 C 
ENDBRANCH  25  27
ENDBRANCH  19  21
ENDBRANCH  17  19
ENDBRANCH   5  15
BRANCH   1  29
ATOM     29  C   UNL     1      -1.747  -0.586   0.072  0.00  0.00    +0.075 C 
BRANCH  29  31
ATOM     30  C   UNL     1      -0.366   1.441  -0.404  0.00  0.00    +0.004 C 
ATOM     31  C   UNL     1      -0.337  -0.080  -0.240  0.00  0.00    +0.009 C 
ENDBRANCH  29  31
BRANCH  29  32
ATOM     32  C   UNL     1      -2.655  -0.340  -1.134  0.00  0.00    +0.009 C 
ATOM     33  C   UNL     1      -4.098  -0.694  -0.767  0.00  0.00    +0.004 C 
ENDBRANCH  29  32
ENDBRANCH   1  29
TORSDOF 7
