REMARK  Name = ZINC48759960
REMARK  1 active torsions:
REMARK  status: ('A' for Active; 'I' for Inactive)
REMARK    1  A    between atoms: C_6  and  N_7
REMARK                            x       y       z     vdW  Elec       q    Type
REMARK                         _______ _______ _______ _____ _____    ______ ____
ROOT
ATOM      1  C   UNL     1       1.112   1.526  -1.120  0.00  0.00    +0.053 A 
ATOM      2  C   UNL     1       1.135   2.046   0.169  0.00  0.00    +0.038 A 
ATOM      3  C   UNL     1       1.219   1.183   1.244  0.00  0.00    +0.128 A 
ATOM      4  N   UNL     1       1.277  -0.122   1.062  0.00  0.00    -0.237 NA
ATOM      5  C   UNL     1       1.257  -0.656  -0.150  0.00  0.00    +0.152 A 
ATOM      6  C   UNL     1       1.174   0.153  -1.279  0.00  0.00    +0.167 A 
ATOM      7  N   UNL     1       1.320  -2.037  -0.296  0.00  0.00    -0.310 N 
ATOM      8  C   UNL     1       0.100  -2.858  -0.254  0.00  0.00    +0.107 C 
ATOM      9  C   UNL     1       0.276  -3.965   0.789  0.00  0.00    +0.019 C 
ATOM     10  C   UNL     1       1.559  -4.749   0.498  0.00  0.00    +0.007 C 
ATOM     11  C   UNL     1       2.755  -3.801   0.576  0.00  0.00    +0.010 C 
ATOM     12  C   UNL     1       2.605  -2.715  -0.501  0.00  0.00    +0.078 C 
ATOM     13  C   UNL     1       3.761  -1.723  -0.378  0.00  0.00    +0.023 C 
ATOM     14  C   UNL     1       5.081  -2.466  -0.604  0.00  0.00    +0.002 C 
ATOM     15  C   UNL     1       5.237  -3.577   0.435  0.00  0.00    +0.000 C 
ATOM     16  C   UNL     1       4.060  -4.557   0.333  0.00  0.00    +0.005 C 
ATOM     17 BR   UNL     1       1.054   3.914   0.446  0.00  0.00    -0.049 Br
ENDROOT
BRANCH   6  18
ATOM     18  N   UNL     1       1.151  -0.447  -2.632  0.00  0.00    +0.060 N 
ATOM     19  O   UNL     1       1.186   0.264  -3.609  0.00  0.00    -0.126 OA
ATOM     20  O   UNL     1       1.098  -1.648  -2.759  0.00  0.00    -0.126 OA
ENDBRANCH   6  18
TORSDOF 1
