REMARK  Name = ZINC02798190
REMARK  6 active torsions:
REMARK  status: ('A' for Active; 'I' for Inactive)
REMARK    1  A    between atoms: C_1  and  C_2
REMARK    2  A    between atoms: C_2  and  C_3
REMARK    3  A    between atoms: C_2  and  C_4
REMARK    4  A    between atoms: C_2  and  C_5
REMARK    5  A    between atoms: C_16  and  C_21
REMARK    6  A    between atoms: C_21  and  C_22
REMARK                            x       y       z     vdW  Elec       q    Type
REMARK                         _______ _______ _______ _____ _____    ______ ____
ROOT
ATOM      1  C   UNL     1       0.718  -0.497  -1.257  0.00  0.00    -0.000 C 
ATOM      2  C   UNL     1       0.747  -2.029  -1.264  0.00  0.00    +0.009 C 
ATOM      3  C   UNL     1       1.236  -2.533  -2.622  0.00  0.00    +0.037 C 
ATOM      4  C   UNL     1       2.557  -1.846  -2.958  0.00  0.00    -0.024 A 
ATOM      5  C   UNL     1       2.923  -0.710  -2.327  0.00  0.00    -0.004 A 
ATOM      6  S   UNL     1       4.495  -0.283  -3.025  0.00  0.00    -0.073 S 
ATOM      7  C   UNL     1       4.656  -1.634  -4.165  0.00  0.00    +0.114 A 
ATOM      8  C   UNL     1       3.478  -2.372  -3.962  0.00  0.00    +0.055 A 
ATOM      9  C   UNL     1       3.346  -3.579  -4.801  0.00  0.00    +0.168 A 
ATOM     10  N   UNL     1       2.420  -4.511  -4.912  0.00  0.00    -0.210 NA
ATOM     11  C   UNL     1       2.790  -5.398  -5.830  0.00  0.00    +0.166 A 
ATOM     12  N   UNL     1       3.955  -5.056  -6.326  0.00  0.00    -0.148 NA
ATOM     13  N   UNL     1       4.348  -3.876  -5.679  0.00  0.00    -0.201 N 
ATOM     14  C   UNL     1       5.443  -3.075  -5.780  0.00  0.00    +0.226 A 
ATOM     15  N   UNL     1       5.576  -2.004  -5.048  0.00  0.00    -0.228 NA
ATOM     16  C   UNL     1       2.162   0.026  -1.267  0.00  0.00    +0.046 C 
ENDROOT
BRANCH   1  18
ATOM     17  C   UNL     1      -0.019   1.526   0.010  0.00  0.00    +0.011 C 
ATOM     18  C   UNL     1       0.002  -0.004   0.002  0.00  0.00    -0.035 C 
ATOM     19  C   UNL     1       0.742  -0.511   1.242  0.00  0.00    +0.011 C 
ATOM     20  C   UNL     1      -1.433  -0.534   0.013  0.00  0.00    +0.011 C 
ENDBRANCH   1  18
BRANCH  11  21
ATOM     21  C   UNL     1       1.994  -6.610  -6.239  0.00  0.00    +0.196 C 
BRANCH  21  22
ATOM     22  C   UNL     1       1.097  -6.256  -7.351  0.00  0.00    +0.070 C 
ATOM     23  N   UNL     1       0.405  -5.983  -8.210  0.00  0.00    -0.196 NA
ENDBRANCH  21  22
ENDBRANCH  11  21
TORSDOF 3
