REMARK  Name = ZINC66607005
REMARK  6 active torsions:
REMARK  status: ('A' for Active; 'I' for Inactive)
REMARK    1  A    between atoms: C_1  and  C_2
REMARK    2  A    between atoms: C_2  and  C_3
REMARK    3  A    between atoms: C_12  and  C_13
REMARK    4  A    between atoms: C_19  and  C_21
REMARK    5  A    between atoms: C_27  and  O_29
REMARK    6  A    between atoms: O_29  and  C_30
REMARK                            x       y       z     vdW  Elec       q    Type
REMARK                         _______ _______ _______ _____ _____    ______ ____
ROOT
ATOM      1  C   UNL     1       5.270  -1.481  -3.007  0.00  0.00    -0.039 C 
ATOM      2  C   UNL     1       5.432  -2.763  -3.238  0.00  0.00    -0.004 C 
ATOM      3  C   UNL     1       6.515  -3.314  -4.124  0.00  0.00    +0.135 C 
ATOM      4  N   UNL     1       7.145  -2.209  -4.860  0.00  0.00    -0.296 N 
ATOM      5  C   UNL     1       7.446  -0.980  -4.107  0.00  0.00    +0.113 C 
ATOM      6  C   UNL     1       6.119  -0.399  -3.607  0.00  0.00    +0.054 C 
ATOM      7  C   UNL     1       7.436  -2.317  -6.171  0.00  0.00    +0.236 C 
ATOM      8  O   UNL     1       7.957  -1.390  -6.755  0.00  0.00    -0.274 OA
ENDROOT
BRANCH   1  18
ATOM      9  C   UNL     1       0.707  -0.490  -1.238  0.00  0.00    -0.024 A 
ATOM     10  C   UNL     1      -0.019  -0.816  -2.362  0.00  0.00    +0.005 A 
ATOM     11  C   UNL     1       0.617  -1.265  -3.510  0.00  0.00    +0.001 A 
ATOM     12  C   UNL     1       1.988  -1.391  -3.542  0.00  0.00    +0.010 A 
ATOM     13  C   UNL     1       2.737  -1.064  -2.413  0.00  0.00    +0.007 A 
ATOM     14  C   UNL     1       2.094  -0.604  -1.251  0.00  0.00    +0.050 A 
ATOM     15  N   UNL     1       3.070  -0.356  -0.310  0.00  0.00    -0.360 N 
ATOM     16  H   UNL     1       2.904  -0.032   0.589  0.00  0.00    +0.165 HD
ATOM     17  C   UNL     1       4.303  -0.632  -0.825  0.00  0.00    +0.091 A 
ATOM     18  C   UNL     1       4.176  -1.077  -2.102  0.00  0.00    +0.003 A 
BRANCH   9  20
ATOM     19  C   UNL     1      -0.019   1.526   0.010  0.00  0.00    +0.009 C 
ATOM     20  C   UNL     1       0.002  -0.004   0.002  0.00  0.00    +0.034 C 
ENDBRANCH   9  20
ENDBRANCH   1  18
BRANCH   7  21
ATOM     21  C   UNL     1       7.116  -3.590  -6.912  0.00  0.00    +0.165 C 
ATOM     22  C   UNL     1       5.621  -3.612  -7.295  0.00  0.00    +0.033 C 
ATOM     23  C   UNL     1       5.634  -4.252  -8.709  0.00  0.00    +0.021 C 
ATOM     24  C   UNL     1       6.947  -3.680  -9.297  0.00  0.00    +0.112 C 
ATOM     25  N   UNL     1       7.891  -3.650  -8.161  0.00  0.00    -0.256 N 
ATOM     26  C   UNL     1       9.235  -3.673  -8.250  0.00  0.00    +0.403 C 
ATOM     27  O   UNL     1       9.912  -3.643  -7.242  0.00  0.00    -0.226 OA
BRANCH  26  28
ATOM     28  O   UNL     1       9.828  -3.729  -9.458  0.00  0.00    -0.454 OA
ATOM     29  C   UNL     1      11.257  -3.750  -9.478  0.00  0.00    +0.282 C 
ENDBRANCH  26  28
ENDBRANCH   7  21
TORSDOF 4
