REMARK  Name = ZINC05664451
REMARK  3 active torsions:
REMARK  status: ('A' for Active; 'I' for Inactive)
REMARK    1  A    between atoms: C_4  and  C_7
REMARK    2  A    between atoms: C_8  and  C_9
REMARK    3  A    between atoms: N_11  and  C_12
REMARK                            x       y       z     vdW  Elec       q    Type
REMARK                         _______ _______ _______ _____ _____    ______ ____
ROOT
ATOM      1  C   UNL     1      -1.907   1.143  -2.146  0.00  0.00    +0.201 C 
ATOM      2  C   UNL     1      -2.788   0.412  -1.168  0.00  0.00    +0.116 C 
ATOM      3  N   UNL     1      -3.390   1.015  -0.225  0.00  0.00    -0.256 NA
ATOM      4  C   UNL     1      -3.320   2.347   0.056  0.00  0.00    +0.085 A 
ATOM      5  C   UNL     1      -3.225   2.706   1.410  0.00  0.00    +0.029 A 
ATOM      6  C   UNL     1      -3.157   4.030   1.780  0.00  0.00    +0.002 A 
ATOM      7  C   UNL     1      -3.181   5.021   0.814  0.00  0.00    +0.002 A 
ATOM      8  C   UNL     1      -3.272   4.683  -0.519  0.00  0.00    +0.025 A 
ATOM      9  C   UNL     1      -3.339   3.345  -0.913  0.00  0.00    +0.059 A 
ATOM     10  N   UNL     1      -3.416   3.094  -2.277  0.00  0.00    -0.282 N 
ATOM     11  C   UNL     1      -2.764   2.119  -2.913  0.00  0.00    +0.243 C 
ATOM     12  O   UNL     1      -2.862   2.015  -4.117  0.00  0.00    -0.273 OA
ATOM     13  H   UNL     1      -3.986   3.672  -2.809  0.00  0.00    +0.155 HD
ENDROOT
BRANCH   1  16
ATOM     14  C   UNL     1       0.284   1.240  -1.084  0.00  0.00    +0.238 C 
ATOM     15  O   UNL     1       0.446   0.070  -1.379  0.00  0.00    -0.271 OA
ATOM     16  N   UNL     1      -0.860   1.868  -1.422  0.00  0.00    -0.296 N 
ATOM     17  H   UNL     1      -0.989   2.800  -1.187  0.00  0.00    +0.150 HD
BRANCH  14  19
ATOM     18  C   UNL     1       2.419   1.307   0.088  0.00  0.00    +0.013 C 
ATOM     19  C   UNL     1       1.333   1.966  -0.366  0.00  0.00    +0.068 C 
BRANCH  18  23
ATOM     20  C   UNL     1       2.490  -2.934   0.065  0.00  0.00    +0.000 A 
ATOM     21  C   UNL     1       3.603  -2.225  -0.352  0.00  0.00    +0.001 A 
ATOM     22  C   UNL     1       3.587  -0.846  -0.348  0.00  0.00    +0.008 A 
ATOM     23  C   UNL     1       2.443  -0.165   0.080  0.00  0.00    -0.025 A 
ATOM     24  C   UNL     1       1.326  -0.889   0.506  0.00  0.00    +0.008 A 
ATOM     25  C   UNL     1       1.355  -2.267   0.490  0.00  0.00    +0.001 A 
ENDBRANCH  18  23
ENDBRANCH  14  19
ENDBRANCH   1  16
TORSDOF 3
