REMARK  Name = ZINC49755955
REMARK  3 active torsions:
REMARK  status: ('A' for Active; 'I' for Inactive)
REMARK    1  A    between atoms: C_6  and  O_7
REMARK    2  A    between atoms: O_7  and  C_8
REMARK    3  A    between atoms: C_8  and  C_10
REMARK                            x       y       z     vdW  Elec       q    Type
REMARK                         _______ _______ _______ _____ _____    ______ ____
ROOT
ATOM      1  C   UNL     1      -0.036   1.395   0.117  0.00  0.00    +0.048 A 
ATOM      2  C   UNL     1       1.122   2.119   0.118  0.00  0.00    +0.033 A 
ATOM      3  C   UNL     1       2.353   1.466   0.010  0.00  0.00    +0.089 A 
ATOM      4  C   UNL     1       2.387   0.065  -0.100  0.00  0.00    +0.070 A 
ATOM      5  C   UNL     1       1.203  -0.658  -0.101  0.00  0.00    +0.074 A 
ATOM      6  C   UNL     1      -0.005   0.008   0.009  0.00  0.00    +0.134 A 
ATOM      7  N   UNL     1       3.722  -0.278  -0.189  0.00  0.00    -0.344 N 
ATOM      8  H   UNL     1       4.080  -1.175  -0.275  0.00  0.00    +0.167 HD
ATOM      9  C   UNL     1       4.441   0.877  -0.134  0.00  0.00    +0.197 A 
ATOM     10  N   UNL     1       3.641   1.896  -0.018  0.00  0.00    -0.236 NA
ENDROOT
BRANCH   6  11
ATOM     11  O   UNL     1      -1.168  -0.696   0.010  0.00  0.00    -0.420 OA
BRANCH  11  12
ATOM     12  C   UNL     1      -1.980  -0.580  -1.061  0.00  0.00    +0.380 C 
ATOM     13  O   UNL     1      -1.617   0.055  -2.034  0.00  0.00    -0.241 OA
BRANCH  12  14
ATOM     14  C   UNL     1      -3.297  -1.217  -1.053  0.00  0.00    +0.213 A 
ATOM     15  C   UNL     1      -4.212  -1.183  -2.068  0.00  0.00    +0.058 A 
ATOM     16  C   UNL     1      -5.324  -1.920  -1.635  0.00  0.00    +0.058 A 
ATOM     17  C   UNL     1      -5.044  -2.367  -0.388  0.00  0.00    +0.171 A 
ATOM     18  O   UNL     1      -3.820  -1.946  -0.044  0.00  0.00    -0.442 OA
ATOM     19 BR   UNL     1      -6.189  -3.419   0.687  0.00  0.00    -0.008 Br
ENDBRANCH  12  14
ENDBRANCH  11  12
ENDBRANCH   6  11
TORSDOF 3
