REMARK  Name = ZINC17305946
REMARK  9 active torsions:
REMARK  status: ('A' for Active; 'I' for Inactive)
REMARK    1  A    between atoms: C_1  and  C_2
REMARK    2  A    between atoms: C_7  and  N_8
REMARK    3  A    between atoms: C_9  and  C_11
REMARK    4  A    between atoms: C_11  and  N_49
REMARK    5  A    between atoms: C_12  and  N_49
REMARK    6  A    between atoms: C_13  and  C_15
REMARK    7  A    between atoms: C_13  and  C_16
REMARK    8  A    between atoms: C_13  and  N_49
REMARK    9  A    between atoms: C_19  and  N_22
REMARK                            x       y       z     vdW  Elec       q    Type
REMARK                         _______ _______ _______ _____ _____    ______ ____
ROOT
ATOM      1  C   UNL     1      -4.954   0.392   0.960  0.00  0.00    -0.095 C 
ATOM      2  N   UNL     1      -4.769   1.143  -0.300  0.00  0.00    +0.388 N 
ATOM      3  H   UNL     1      -4.534   0.483  -1.050  0.00  0.00    -0.081 HD
ENDROOT
BRANCH   2   4
ATOM      4  C   UNL     1      -6.018   1.849  -0.655  0.00  0.00    -0.041 C 
ATOM      5  C   UNL     1      -7.122   0.816  -0.887  0.00  0.00    -0.008 C 
BRANCH   4   6
ATOM      6  C   UNL     1      -5.793   2.636  -1.920  0.00  0.00    -0.061 A 
ATOM      7  C   UNL     1      -5.119   2.060  -2.981  0.00  0.00    +0.004 A 
ATOM      8  C   UNL     1      -4.916   2.777  -4.144  0.00  0.00    +0.028 A 
ATOM      9  C   UNL     1      -5.379   4.082  -4.242  0.00  0.00    +0.067 A 
ATOM     10  C   UNL     1      -6.051   4.660  -3.173  0.00  0.00    +0.028 A 
ATOM     11  C   UNL     1      -6.256   3.936  -2.015  0.00  0.00    +0.004 A 
BRANCH   9  12
ATOM     12  N   UNL     1      -5.170   4.815  -5.419  0.00  0.00    -0.220 N 
ATOM     13  C   UNL     1      -4.535   4.394  -6.531  0.00  0.00    +0.225 A 
ATOM     14  N   UNL     1      -4.553   5.371  -7.402  0.00  0.00    -0.222 NA
ATOM     15  C   UNL     1      -5.179   6.427  -6.884  0.00  0.00    +0.245 A 
ATOM     16  N   UNL     1      -5.575   6.136  -5.672  0.00  0.00    -0.154 NA
ENDBRANCH   9  12
ENDBRANCH   4   6
ENDBRANCH   2   4
BRANCH   2  17
ATOM     17  C   UNL     1      -3.665   2.114  -0.151  0.00  0.00    +0.019 C 
BRANCH  17  19
ATOM     18  N   UNL     1      -1.208   2.030   0.123  0.00  0.00    -0.287 N 
ATOM     19  C   UNL     1      -2.369   1.358  -0.009  0.00  0.00    +0.201 C 
ATOM     20  O   UNL     1      -2.370   0.145  -0.013  0.00  0.00    -0.278 OA
ATOM     21  H   UNL     1      -1.212   2.998   0.189  0.00  0.00    +0.155 HD
BRANCH  18  28
ATOM     22  C   UNL     1       1.082   3.237  -1.058  0.00  0.00    +0.046 C 
ATOM     23  C   UNL     1       1.145   1.882  -0.400  0.00  0.00    -0.028 A 
ATOM     24  C   UNL     1       2.339   1.188  -0.362  0.00  0.00    +0.025 A 
ATOM     25  C   UNL     1       2.398  -0.056   0.241  0.00  0.00    +0.041 A 
ATOM     26  C   UNL     1       1.262  -0.608   0.807  0.00  0.00    +0.022 A 
ATOM     27  C   UNL     1       0.066   0.082   0.771  0.00  0.00    +0.025 A 
ATOM     28  C   UNL     1       0.004   1.331   0.167  0.00  0.00    +0.036 A 
ATOM     29 CL   UNL     1       3.899  -0.926   0.288  0.00  0.00    -0.084 Cl
ENDBRANCH  18  28
ENDBRANCH  17  19
ENDBRANCH   2  17
TORSDOF 6
