REMARK  Name = ZINC05383120
REMARK  9 active torsions:
REMARK  status: ('A' for Active; 'I' for Inactive)
REMARK    1  A    between atoms: C_1  and  C_2
REMARK    2  A    between atoms: N_4  and  C_5
REMARK    3  A    between atoms: C_9  and  C_38
REMARK    4  A    between atoms: C_21  and  C_37
REMARK    5  A    between atoms: C_25  and  N_33
REMARK    6  A    between atoms: C_27  and  O_29
REMARK    7  A    between atoms: O_29  and  C_30
REMARK    8  A    between atoms: C_30  and  C_32
REMARK    9  A    between atoms: C_34  and  C_36
REMARK                            x       y       z     vdW  Elec       q    Type
REMARK                         _______ _______ _______ _____ _____    ______ ____
ROOT
ATOM      1  C   UNL     1       1.480   1.789   4.973  0.00  0.00    +0.073 C 
ATOM      2  C   UNL     1       2.217   1.317   3.718  0.00  0.00    +0.023 C 
ATOM      3  C   UNL     1       1.441   1.757   2.475  0.00  0.00    +0.009 C 
ATOM      4  C   UNL     1       0.040   1.142   2.504  0.00  0.00    -0.026 C 
ATOM      5  C   UNL     1      -0.697   1.611   3.760  0.00  0.00    -0.003 C 
ATOM      6  C   UNL     1       0.080   1.173   5.003  0.00  0.00    +0.026 C 
ATOM      7  C   UNL     1      -2.096   0.992   3.789  0.00  0.00    +0.004 C 
ATOM      8  C   UNL     1      -2.878   1.449   2.538  0.00  0.00    +0.004 C 
ATOM      9  C   UNL     1      -2.134   0.986   1.283  0.00  0.00    -0.004 C 
ATOM     10  C   UNL     1      -0.737   1.584   1.263  0.00  0.00    -0.001 C 
ATOM     11  C   UNL     1      -0.013   1.086   0.008  0.00  0.00    +0.005 C 
ATOM     12  C   UNL     1      -0.758   1.595  -1.223  0.00  0.00    +0.011 C 
ATOM     13  C   UNL     1      -2.180   1.031  -1.268  0.00  0.00    +0.010 C 
ATOM     14  C   UNL     1      -2.926   1.327   0.044  0.00  0.00    +0.004 C 
ATOM     15  C   UNL     1      -3.232   2.834  -0.048  0.00  0.00    +0.030 C 
ATOM     16  C   UNL     1      -3.608   3.035  -1.534  0.00  0.00    +0.114 C 
ATOM     17  C   UNL     1      -2.962   1.873  -2.312  0.00  0.00    +0.203 C 
ATOM     18  C   UNL     1      -2.183  -0.464  -1.595  0.00  0.00    +0.015 C 
ATOM     19  C   UNL     1       0.153  -0.384   2.519  0.00  0.00    +0.012 C 
ENDROOT
BRANCH   1  23
ATOM     20  C   UNL     1       4.001   1.698   7.853  0.00  0.00    +0.109 C 
ATOM     21  C   UNL     1       3.235   2.129   6.628  0.00  0.00    +0.210 C 
ATOM     22  O   UNL     1       3.529   3.161   6.062  0.00  0.00    -0.276 OA
ATOM     23  N   UNL     1       2.224   1.369   6.163  0.00  0.00    -0.313 N 
ATOM     24  H   UNL     1       1.989   0.544   6.616  0.00  0.00    +0.149 HD
ENDBRANCH   1  23
BRANCH  16  25
ATOM     25  N   UNL     1      -5.064   2.998  -1.694  0.00  0.00    -0.309 N 
ATOM     26  C   UNL     1      -5.789   4.121  -1.528  0.00  0.00    +0.210 C 
ATOM     27  O   UNL     1      -5.236   5.164  -1.246  0.00  0.00    -0.276 OA
ATOM     28  C   UNL     1      -7.287   4.083  -1.692  0.00  0.00    +0.109 C 
ATOM     29  H   UNL     1      -5.505   2.164  -1.919  0.00  0.00    +0.149 HD
ENDBRANCH  16  25
BRANCH  17  30
ATOM     30  O   UNL     1      -3.989   1.062  -2.940  0.00  0.00    -0.459 OA
BRANCH  30  31
ATOM     31  C   UNL     1      -4.318   1.367  -4.205  0.00  0.00    +0.304 C 
ATOM     32  O   UNL     1      -3.766   2.282  -4.768  0.00  0.00    -0.251 OA
ATOM     33  C   UNL     1      -5.376   0.568  -4.922  0.00  0.00    +0.136 C 
ENDBRANCH  30  31
ENDBRANCH  17  30
TORSDOF 4
