REMARK  Name = ZINC23535637
REMARK  7 active torsions:
REMARK  status: ('A' for Active; 'I' for Inactive)
REMARK    1  A    between atoms: C_1  and  C_2
REMARK    2  A    between atoms: C_2  and  C_4
REMARK    3  A    between atoms: C_2  and  O_17
REMARK    4  A    between atoms: N_6  and  C_7
REMARK    5  A    between atoms: C_10  and  C_13
REMARK    6  A    between atoms: O_17  and  C_18
REMARK    7  A    between atoms: C_21  and  N_25
REMARK                            x       y       z     vdW  Elec       q    Type
REMARK                         _______ _______ _______ _____ _____    ______ ____
ROOT
ATOM      1  C   UNL     1       1.301   3.334   0.789  0.00  0.00    +0.258 C 
ATOM      2  O   UNL     1       0.222   3.642   1.249  0.00  0.00    -0.271 OA
ATOM      3  N   UNL     1       2.405   4.023   1.141  0.00  0.00    -0.282 N 
ATOM      4  H   UNL     1       3.369   3.799   0.661  0.00  0.00    +0.155 HD
ENDROOT
BRANCH   3   5
ATOM      5  C   UNL     1       2.324   5.024   2.115  0.00  0.00    +0.034 A 
ATOM      6  C   UNL     1       3.143   6.143   2.034  0.00  0.00    +0.024 A 
ATOM      7  C   UNL     1       3.056   7.131   2.994  0.00  0.00    +0.014 A 
ATOM      8  C   UNL     1       2.164   7.002   4.043  0.00  0.00    +0.055 A 
ATOM      9  C   UNL     1       1.352   5.887   4.130  0.00  0.00    +0.014 A 
ATOM     10  C   UNL     1       1.429   4.897   3.170  0.00  0.00    +0.024 A 
BRANCH   8  11
ATOM     11  C   UNL     1       2.078   8.080   5.093  0.00  0.00    +0.417 C 
ATOM     12  F   UNL     1       2.975   7.795   6.128  0.00  0.00    -0.166 F 
ATOM     13  F   UNL     1       2.401   9.315   4.521  0.00  0.00    -0.166 F 
ATOM     14  F   UNL     1       0.776   8.129   5.604  0.00  0.00    -0.166 F 
ENDBRANCH   8  11
ENDBRANCH   3   5
BRANCH   1  16
ATOM     15  C   UNL     1       1.971   2.681  -1.507  0.00  0.00    +0.062 C 
ATOM     16  C   UNL     1       1.408   2.181  -0.176  0.00  0.00    +0.256 C 
BRANCH  16  17
ATOM     17  O   UNL     1       0.113   1.617  -0.388  0.00  0.00    -0.478 OA
BRANCH  17  18
ATOM     18  C   UNL     1       0.063   0.315  -0.775  0.00  0.00    +0.140 A 
ATOM     19  C   UNL     1       1.235  -0.371  -1.060  0.00  0.00    +0.049 A 
ATOM     20  C   UNL     1       1.182  -1.695  -1.450  0.00  0.00    +0.036 A 
ATOM     21  C   UNL     1      -0.038  -2.336  -1.565  0.00  0.00    +0.128 A 
ATOM     22  C   UNL     1      -1.208  -1.655  -1.286  0.00  0.00    +0.056 A 
ATOM     23  C   UNL     1      -1.161  -0.330  -0.892  0.00  0.00    +0.085 A 
ATOM     24 CL   UNL     1      -2.631   0.525  -0.543  0.00  0.00    -0.080 Cl
BRANCH  21  25
ATOM     25  N   UNL     1      -0.091  -3.753  -1.988  0.00  0.00    +0.056 N 
ATOM     26  O   UNL     1      -1.165  -4.318  -2.090  0.00  0.00    -0.126 OA
ATOM     27  O   UNL     1       0.939  -4.354  -2.233  0.00  0.00    -0.126 OA
ENDBRANCH  21  25
ENDBRANCH  17  18
ENDBRANCH  16  17
ENDBRANCH   1  16
TORSDOF 6
