REMARK  Name = ZINC04487566
REMARK  4 active torsions:
REMARK  status: ('A' for Active; 'I' for Inactive)
REMARK    1  A    between atoms: C_3  and  O_9
REMARK    2  A    between atoms: O_9  and  C_10
REMARK    3  A    between atoms: C_10  and  C_11
REMARK    4  A    between atoms: C_14  and  C_19
REMARK                            x       y       z     vdW  Elec       q    Type
REMARK                         _______ _______ _______ _____ _____    ______ ____
ROOT
ATOM      1  C   UNL     1       3.712  -0.860  -0.035  0.00  0.00    +0.140 A 
ATOM      2  N   UNL     1       4.482  -1.161   0.968  0.00  0.00    -0.157 NA
ATOM      3  N   UNL     1       5.759  -1.672   0.773  0.00  0.00    -0.182 N 
ATOM      4  C   UNL     1       6.845  -2.103   1.506  0.00  0.00    +0.259 A 
ATOM      5  N   UNL     1       7.775  -2.471   0.669  0.00  0.00    -0.122 NA
ATOM      6  N   UNL     1       7.369  -2.309  -0.542  0.00  0.00    -0.120 NA
ATOM      7  C   UNL     1       6.162  -1.830  -0.531  0.00  0.00    +0.218 A 
ATOM      8  S   UNL     1       4.743  -1.267  -1.436  0.00  0.00    -0.028 S 
ENDROOT
BRANCH   4   9
ATOM      9  C   UNL     1       6.940  -2.143   3.009  0.00  0.00    +0.454 C 
ATOM     10  F   UNL     1       8.277  -2.306   3.388  0.00  0.00    -0.163 F 
ATOM     11  F   UNL     1       6.447  -0.946   3.539  0.00  0.00    -0.163 F 
ATOM     12  F   UNL     1       6.184  -3.215   3.496  0.00  0.00    -0.163 F 
ENDBRANCH   4   9
BRANCH   1  13
ATOM     13  C   UNL     1       2.312  -0.305  -0.020  0.00  0.00    +0.293 C 
BRANCH  13  14
ATOM     14  O   UNL     1       2.366   1.123  -0.014  0.00  0.00    -0.484 OA
BRANCH  14  17
ATOM     15  C   UNL     1      -1.218   1.751   0.017  0.00  0.00    +0.023 A 
ATOM     16  C   UNL     1      -0.013   1.076   0.008  0.00  0.00    +0.048 A 
ATOM     17  C   UNL     1       1.179   1.786   0.000  0.00  0.00    +0.139 A 
ATOM     18  C   UNL     1       1.157   3.174   0.008  0.00  0.00    +0.084 A 
ATOM     19  C   UNL     1      -0.051   3.845   0.022  0.00  0.00    +0.043 A 
ATOM     20  C   UNL     1      -1.238   3.134   0.030  0.00  0.00    +0.043 A 
ATOM     21 CL   UNL     1      -2.755   3.979   0.048  0.00  0.00    -0.083 Cl
ATOM     22 CL   UNL     1       2.646   4.066  -0.002  0.00  0.00    -0.080 Cl
ENDBRANCH  14  17
ENDBRANCH  13  14
ENDBRANCH   1  13
TORSDOF 4
