REMARK  Name = ZINC22339201
REMARK  13 active torsions:
REMARK  status: ('A' for Active; 'I' for Inactive)
REMARK    1  A    between atoms: C_1  and  C_2
REMARK    2  A    between atoms: C_2  and  C_3
REMARK    3  A    between atoms: C_3  and  C_5
REMARK    4  A    between atoms: C_3  and  N_15
REMARK    5  A    between atoms: C_8  and  S_11
REMARK    6  A    between atoms: S_11  and  C_14
REMARK    7  A    between atoms: C_16  and  C_18
REMARK    8  A    between atoms: C_18  and  N_19
REMARK    9  A    between atoms: N_19  and  C_20
REMARK   10  A    between atoms: N_19  and  S_33
REMARK   11  A    between atoms: C_23  and  O_26
REMARK   12  A    between atoms: O_26  and  C_27
REMARK   13  A    between atoms: S_33  and  C_36
REMARK                            x       y       z     vdW  Elec       q    Type
REMARK                         _______ _______ _______ _____ _____    ______ ____
ROOT
ATOM      1  C   UNL     1      -0.149   0.554   1.335  0.00  0.00    +0.226 C 
ENDROOT
BRANCH   1   3
ATOM      2  N   UNL     1       0.662   0.018  -0.940  0.00  0.00    -0.307 N 
ATOM      3  C   UNL     1      -0.164   0.744  -0.160  0.00  0.00    +0.233 C 
ATOM      4  O   UNL     1      -0.919   1.550  -0.662  0.00  0.00    -0.274 OA
ATOM      5  H   UNL     1       1.347  -0.713  -0.485  0.00  0.00    +0.149 HD
BRANCH   2   6
ATOM      6  C   UNL     1       0.647   0.203  -2.393  0.00  0.00    +0.103 C 
BRANCH   6   7
ATOM      7  C   UNL     1       1.981  -0.203  -2.965  0.00  0.00    -0.027 A 
ATOM      8  C   UNL     1       2.636  -1.315  -2.469  0.00  0.00    +0.007 A 
ATOM      9  C   UNL     1       3.857  -1.690  -2.997  0.00  0.00    +0.027 A 
ATOM     10  C   UNL     1       4.429  -0.947  -4.012  0.00  0.00    +0.088 A 
ATOM     11  C   UNL     1       3.777   0.169  -4.503  0.00  0.00    +0.027 A 
ATOM     12  C   UNL     1       2.553   0.540  -3.980  0.00  0.00    +0.007 A 
BRANCH  10  13
ATOM     13  S   UNL     1       5.990  -1.420  -4.679  0.00  0.00    -0.006 S 
ATOM     14  O   UNL     1       6.073  -2.820  -4.449  0.00  0.00    -0.170 OA
ATOM     15  O   UNL     1       5.991  -0.903  -6.002  0.00  0.00    -0.170 OA
ATOM     16  C   UNL     1       7.215  -0.547  -3.666  0.00  0.00    +0.200 C 
ENDBRANCH  10  13
ENDBRANCH   6   7
BRANCH   6  18
ATOM     17  C   UNL     1      -1.820  -0.171  -2.522  0.00  0.00    +0.006 C 
ATOM     18  C   UNL     1      -0.455  -0.664  -3.006  0.00  0.00    +0.024 C 
ENDBRANCH   6  18
ENDBRANCH   2   6
ENDBRANCH   1   3
BRANCH   1  19
ATOM     19  N   UNL     1      -1.129   1.452   1.951  0.00  0.00    -0.199 N 
BRANCH  19  20
ATOM     20  C   UNL     1      -0.777   2.773   2.249  0.00  0.00    +0.052 A 
ATOM     21  C   UNL     1      -0.991   3.277   3.526  0.00  0.00    +0.028 A 
ATOM     22  C   UNL     1      -0.638   4.579   3.821  0.00  0.00    +0.048 A 
ATOM     23  C   UNL     1      -0.081   5.387   2.841  0.00  0.00    +0.129 A 
ATOM     24  C   UNL     1       0.128   4.886   1.564  0.00  0.00    +0.048 A 
ATOM     25  C   UNL     1      -0.219   3.582   1.268  0.00  0.00    +0.028 A 
BRANCH  23  26
ATOM     26  O   UNL     1       0.262   6.670   3.131  0.00  0.00    -0.456 OA
BRANCH  26  27
ATOM     27  C   UNL     1       1.411   6.882   3.826  0.00  0.00    +0.128 A 
ATOM     28  C   UNL     1       2.247   5.816   4.128  0.00  0.00    +0.046 A 
ATOM     29  C   UNL     1       3.417   6.035   4.829  0.00  0.00    +0.004 A 
ATOM     30  C   UNL     1       3.750   7.313   5.239  0.00  0.00    +0.000 A 
ATOM     31  C   UNL     1       2.916   8.376   4.944  0.00  0.00    +0.004 A 
ATOM     32  C   UNL     1       1.747   8.163   4.238  0.00  0.00    +0.046 A 
ENDBRANCH  26  27
ENDBRANCH  23  26
ENDBRANCH  19  20
BRANCH  19  33
ATOM     33  S   UNL     1      -2.654   0.903   2.293  0.00  0.00    +0.043 S 
ATOM     34  O   UNL     1      -3.455   2.075   2.359  0.00  0.00    -0.155 OA
ATOM     35  O   UNL     1      -2.909  -0.094   1.314  0.00  0.00    -0.155 OA
ATOM     36  C   UNL     1      -2.518   0.146   3.936  0.00  0.00    +0.218 C 
ENDBRANCH  19  33
ENDBRANCH   1  19
TORSDOF 10
