REMARK  Name = ZINC42265927
REMARK  3 active torsions:
REMARK  status: ('A' for Active; 'I' for Inactive)
REMARK    1  A    between atoms: C_5  and  N_7
REMARK    2  A    between atoms: C_8  and  C_10
REMARK    3  A    between atoms: C_13  and  N_17
REMARK                            x       y       z     vdW  Elec       q    Type
REMARK                         _______ _______ _______ _____ _____    ______ ____
ROOT
ATOM      1  N   UNL     1       1.237  -2.079  -0.021  0.00  0.00    -0.280 N 
ATOM      2  C   UNL     1       0.086  -2.772   0.088  0.00  0.00    +0.251 C 
ATOM      3  O   UNL     1      -0.978  -2.185   0.102  0.00  0.00    -0.270 OA
ATOM      4  H   UNL     1       2.080  -2.550  -0.114  0.00  0.00    +0.155 HD
ENDROOT
BRANCH   1   9
ATOM      5  C   UNL     1       0.154   1.372   0.638  0.00  0.00    +0.002 A 
ATOM      6  C   UNL     1       1.173   2.086   0.035  0.00  0.00    +0.001 A 
ATOM      7  C   UNL     1       2.214   1.421  -0.586  0.00  0.00    +0.017 A 
ATOM      8  C   UNL     1       2.239   0.040  -0.607  0.00  0.00    +0.039 A 
ATOM      9  C   UNL     1       1.216  -0.681  -0.002  0.00  0.00    +0.048 A 
ATOM     10  C   UNL     1       0.172  -0.009   0.621  0.00  0.00    +0.024 A 
ATOM     11 BR   UNL     1       3.662  -0.869  -1.458  0.00  0.00    -0.048 Br
ENDBRANCH   1   9
BRANCH   2  12
ATOM     12  C   UNL     1       0.118  -4.245   0.191  0.00  0.00    +0.072 A 
ATOM     13  C   UNL     1       1.339  -4.923   0.180  0.00  0.00    +0.018 A 
ATOM     14  C   UNL     1       1.362  -6.298   0.277  0.00  0.00    +0.033 A 
ATOM     15  C   UNL     1       0.179  -7.009   0.383  0.00  0.00    +0.129 A 
ATOM     16  C   UNL     1      -1.034  -6.347   0.394  0.00  0.00    +0.071 A 
ATOM     17  C   UNL     1      -1.073  -4.968   0.304  0.00  0.00    +0.138 A 
ATOM     18  F   UNL     1      -2.259  -4.321   0.320  0.00  0.00    -0.205 F 
BRANCH  15  19
ATOM     19  N   UNL     1       0.213  -8.485   0.486  0.00  0.00    +0.057 N 
ATOM     20  O   UNL     1       1.273  -9.067   0.476  0.00  0.00    -0.126 OA
ATOM     21  O   UNL     1      -0.818  -9.109   0.579  0.00  0.00    -0.126 OA
ENDBRANCH  15  19
ENDBRANCH   2  12
TORSDOF 3
