REMARK  Name = ZINC33114662
REMARK  2 active torsions:
REMARK  status: ('A' for Active; 'I' for Inactive)
REMARK    1  A    between atoms: C_6  and  N_7
REMARK    2  A    between atoms: N_14  and  C_17
REMARK                            x       y       z     vdW  Elec       q    Type
REMARK                         _______ _______ _______ _____ _____    ______ ____
ROOT
ATOM      1  N   UNL     1      -1.523  -0.575  -0.071  0.00  0.00    -0.192 N 
ATOM      2  C   UNL     1      -1.373  -2.041  -0.057  0.00  0.00    +0.221 C 
ATOM      3  C   UNL     1      -2.844  -2.520   0.079  0.00  0.00    +0.247 C 
ATOM      4  C   UNL     1      -3.104  -3.223  -1.235  0.00  0.00    +0.255 C 
ATOM      5  O   UNL     1      -4.146  -3.757  -1.549  0.00  0.00    -0.272 OA
ATOM      6  N   UNL     1      -2.006  -3.162  -1.997  0.00  0.00    -0.207 N 
ATOM      7  C   UNL     1      -0.954  -2.518  -1.429  0.00  0.00    +0.251 C 
ATOM      8  O   UNL     1       0.137  -2.346  -1.928  0.00  0.00    -0.273 OA
ATOM      9  N   UNL     1      -3.612  -1.270   0.148  0.00  0.00    -0.156 NA
ATOM     10  N   UNL     1      -2.882  -0.289   0.055  0.00  0.00    -0.078 NA
ENDROOT
BRANCH   1  16
ATOM     11  C   UNL     1      -0.776   1.720  -0.176  0.00  0.00    +0.028 A 
ATOM     12  C   UNL     1       0.246   2.641  -0.287  0.00  0.00    +0.040 A 
ATOM     13  C   UNL     1       1.557   2.212  -0.406  0.00  0.00    +0.124 A 
ATOM     14  C   UNL     1       1.846   0.858  -0.413  0.00  0.00    +0.040 A 
ATOM     15  C   UNL     1       0.827  -0.068  -0.303  0.00  0.00    +0.028 A 
ATOM     16  C   UNL     1      -0.489   0.361  -0.183  0.00  0.00    +0.054 A 
ATOM     17  F   UNL     1       2.556   3.115  -0.514  0.00  0.00    -0.205 F 
ENDBRANCH   1  16
BRANCH   6  18
ATOM     18  C   UNL     1      -1.940  -3.726  -3.279  0.00  0.00    +0.044 A 
ATOM     19  C   UNL     1      -2.699  -3.193  -4.312  0.00  0.00    +0.027 A 
ATOM     20  C   UNL     1      -2.634  -3.750  -5.575  0.00  0.00    +0.040 A 
ATOM     21  C   UNL     1      -1.811  -4.839  -5.810  0.00  0.00    +0.124 A 
ATOM     22  C   UNL     1      -1.053  -5.372  -4.781  0.00  0.00    +0.040 A 
ATOM     23  C   UNL     1      -1.112  -4.814  -3.519  0.00  0.00    +0.027 A 
ATOM     24  F   UNL     1      -1.748  -5.382  -7.045  0.00  0.00    -0.205 F 
ENDBRANCH   6  18
TORSDOF 2
