REMARK  Name = ZINC18941220
REMARK  6 active torsions:
REMARK  status: ('A' for Active; 'I' for Inactive)
REMARK    1  A    between atoms: C_1  and  N_2
REMARK    2  A    between atoms: N_4  and  C_19
REMARK    3  A    between atoms: C_5  and  C_8
REMARK    4  A    between atoms: C_11  and  N_14
REMARK    5  A    between atoms: N_14  and  S_15
REMARK    6  A    between atoms: S_15  and  C_18
REMARK                            x       y       z     vdW  Elec       q    Type
REMARK                         _______ _______ _______ _____ _____    ______ ____
ROOT
ATOM      1  C   UNL     1       0.200   0.151  -0.213  0.00  0.00    -0.001 A 
ATOM      2  C   UNL     1      -0.638  -0.727  -0.902  0.00  0.00    +0.012 A 
ATOM      3  C   UNL     1      -0.347  -2.074  -0.932  0.00  0.00    +0.025 A 
ATOM      4  C   UNL     1       0.773  -2.560  -0.268  0.00  0.00    +0.048 A 
ATOM      5  C   UNL     1       1.607  -1.689   0.423  0.00  0.00    +0.025 A 
ATOM      6  C   UNL     1       1.324  -0.340   0.453  0.00  0.00    +0.012 A 
ENDROOT
BRANCH   1  11
ATOM      7  C   UNL     1      -0.558   5.921   1.712  0.00  0.00    +0.173 C 
ATOM      8  N   UNL     1      -0.193   4.522   1.949  0.00  0.00    -0.264 NA
ATOM      9  C   UNL     1      -0.256   3.654   0.971  0.00  0.00    +0.169 A 
ATOM     10  N   UNL     1       0.034   2.307   0.982  0.00  0.00    -0.323 N 
ATOM     11  C   UNL     1      -0.106   1.598  -0.182  0.00  0.00    +0.057 A 
ATOM     12  C   UNL     1      -0.530   2.224  -1.298  0.00  0.00    +0.075 A 
ATOM     13  S   UNL     1      -0.748   3.902  -0.728  0.00  0.00    -0.058 S 
ATOM     14  C   UNL     1       0.486   1.649   2.210  0.00  0.00    +0.151 C 
ENDBRANCH   1  11
BRANCH   4  15
ATOM     15  N   UNL     1       1.062  -3.926  -0.296  0.00  0.00    -0.221 N 
ATOM     16  H   UNL     1       1.779  -4.260  -0.858  0.00  0.00    +0.173 HD
BRANCH  15  17
ATOM     17  S   UNL     1       0.179  -4.978   0.630  0.00  0.00    +0.040 S 
ATOM     18  O   UNL     1      -1.176  -4.702   0.300  0.00  0.00    -0.155 OA
ATOM     19  O   UNL     1       0.743  -6.255   0.366  0.00  0.00    -0.155 OA
ATOM     20  C   UNL     1       0.517  -4.487   2.343  0.00  0.00    +0.218 C 
ENDBRANCH  15  17
ENDBRANCH   4  15
TORSDOF 3
