REMARK  Name = ZINC42778667
REMARK  4 active torsions:
REMARK  status: ('A' for Active; 'I' for Inactive)
REMARK    1  A    between atoms: C_1  and  C_2
REMARK    2  A    between atoms: N_16  and  C_17
REMARK    3  A    between atoms: C_17  and  C_18
REMARK    4  A    between atoms: C_17  and  C_19
REMARK                            x       y       z     vdW  Elec       q    Type
REMARK                         _______ _______ _______ _____ _____    ______ ____
ROOT
ATOM      1  C   UNL     1      -0.059   1.320   0.022  0.00  0.00    +0.033 C 
ATOM      2  C   UNL     1       0.141  -0.196  -0.031  0.00  0.00    +0.104 C 
ATOM      3  C   UNL     1      -1.207  -0.900   0.108  0.00  0.00    -0.017 A 
ATOM      4  C   UNL     1      -2.338  -0.537  -0.622  0.00  0.00    +0.013 A 
ATOM      5  C   UNL     1      -3.499  -1.209  -0.450  0.00  0.00    +0.046 A 
ATOM      6  S   UNL     1      -3.045  -2.420   0.782  0.00  0.00    -0.101 S 
ATOM      7  C   UNL     1      -1.349  -1.938   0.976  0.00  0.00    -0.004 A 
ATOM      8  C   UNL     1      -0.315  -2.526   1.881  0.00  0.00    +0.062 C 
ATOM      9  C   UNL     1       1.072  -2.056   1.415  0.00  0.00    +0.114 C 
ATOM     10  N   UNL     1       0.991  -0.625   1.088  0.00  0.00    -0.293 N 
ATOM     11  C   UNL     1       1.705   0.307   1.826  0.00  0.00    +0.219 A 
ATOM     12  N   UNL     1       2.266   1.381   1.352  0.00  0.00    -0.137 NA
ATOM     13  N   UNL     1       2.886   2.052   2.416  0.00  0.00    -0.253 N 
ATOM     14  C   UNL     1       2.666   1.328   3.532  0.00  0.00    +0.177 A 
ATOM     15  N   UNL     1       1.933   0.252   3.181  0.00  0.00    -0.289 N 
ATOM     16  S   UNL     1       3.212   1.709   5.110  0.00  0.00    -0.011 S 
ATOM     17  H   UNL     1       3.382   2.884   2.359  0.00  0.00    +0.191 HD
ENDROOT
BRANCH  15  18
ATOM     18  C   UNL     1       1.463  -0.798   4.088  0.00  0.00    +0.086 C 
ATOM     19  C   UNL     1       2.665  -1.481   4.744  0.00  0.00    +0.031 C 
ATOM     20  C   UNL     1       0.576  -0.178   5.170  0.00  0.00    +0.031 C 
ENDBRANCH  15  18
TORSDOF 1
