REMARK  Name = ZINC33067973
REMARK  6 active torsions:
REMARK  status: ('A' for Active; 'I' for Inactive)
REMARK    1  A    between atoms: C_1  and  C_2
REMARK    2  A    between atoms: C_9  and  C_13
REMARK    3  A    between atoms: C_13  and  O_14
REMARK    4  A    between atoms: O_14  and  C_15
REMARK    5  A    between atoms: C_20  and  N_21
REMARK    6  A    between atoms: C_22  and  C_24
REMARK                            x       y       z     vdW  Elec       q    Type
REMARK                         _______ _______ _______ _____ _____    ______ ____
ROOT
ATOM      1  C   UNL     1      -0.782   3.318   1.356  0.00  0.00    +0.142 A 
ATOM      2  C   UNL     1      -0.241   4.179   0.416  0.00  0.00    +0.047 A 
ATOM      3  C   UNL     1      -0.350   5.547   0.587  0.00  0.00    +0.004 A 
ATOM      4  C   UNL     1      -0.990   6.059   1.702  0.00  0.00    +0.002 A 
ATOM      5  C   UNL     1      -1.527   5.206   2.647  0.00  0.00    +0.027 A 
ATOM      6  C   UNL     1      -1.425   3.833   2.479  0.00  0.00    +0.076 A 
ENDROOT
BRANCH   6   7
ATOM      7  N   UNL     1      -1.970   2.966   3.436  0.00  0.00    -0.282 N 
ATOM      8  C   UNL     1      -2.984   3.380   4.221  0.00  0.00    +0.220 C 
ATOM      9  O   UNL     1      -3.493   4.465   4.032  0.00  0.00    -0.275 OA
ATOM     10  H   UNL     1      -1.569   1.948   3.547  0.00  0.00    +0.155 HD
BRANCH   8  11
ATOM     11  C   UNL     1      -3.487   2.495   5.332  0.00  0.00    +0.075 C 
ATOM     12  C   UNL     1      -3.989   1.175   4.745  0.00  0.00    +0.013 C 
ATOM     13  C   UNL     1      -4.499   0.276   5.874  0.00  0.00    +0.001 C 
ATOM     14  C   UNL     1      -5.645   0.977   6.606  0.00  0.00    +0.000 C 
ATOM     15  C   UNL     1      -5.143   2.298   7.192  0.00  0.00    +0.001 C 
ATOM     16  C   UNL     1      -4.633   3.196   6.064  0.00  0.00    +0.013 C 
ENDBRANCH   8  11
ENDBRANCH   6   7
BRANCH   1  17
ATOM     17  O   UNL     1      -0.679   1.972   1.187  0.00  0.00    -0.484 OA
BRANCH  17  18
ATOM     18  C   UNL     1      -0.006   1.516   0.012  0.00  0.00    +0.284 C 
BRANCH  18  27
ATOM     19  C   UNL     1       2.237  -4.750   3.019  0.00  0.00    +0.044 C 
ATOM     20  C   UNL     1       1.468  -4.017   1.950  0.00  0.00    -0.046 A 
ATOM     21  C   UNL     1       0.781  -4.732   0.959  0.00  0.00    +0.021 A 
ATOM     22  C   UNL     1       0.091  -4.073   0.001  0.00  0.00    +0.096 A 
ATOM     23  N   UNL     1       0.052  -2.712  -0.017  0.00  0.00    -0.268 N 
ATOM     24  C   UNL     1       0.712  -1.987   0.935  0.00  0.00    +0.141 A 
ATOM     25  C   UNL     1       1.435  -2.654   1.940  0.00  0.00    +0.050 A 
ATOM     26  N   UNL     1       0.684  -0.655   0.921  0.00  0.00    -0.231 NA
ATOM     27  C   UNL     1       0.010   0.009  -0.005  0.00  0.00    +0.086 A 
ATOM     28  C   UNL     1      -0.673  -0.677  -0.990  0.00  0.00    +0.097 A 
ATOM     29  C   UNL     1      -0.643  -2.076  -0.984  0.00  0.00    +0.259 A 
ATOM     30  O   UNL     1      -1.237  -2.712  -1.841  0.00  0.00    -0.267 OA
ENDBRANCH  18  27
ENDBRANCH  17  18
ENDBRANCH   1  17
TORSDOF 5
