REMARK  Name = ZINC20144381
REMARK  8 active torsions:
REMARK  status: ('A' for Active; 'I' for Inactive)
REMARK    1  A    between atoms: C_1  and  C_2
REMARK    2  A    between atoms: C_4  and  C_24
REMARK    3  A    between atoms: C_5  and  O_9
REMARK    4  A    between atoms: O_9  and  C_10
REMARK    5  A    between atoms: C_10  and  C_11
REMARK    6  A    between atoms: N_13  and  C_14
REMARK    7  A    between atoms: C_17  and  C_21
REMARK    8  A    between atoms: C_19  and  C_20
REMARK                            x       y       z     vdW  Elec       q    Type
REMARK                         _______ _______ _______ _____ _____    ______ ____
ROOT
ATOM      1  C   UNL     1       1.160  -6.258  -0.040  0.00  0.00    +0.255 C 
ATOM      2  O   UNL     1       0.045  -6.736  -0.045  0.00  0.00    -0.272 OA
ATOM      3  N   UNL     1       2.239  -7.066  -0.052  0.00  0.00    -0.282 N 
ATOM      4  H   UNL     1       3.128  -6.686  -0.129  0.00  0.00    +0.155 HD
ENDROOT
BRANCH   3   5
ATOM      5  C   UNL     1       2.078  -8.446   0.046  0.00  0.00    +0.036 A 
ATOM      6  C   UNL     1       0.942  -8.971   0.656  0.00  0.00    +0.024 A 
ATOM      7  C   UNL     1       0.778 -10.323   0.756  0.00  0.00    +0.017 A 
ATOM      8  C   UNL     1       1.752 -11.187   0.243  0.00  0.00    +0.064 A 
ATOM      9  C   UNL     1       2.894 -10.661  -0.372  0.00  0.00    +0.020 A 
ATOM     10  C   UNL     1       3.050  -9.297  -0.473  0.00  0.00    -0.028 A 
ATOM     11  C   UNL     1       4.274  -8.726  -1.139  0.00  0.00    +0.045 C 
BRANCH   8  12
ATOM     12  C   UNL     1       1.576 -12.645   0.350  0.00  0.00    +0.387 C 
ATOM     13  O   UNL     1       0.578 -13.102   0.888  0.00  0.00    -0.241 OA
ATOM     14  O   UNL     1       2.429 -13.398  -0.099  0.00  0.00    -0.241 OA
ENDBRANCH   8  12
ENDBRANCH   3   5
BRANCH   1  15
ATOM     15  C   UNL     1       1.339  -4.762  -0.020  0.00  0.00    +0.325 C 
BRANCH  15  16
ATOM     16  O   UNL     1       0.057  -4.130  -0.010  0.00  0.00    -0.481 OA
BRANCH  16  21
ATOM     17  C   UNL     1      -0.017   1.502   0.065  0.00  0.00    +0.044 C 
ATOM     18  C   UNL     1       0.003  -0.004   0.045  0.00  0.00    -0.049 A 
ATOM     19  C   UNL     1       0.011  -0.679  -1.162  0.00  0.00    +0.010 A 
ATOM     20  C   UNL     1       0.029  -2.060  -1.183  0.00  0.00    -0.007 A 
ATOM     21  C   UNL     1       0.040  -2.771   0.008  0.00  0.00    +0.142 A 
ATOM     22  C   UNL     1       0.032  -2.092   1.219  0.00  0.00    +0.083 A 
ATOM     23  C   UNL     1       0.019  -0.709   1.234  0.00  0.00    +0.027 A 
ATOM     24 CL   UNL     1       0.045  -2.977   2.712  0.00  0.00    -0.080 Cl
ATOM     25  C   UNL     1       0.037  -2.794  -2.499  0.00  0.00    +0.047 C 
ENDBRANCH  16  21
ENDBRANCH  15  16
ENDBRANCH   1  15
TORSDOF 5
