REMARK  Name = ZINC00549910
REMARK  1 active torsions:
REMARK  status: ('A' for Active; 'I' for Inactive)
REMARK    1  A    between atoms: C_12  and  N_16
REMARK                            x       y       z     vdW  Elec       q    Type
REMARK                         _______ _______ _______ _____ _____    ______ ____
ROOT
ATOM      1  C   UNL     1       2.386   1.563   7.121  0.00  0.00    +0.022 A 
ATOM      2  C   UNL     1       2.213   1.440   5.760  0.00  0.00    +0.028 A 
ATOM      3  C   UNL     1       1.210   2.159   5.116  0.00  0.00    +0.049 A 
ATOM      4  C   UNL     1       0.381   3.007   5.867  0.00  0.00    +0.027 A 
ATOM      5  C   UNL     1       0.566   3.122   7.244  0.00  0.00    +0.032 A 
ATOM      6  C   UNL     1       1.565   2.402   7.863  0.00  0.00    +0.042 A 
ATOM      7 CL   UNL     1       1.799   2.544   9.578  0.00  0.00    -0.084 Cl
ATOM      8  C   UNL     1      -0.564   3.616   4.918  0.00  0.00    +0.101 A 
ATOM      9  C   UNL     1      -0.246   3.099   3.656  0.00  0.00    +0.106 A 
ATOM     10  N   UNL     1       0.819   2.228   3.792  0.00  0.00    -0.350 N 
ATOM     11  H   UNL     1       1.231   1.737   3.064  0.00  0.00    +0.166 HD
ATOM     12  C   UNL     1      -1.007   3.526   2.560  0.00  0.00    +0.149 A 
ATOM     13  N   UNL     1      -1.987   4.400   2.765  0.00  0.00    -0.219 NA
ATOM     14  C   UNL     1      -2.255   4.857   3.974  0.00  0.00    +0.224 A 
ATOM     15  N   UNL     1      -1.567   4.486   5.032  0.00  0.00    -0.233 NA
ENDROOT
BRANCH  12  16
ATOM     16  N   UNL     1      -0.740   3.050   1.285  0.00  0.00    -0.312 N 
ATOM     17  C   UNL     1      -0.741   1.586   1.261  0.00  0.00    +0.117 C 
ATOM     18  C   UNL     1      -0.013   1.086   0.008  0.00  0.00    +0.088 C 
ATOM     19  S   UNL     1      -0.906   1.695  -1.456  0.00  0.00    -0.158 S 
ATOM     20  C   UNL     1      -1.082   3.472  -1.107  0.00  0.00    +0.088 C 
ATOM     21  C   UNL     1      -1.659   3.632   0.304  0.00  0.00    +0.117 C 
ENDBRANCH  12  16
TORSDOF 1
