REMARK  Name = ZINC39690480
REMARK  7 active torsions:
REMARK  status: ('A' for Active; 'I' for Inactive)
REMARK    1  A    between atoms: C_1  and  C_2
REMARK    2  A    between atoms: C_2  and  O_4
REMARK    3  A    between atoms: O_4  and  C_5
REMARK    4  A    between atoms: C_10  and  C_11
REMARK    5  A    between atoms: C_15  and  C_24
REMARK    6  A    between atoms: N_26  and  C_27
REMARK    7  A    between atoms: C_27  and  C_28
REMARK                            x       y       z     vdW  Elec       q    Type
REMARK                         _______ _______ _______ _____ _____    ______ ____
ROOT
ATOM      1  C   UNL     1       0.143  -2.202  -3.463  0.00  0.00    +0.250 C 
ATOM      2  O   UNL     1       0.216  -0.992  -3.555  0.00  0.00    -0.270 OA
ATOM      3  N   UNL     1       0.115  -2.962  -4.575  0.00  0.00    -0.296 N 
ATOM      4  C   UNL     1       0.090  -4.441  -4.665  0.00  0.00    +0.121 C 
ATOM      5  C   UNL     1      -0.879  -4.745  -5.829  0.00  0.00    +0.100 C 
ATOM      6  C   UNL     1      -0.865  -3.473  -6.694  0.00  0.00    -0.004 C 
ATOM      7  C   UNL     1       0.096  -2.507  -5.986  0.00  0.00    +0.115 C 
ATOM      8  C   UNL     1      -2.262  -2.864  -6.760  0.00  0.00    -0.010 C 
ATOM      9  C   UNL     1      -2.235  -1.634  -7.671  0.00  0.00    -0.082 C 
ATOM     10  N   UNL     1      -1.786  -2.026  -9.013  0.00  0.00    +0.379 N 
ATOM     11  C   UNL     1      -0.407  -2.525  -8.953  0.00  0.00    -0.082 C 
ATOM     12  C   UNL     1      -0.357  -3.793  -8.096  0.00  0.00    -0.010 C 
ATOM     13  H   UNL     1      -2.389  -2.752  -9.369  0.00  0.00    -0.086 HD
ATOM     14  H   UNL     1      -1.827  -1.226  -9.627  0.00  0.00    -0.086 HD
ENDROOT
BRANCH   1  20
ATOM     15  C   UNL     1      -0.610  -2.220  -1.085  0.00  0.00    +0.144 A 
ATOM     16  C   UNL     1      -0.664  -2.830   0.159  0.00  0.00    +0.047 A 
ATOM     17  C   UNL     1      -0.029  -4.039   0.365  0.00  0.00    +0.004 A 
ATOM     18  C   UNL     1       0.664  -4.651  -0.666  0.00  0.00    +0.001 A 
ATOM     19  C   UNL     1       0.727  -4.059  -1.909  0.00  0.00    +0.017 A 
ATOM     20  C   UNL     1       0.085  -2.838  -2.133  0.00  0.00    +0.079 A 
BRANCH  15  21
ATOM     21  O   UNL     1      -1.233  -1.031  -1.289  0.00  0.00    -0.425 OA
BRANCH  21  23
ATOM     22  C   UNL     1      -3.271   0.235  -1.876  0.00  0.00    +0.136 C 
ATOM     23  C   UNL     1      -2.498  -1.052  -1.742  0.00  0.00    +0.309 C 
ATOM     24  O   UNL     1      -3.015  -2.102  -2.042  0.00  0.00    -0.251 OA
ENDBRANCH  21  23
ENDBRANCH  15  21
ENDBRANCH   1  20
BRANCH   5  25
ATOM     25  C   UNL     1      -0.389  -5.928  -6.624  0.00  0.00    +0.218 C 
ATOM     26  O   UNL     1       0.792  -6.206  -6.632  0.00  0.00    -0.275 OA
ATOM     27  N   UNL     1      -1.262  -6.677  -7.326  0.00  0.00    -0.311 N 
ATOM     28  H   UNL     1      -2.206  -6.455  -7.319  0.00  0.00    +0.149 HD
BRANCH  27  29
ATOM     29  C   UNL     1      -0.785  -7.827  -8.098  0.00  0.00    +0.140 C 
BRANCH  29  30
ATOM     30  C   UNL     1      -1.952  -8.489  -8.785  0.00  0.00    -0.016 A 
ATOM     31  C   UNL     1      -2.519  -9.627  -8.241  0.00  0.00    +0.006 A 
ATOM     32  C   UNL     1      -3.590 -10.234  -8.870  0.00  0.00    +0.000 A 
ATOM     33  C   UNL     1      -4.093  -9.704 -10.044  0.00  0.00    +0.001 A 
ATOM     34  C   UNL     1      -3.527  -8.568 -10.588  0.00  0.00    +0.015 A 
ATOM     35  C   UNL     1      -2.459  -7.956  -9.956  0.00  0.00    +0.023 A 
ATOM     36 BR   UNL     1      -1.688  -6.397 -10.697  0.00  0.00    -0.050 Br
ENDBRANCH  29  30
ENDBRANCH  27  29
ENDBRANCH   5  25
TORSDOF 6
