REMARK  Name = ZINC64482000
REMARK  2 active torsions:
REMARK  status: ('A' for Active; 'I' for Inactive)
REMARK    1  A    between atoms: C_1  and  C_2
REMARK    2  A    between atoms: C_4  and  C_14
REMARK                            x       y       z     vdW  Elec       q    Type
REMARK                         _______ _______ _______ _____ _____    ______ ____
ROOT
ATOM      1  C   UNL     1      -0.018   1.503   0.010  0.00  0.00    +0.067 C 
ATOM      2  C   UNL     1       0.002  -0.004   0.002  0.00  0.00    +0.064 C 
ATOM      3  C   UNL     1      -1.065  -0.770   0.003  0.00  0.00    +0.004 C 
ATOM      4  C   UNL     1      -2.530  -0.492  -0.188  0.00  0.00    +0.059 C 
ATOM      5  C   UNL     1      -2.935  -1.225  -1.478  0.00  0.00    +0.108 C 
ATOM      6  C   UNL     1      -2.218  -2.527  -1.630  0.00  0.00    +0.216 C 
ATOM      7  O   UNL     1      -2.711  -3.319  -2.404  0.00  0.00    -0.276 OA
ATOM      8  N   UNL     1      -1.101  -2.925  -1.017  0.00  0.00    -0.289 N 
ATOM      9  C   UNL     1      -0.525  -2.191   0.101  0.00  0.00    +0.243 C 
ATOM     10  N   UNL     1       0.919  -1.988   0.009  0.00  0.00    -0.160 NA
ATOM     11  N   UNL     1       1.127  -0.766  -0.013  0.00  0.00    -0.157 NA
ATOM     12  H   UNL     1      -0.658  -3.731  -1.327  0.00  0.00    +0.151 HD
ENDROOT
BRANCH   4  13
ATOM     13  C   UNL     1      -3.316  -1.025   0.983  0.00  0.00    -0.034 A 
ATOM     14  C   UNL     1      -3.273  -2.372   1.288  0.00  0.00    +0.042 A 
ATOM     15  C   UNL     1      -3.995  -2.863   2.363  0.00  0.00    +0.126 A 
ATOM     16  C   UNL     1      -4.759  -2.003   3.132  0.00  0.00    +0.076 A 
ATOM     17  C   UNL     1      -4.801  -0.654   2.826  0.00  0.00    +0.126 A 
ATOM     18  C   UNL     1      -4.074  -0.165   1.754  0.00  0.00    +0.042 A 
ATOM     19  F   UNL     1      -5.546   0.187   3.577  0.00  0.00    -0.205 F 
ATOM     20  F   UNL     1      -3.953  -4.180   2.660  0.00  0.00    -0.205 F 
ENDBRANCH   4  13
TORSDOF 1
