REMARK  Name = ZINC08161021
REMARK  8 active torsions:
REMARK  status: ('A' for Active; 'I' for Inactive)
REMARK    1  A    between atoms: C_1  and  N_47
REMARK    2  A    between atoms: C_2  and  C_3
REMARK    3  A    between atoms: C_2  and  N_47
REMARK    4  A    between atoms: C_9  and  C_10
REMARK    5  A    between atoms: C_9  and  N_47
REMARK    6  A    between atoms: N_12  and  C_13
REMARK    7  A    between atoms: C_18  and  O_19
REMARK    8  A    between atoms: O_19  and  C_20
REMARK                            x       y       z     vdW  Elec       q    Type
REMARK                         _______ _______ _______ _____ _____    ______ ____
ROOT
ATOM      1  C   UNL     1       6.254  -1.119  -2.944  0.00  0.00    +0.201 C 
ATOM      2  O   UNL     1       5.835  -0.423  -3.845  0.00  0.00    -0.278 OA
ATOM      3  N   UNL     1       7.011  -2.199  -3.223  0.00  0.00    -0.284 N 
ATOM      4  H   UNL     1       7.413  -2.708  -2.502  0.00  0.00    +0.155 HD
ENDROOT
BRANCH   3   5
ATOM      5  C   UNL     1       7.218  -2.584  -4.554  0.00  0.00    +0.079 A 
ATOM      6  C   UNL     1       6.294  -2.232  -5.523  0.00  0.00    +0.074 A 
ATOM      7  C   UNL     1       6.495  -2.607  -6.845  0.00  0.00    +0.138 A 
ATOM      8  C   UNL     1       7.634  -3.351  -7.182  0.00  0.00    +0.031 A 
ATOM      9  C   UNL     1       8.558  -3.707  -6.204  0.00  0.00    +0.059 A 
ATOM     10  C   UNL     1       8.351  -3.325  -4.893  0.00  0.00    +0.142 A 
ATOM     11  C   UNL     1       7.543  -3.584  -8.636  0.00  0.00    +0.028 A 
ATOM     12  C   UNL     1       8.346  -4.244  -9.560  0.00  0.00    +0.012 A 
ATOM     13  C   UNL     1       7.971  -4.284 -10.887  0.00  0.00    +0.001 A 
ATOM     14  C   UNL     1       6.799  -3.668 -11.297  0.00  0.00    +0.004 A 
ATOM     15  C   UNL     1       5.996  -3.011 -10.389  0.00  0.00    +0.047 A 
ATOM     16  C   UNL     1       6.357  -2.961  -9.048  0.00  0.00    +0.136 A 
ATOM     17  O   UNL     1       5.771  -2.398  -7.968  0.00  0.00    -0.455 OA
BRANCH  10  18
ATOM     18  O   UNL     1       9.251  -3.671  -3.933  0.00  0.00    -0.493 OA
ATOM     19  C   UNL     1      10.387  -4.430  -4.352  0.00  0.00    +0.277 C 
ENDBRANCH  10  18
ENDBRANCH   3   5
BRANCH   1  20
ATOM     20  C   UNL     1       5.929  -0.776  -1.513  0.00  0.00    +0.019 C 
BRANCH  20  22
ATOM     21  C   UNL     1       5.848   1.603  -1.954  0.00  0.00    -0.095 C 
ATOM     22  N   UNL     1       5.075   0.430  -1.494  0.00  0.00    +0.387 N 
ATOM     23  H   UNL     1       4.280   0.286  -2.127  0.00  0.00    -0.081 HD
BRANCH  22  24
ATOM     24  C   UNL     1       4.565   0.666  -0.127  0.00  0.00    -0.035 C 
BRANCH  24  25
ATOM     25  C   UNL     1       3.530   1.760  -0.177  0.00  0.00    -0.025 A 
ATOM     26  C   UNL     1       2.193   1.662  -0.379  0.00  0.00    +0.011 A 
ATOM     27  C   UNL     1       1.430   2.815  -0.385  0.00  0.00    +0.028 A 
ATOM     28  C   UNL     1       2.042   4.010  -0.189  0.00  0.00    +0.078 A 
ATOM     29  S   UNL     1       3.747   3.522   0.013  0.00  0.00    -0.084 S 
ATOM     30 CL   UNL     1       1.348   5.601  -0.152  0.00  0.00    -0.076 Cl
ENDBRANCH  24  25
ENDBRANCH  22  24
ENDBRANCH  20  22
ENDBRANCH   1  20
TORSDOF 6
