REMARK  Name = ZINC00957110
REMARK  4 active torsions:
REMARK  status: ('A' for Active; 'I' for Inactive)
REMARK    1  A    between atoms: C_4  and  N_7
REMARK    2  A    between atoms: C_11  and  N_14
REMARK    3  A    between atoms: N_14  and  N_15
REMARK    4  A    between atoms: C_16  and  C_17
REMARK                            x       y       z     vdW  Elec       q    Type
REMARK                         _______ _______ _______ _____ _____    ______ ____
ROOT
ATOM      1  N   UNL     1       5.864   3.138  -0.037  0.00  0.00    -0.196 N 
ATOM      2  C   UNL     1       4.727   3.800   0.251  0.00  0.00    +0.288 A 
ATOM      3  O   UNL     1       4.759   4.994   0.505  0.00  0.00    -0.265 OA
ATOM      4  C   UNL     1       3.507   3.110   0.259  0.00  0.00    +0.108 A 
ATOM      5  C   UNL     1       3.499   1.757  -0.032  0.00  0.00    +0.087 A 
ATOM      6  C   UNL     1       4.716   1.104  -0.323  0.00  0.00    +0.159 A 
ATOM      7  N   UNL     1       5.837   1.770  -0.329  0.00  0.00    -0.170 NA
ATOM      8 BR   UNL     1       1.895   4.015   0.659  0.00  0.00    -0.043 Br
ENDROOT
BRANCH   1  12
ATOM      9  C   UNL     1       9.495   5.181  -0.061  0.00  0.00    +0.000 A 
ATOM     10  C   UNL     1       9.382   3.983   0.621  0.00  0.00    +0.002 A 
ATOM     11  C   UNL     1       8.180   3.304   0.631  0.00  0.00    +0.028 A 
ATOM     12  C   UNL     1       7.084   3.824  -0.045  0.00  0.00    +0.069 A 
ATOM     13  C   UNL     1       7.202   5.024  -0.734  0.00  0.00    +0.028 A 
ATOM     14  C   UNL     1       8.405   5.702  -0.735  0.00  0.00    +0.002 A 
ENDBRANCH   1  12
BRANCH   5  15
ATOM     15  N   UNL     1       2.309   1.049  -0.033  0.00  0.00    -0.235 N 
ATOM     16  H   UNL     1       2.308   0.101  -0.237  0.00  0.00    +0.174 HD
BRANCH  15  17
ATOM     17  N   UNL     1       1.105   1.702   0.262  0.00  0.00    -0.194 NA
ATOM     18  C   UNL     1       0.005   1.048   0.262  0.00  0.00    +0.107 C 
BRANCH  18  19
ATOM     19  C   UNL     1      -1.291   1.752   0.573  0.00  0.00    +0.036 C 
ATOM     20  C   UNL     1      -2.246   1.626  -0.620  0.00  0.00    +0.013 C 
ATOM     21  C   UNL     1      -3.478   2.491  -0.348  0.00  0.00    +0.027 C 
ATOM     22  C   UNL     1      -4.017   2.212   1.024  0.00  0.00    -0.031 C 
ATOM     23  C   UNL     1      -3.350   1.614   1.958  0.00  0.00    -0.030 C 
ATOM     24  C   UNL     1      -1.947   1.106   1.795  0.00  0.00    +0.036 C 
ENDBRANCH  18  19
ENDBRANCH  15  17
ENDBRANCH   5  15
TORSDOF 4
