REMARK  Name = ZINC05679994
REMARK  5 active torsions:
REMARK  status: ('A' for Active; 'I' for Inactive)
REMARK    1  A    between atoms: C_1  and  C_2
REMARK    2  A    between atoms: C_2  and  C_3
REMARK    3  A    between atoms: C_12  and  C_13
REMARK    4  A    between atoms: C_13  and  C_15
REMARK    5  A    between atoms: C_15  and  N_16
REMARK                            x       y       z     vdW  Elec       q    Type
REMARK                         _______ _______ _______ _____ _____    ______ ____
ROOT
ATOM      1  N   UNL     1      -0.789   0.481  -3.218  0.00  0.00    -0.216 N 
ATOM      2  C   UNL     1       0.031   1.262  -2.483  0.00  0.00    +0.251 C 
ATOM      3  O   UNL     1       1.152   1.625  -2.770  0.00  0.00    -0.272 OA
ATOM      4  C   UNL     1      -0.743   1.587  -1.229  0.00  0.00    +0.139 C 
ATOM      5  C   UNL     1      -0.013   1.086   0.008  0.00  0.00    +0.040 C 
ATOM      6  C   UNL     1      -0.724   1.577   1.273  0.00  0.00    +0.008 C 
ATOM      7  C   UNL     1      -0.537   3.098   1.388  0.00  0.00    +0.043 C 
ATOM      8  C   UNL     1      -0.862   3.716   0.068  0.00  0.00    -0.005 A 
ATOM      9  C   UNL     1      -0.969   3.087  -1.136  0.00  0.00    -0.005 A 
ATOM     10  C   UNL     1      -1.287   3.889  -2.231  0.00  0.00    +0.014 A 
ATOM     11  C   UNL     1      -1.472   5.219  -2.066  0.00  0.00    +0.046 A 
ATOM     12  S   UNL     1      -1.200   5.414  -0.311  0.00  0.00    -0.101 S 
ATOM     13  N   UNL     1      -2.024   0.896  -1.405  0.00  0.00    -0.281 N 
ATOM     14  C   UNL     1      -1.959   0.276  -2.599  0.00  0.00    +0.310 C 
ATOM     15  O   UNL     1      -2.860  -0.395  -3.062  0.00  0.00    -0.252 OA
ATOM     16  H   UNL     1      -2.770   0.888  -0.785  0.00  0.00    +0.152 HD
ENDROOT
BRANCH   1  17
ATOM     17  C   UNL     1      -0.443  -0.073  -4.529  0.00  0.00    +0.197 C 
BRANCH  17  18
ATOM     18  C   UNL     1       0.212  -1.419  -4.348  0.00  0.00    +0.183 C 
ATOM     19  O   UNL     1       0.373  -1.871  -3.233  0.00  0.00    -0.290 OA
BRANCH  18  29
ATOM     20  C   UNL     1       2.138  -4.998  -7.154  0.00  0.00    -0.024 A 
ATOM     21  C   UNL     1       2.513  -5.870  -6.155  0.00  0.00    +0.005 A 
ATOM     22  C   UNL     1       2.284  -5.559  -4.823  0.00  0.00    +0.001 A 
ATOM     23  C   UNL     1       1.677  -4.369  -4.482  0.00  0.00    +0.011 A 
ATOM     24  C   UNL     1       1.298  -3.478  -5.481  0.00  0.00    +0.010 A 
ATOM     25  C   UNL     1       1.524  -3.793  -6.830  0.00  0.00    +0.050 A 
ATOM     26  N   UNL     1       1.048  -2.744  -7.590  0.00  0.00    -0.360 N 
ATOM     27  H   UNL     1       1.082  -2.704  -8.559  0.00  0.00    +0.165 HD
ATOM     28  C   UNL     1       0.528  -1.782  -6.803  0.00  0.00    +0.095 A 
ATOM     29  C   UNL     1       0.639  -2.157  -5.481  0.00  0.00    +0.044 A 
BRANCH  20  31
ATOM     30  C   UNL     1       3.713  -4.725  -9.050  0.00  0.00    +0.009 C 
ATOM     31  C   UNL     1       2.392  -5.351  -8.597  0.00  0.00    +0.034 C 
ENDBRANCH  20  31
ENDBRANCH  18  29
ENDBRANCH  17  18
ENDBRANCH   1  17
TORSDOF 4
