REMARK  Name = ZINC39557355
REMARK  10 active torsions:
REMARK  status: ('A' for Active; 'I' for Inactive)
REMARK    1  A    between atoms: C_1  and  C_2
REMARK    2  A    between atoms: C_6  and  N_9
REMARK    3  A    between atoms: C_7  and  C_8
REMARK    4  A    between atoms: C_10  and  C_12
REMARK    5  A    between atoms: C_12  and  C_27
REMARK    6  A    between atoms: C_13  and  C_14
REMARK    7  A    between atoms: C_17  and  O_20
REMARK    8  A    between atoms: O_20  and  C_21
REMARK    9  A    between atoms: C_21  and  C_23
REMARK   10  A    between atoms: C_21  and  C_24
REMARK                            x       y       z     vdW  Elec       q    Type
REMARK                         _______ _______ _______ _____ _____    ______ ____
ROOT
ATOM      1  C   UNL     1      -0.358  -4.976   3.537  0.00  0.00    +0.114 C 
ATOM      2  C   UNL     1      -0.419  -6.352   3.563  0.00  0.00    +0.032 C 
ENDROOT
BRANCH   2   3
ATOM      3  C   UNL     1      -0.570  -7.054   4.839  0.00  0.00    -0.023 A 
ATOM      4  C   UNL     1      -1.216  -6.428   5.915  0.00  0.00    +0.011 A 
ATOM      5  C   UNL     1      -1.354  -7.088   7.103  0.00  0.00    +0.046 A 
ATOM      6  C   UNL     1      -0.856  -8.379   7.246  0.00  0.00    +0.122 A 
ATOM      7  C   UNL     1      -0.214  -9.006   6.183  0.00  0.00    +0.046 A 
ATOM      8  C   UNL     1      -0.076  -8.358   4.988  0.00  0.00    +0.011 A 
BRANCH   6   9
ATOM      9  O   UNL     1      -0.996  -9.030   8.428  0.00  0.00    -0.478 OA
BRANCH   9  10
ATOM     10  C   UNL     1      -1.732  -8.360   9.454  0.00  0.00    +0.282 C 
ATOM     11  C   UNL     1      -3.204  -8.771   9.377  0.00  0.00    +0.064 C 
BRANCH  10  12
ATOM     12  C   UNL     1      -1.175  -8.740  10.802  0.00  0.00    +0.395 C 
ATOM     13  O   UNL     1      -0.235  -9.513  10.877  0.00  0.00    -0.242 OA
ATOM     14  O   UNL     1      -1.665  -8.275  11.817  0.00  0.00    -0.242 OA
ENDBRANCH  10  12
ENDBRANCH   9  10
ENDBRANCH   6   9
ENDBRANCH   2   3
BRANCH   1  16
ATOM     15  N   UNL     1      -0.339  -2.916   2.226  0.00  0.00    -0.281 N 
ATOM     16  C   UNL     1      -0.399  -4.262   2.251  0.00  0.00    +0.259 C 
ATOM     17  O   UNL     1      -0.486  -4.886   1.211  0.00  0.00    -0.269 OA
ATOM     18  H   UNL     1      -0.194  -2.421   3.047  0.00  0.00    +0.155 HD
BRANCH  15  24
ATOM     19  C   UNL     1       0.489   1.091  -0.499  0.00  0.00    +0.044 C 
ATOM     20  C   UNL     1      -0.095  -0.288  -0.334  0.00  0.00    -0.046 A 
ATOM     21  C   UNL     1      -0.779  -0.879  -1.381  0.00  0.00    +0.004 A 
ATOM     22  C   UNL     1      -1.316  -2.144  -1.233  0.00  0.00    +0.002 A 
ATOM     23  C   UNL     1      -1.172  -2.822  -0.039  0.00  0.00    +0.023 A 
ATOM     24  C   UNL     1      -0.486  -2.232   1.015  0.00  0.00    +0.037 A 
ATOM     25  C   UNL     1       0.057  -0.963   0.861  0.00  0.00    -0.026 A 
ATOM     26  C   UNL     1       0.808  -0.321   2.000  0.00  0.00    +0.046 C 
ENDBRANCH  15  24
ENDBRANCH   1  16
BRANCH   1  27
ATOM     27  C   UNL     1      -0.255  -4.240   4.761  0.00  0.00    +0.104 C 
ATOM     28  N   UNL     1      -0.173  -3.657   5.732  0.00  0.00    -0.191 NA
ENDBRANCH   1  27
TORSDOF 7
