REMARK  Name = ZINC44424254
REMARK  5 active torsions:
REMARK  status: ('A' for Active; 'I' for Inactive)
REMARK    1  A    between atoms: C_1  and  O_2
REMARK    2  A    between atoms: O_2  and  C_3
REMARK    3  A    between atoms: C_6  and  N_10
REMARK    4  A    between atoms: C_12  and  C_17
REMARK    5  A    between atoms: C_19  and  C_22
REMARK                            x       y       z     vdW  Elec       q    Type
REMARK                         _______ _______ _______ _____ _____    ______ ____
ROOT
ATOM      1  N   UNL     1       2.541  -2.503   4.232  0.00  0.00    -0.271 N 
ATOM      2  C   UNL     1       2.577  -3.956   4.436  0.00  0.00    +0.125 C 
ATOM      3  C   UNL     1       3.722  -4.203   5.442  0.00  0.00    +0.087 C 
ATOM      4  C   UNL     1       3.783  -2.851   6.190  0.00  0.00    +0.109 C 
ATOM      5  C   UNL     1       3.211  -1.857   5.202  0.00  0.00    +0.221 C 
ATOM      6  O   UNL     1       3.336  -0.653   5.277  0.00  0.00    -0.275 OA
ENDROOT
BRANCH   1  10
ATOM      7  C   UNL     1       0.626  -0.619   1.042  0.00  0.00    +0.138 A 
ATOM      8  C   UNL     1       1.190   0.139   2.058  0.00  0.00    +0.049 A 
ATOM      9  C   UNL     1       1.824  -0.485   3.115  0.00  0.00    +0.027 A 
ATOM     10  C   UNL     1       1.897  -1.871   3.160  0.00  0.00    +0.038 A 
ATOM     11  C   UNL     1       1.333  -2.629   2.144  0.00  0.00    +0.047 A 
ATOM     12  C   UNL     1       0.694  -2.004   1.090  0.00  0.00    +0.084 A 
ATOM     13 CL   UNL     1      -0.017  -2.952  -0.179  0.00  0.00    -0.080 Cl
BRANCH   7  15
ATOM     14  C   UNL     1      -0.030   1.425   0.018  0.00  0.00    +0.277 C 
ATOM     15  O   UNL     1       0.002  -0.004   0.002  0.00  0.00    -0.494 OA
ENDBRANCH   7  15
ENDBRANCH   1  10
BRANCH   3  16
ATOM     16  C   UNL     1       3.378  -5.327   6.386  0.00  0.00    +0.177 A 
ATOM     17  N   UNL     1       4.073  -6.458   6.528  0.00  0.00    -0.191 NA
ATOM     18  C   UNL     1       3.503  -7.224   7.432  0.00  0.00    +0.261 A 
ATOM     19  O   UNL     1       2.413  -6.584   7.891  0.00  0.00    -0.333 OA
ATOM     20  N   UNL     1       2.358  -5.347   7.196  0.00  0.00    -0.061 NA
BRANCH  18  21
ATOM     21  C   UNL     1       3.977  -8.554   7.866  0.00  0.00    +0.075 A 
ATOM     22  C   UNL     1       5.133  -9.103   7.309  0.00  0.00    +0.016 A 
ATOM     23  C   UNL     1       5.570 -10.345   7.719  0.00  0.00    +0.001 A 
ATOM     24  C   UNL     1       4.866 -11.049   8.681  0.00  0.00    +0.003 A 
ATOM     25  C   UNL     1       3.720 -10.513   9.239  0.00  0.00    +0.039 A 
ATOM     26  C   UNL     1       3.273  -9.266   8.841  0.00  0.00    +0.136 A 
ATOM     27  F   UNL     1       2.156  -8.741   9.390  0.00  0.00    -0.205 F 
ENDBRANCH  18  21
ENDBRANCH   3  16
TORSDOF 4
