REMARK  Name = ZINC38633367
REMARK  6 active torsions:
REMARK  status: ('A' for Active; 'I' for Inactive)
REMARK    1  A    between atoms: C_1  and  C_2
REMARK    2  A    between atoms: C_3  and  N_26
REMARK    3  A    between atoms: N_10  and  N_11
REMARK    4  A    between atoms: N_11  and  C_12
REMARK    5  A    between atoms: C_15  and  N_18
REMARK    6  A    between atoms: N_19  and  C_20
REMARK                            x       y       z     vdW  Elec       q    Type
REMARK                         _______ _______ _______ _____ _____    ______ ____
ROOT
ATOM      1  C   UNL     1       0.005   1.456  -0.528  0.00  0.00    +0.048 C 
ATOM      2  C   UNL     1       0.013  -0.027  -0.259  0.00  0.00    +0.010 C 
ATOM      3  C   UNL     1      -1.154  -0.738  -0.251  0.00  0.00    +0.114 C 
ATOM      4  C   UNL     1      -1.129  -2.178   0.012  0.00  0.00    +0.268 C 
ATOM      5  O   UNL     1      -2.172  -2.805   0.017  0.00  0.00    -0.268 OA
ATOM      6  N   UNL     1       0.030  -2.817   0.247  0.00  0.00    -0.246 N 
ATOM      7  C   UNL     1       1.203  -2.156   0.249  0.00  0.00    +0.271 C 
ATOM      8  O   UNL     1       2.239  -2.757   0.464  0.00  0.00    -0.268 OA
ATOM      9  C   UNL     1       1.234  -0.709  -0.015  0.00  0.00    +0.149 C 
ATOM     10  N   UNL     1       2.382  -0.052  -0.021  0.00  0.00    -0.177 NA
ATOM     11  H   UNL     1       0.021  -3.772   0.419  0.00  0.00    +0.158 HD
ENDROOT
BRANCH   3  12
ATOM     12  N   UNL     1      -2.352  -0.102  -0.489  0.00  0.00    -0.319 N 
ATOM     13  C   UNL     1      -2.782   0.812   0.372  0.00  0.00    +0.091 A 
ATOM     14  C   UNL     1      -3.977   1.468   0.163  0.00  0.00    +0.018 A 
ATOM     15  C   UNL     1      -4.731   1.163  -0.962  0.00  0.00    +0.003 A 
ATOM     16  C   UNL     1      -4.252   0.203  -1.841  0.00  0.00    +0.018 A 
ATOM     17  C   UNL     1      -3.046  -0.413  -1.576  0.00  0.00    +0.091 A 
ENDBRANCH   3  12
BRANCH  10  18
ATOM     18  N   UNL     1       3.495  -0.699   0.062  0.00  0.00    -0.237 N 
ATOM     19  H   UNL     1       3.494  -1.669   0.057  0.00  0.00    +0.174 HD
BRANCH  18  20
ATOM     20  C   UNL     1       4.697  -0.005   0.159  0.00  0.00    +0.048 A 
ATOM     21  C   UNL     1       4.696   1.387   0.172  0.00  0.00    +0.027 A 
ATOM     22  C   UNL     1       5.883   2.077   0.268  0.00  0.00    +0.031 A 
ATOM     23  C   UNL     1       7.092   1.377   0.352  0.00  0.00    +0.086 A 
ATOM     24  C   UNL     1       7.089  -0.022   0.340  0.00  0.00    +0.031 A 
ATOM     25  C   UNL     1       5.898  -0.705   0.249  0.00  0.00    +0.027 A 
BRANCH  23  26
ATOM     26  N   UNL     1       8.271   2.058   0.447  0.00  0.00    -0.149 NA
ATOM     27  N   UNL     1       9.385   1.411   0.525  0.00  0.00    -0.149 NA
BRANCH  27  28
ATOM     28  C   UNL     1      10.566   2.093   0.619  0.00  0.00    +0.086 A 
ATOM     29  C   UNL     1      10.570   3.491   0.637  0.00  0.00    +0.029 A 
ATOM     30  C   UNL     1      11.766   4.172   0.733  0.00  0.00    +0.002 A 
ATOM     31  C   UNL     1      12.959   3.474   0.811  0.00  0.00    +0.000 A 
ATOM     32  C   UNL     1      12.962   2.091   0.794  0.00  0.00    +0.002 A 
ATOM     33  C   UNL     1      11.774   1.396   0.704  0.00  0.00    +0.029 A 
ENDBRANCH  27  28
ENDBRANCH  23  26
ENDBRANCH  18  20
ENDBRANCH  10  18
TORSDOF 5
