REMARK  Name = ZINC38663735
REMARK  5 active torsions:
REMARK  status: ('A' for Active; 'I' for Inactive)
REMARK    1  A    between atoms: C_4  and  C_7
REMARK    2  A    between atoms: C_17  and  S_19
REMARK    3  A    between atoms: S_19  and  C_20
REMARK    4  A    between atoms: C_23  and  C_26
REMARK    5  A    between atoms: N_24  and  N_25
REMARK                            x       y       z     vdW  Elec       q    Type
REMARK                         _______ _______ _______ _____ _____    ______ ____
ROOT
ATOM      1  C   UNL     1       3.648  -0.649  -0.038  0.00  0.00    -0.009 C 
ATOM      2  C   UNL     1       4.861   0.036  -0.144  0.00  0.00    +0.001 A 
ATOM      3  C   UNL     1       4.888   1.444  -0.240  0.00  0.00    +0.010 A 
ATOM      4  C   UNL     1       6.083   2.086  -0.343  0.00  0.00    +0.001 A 
ATOM      5  C   UNL     1       7.285   1.382  -0.355  0.00  0.00    +0.002 A 
ATOM      6  C   UNL     1       7.323   0.023  -0.267  0.00  0.00    +0.024 A 
ATOM      7  C   UNL     1       6.126  -0.707  -0.158  0.00  0.00    +0.041 A 
ATOM      8  N   UNL     1       6.165  -2.041  -0.071  0.00  0.00    -0.284 N 
ATOM      9  C   UNL     1       5.089  -2.796   0.033  0.00  0.00    +0.235 C 
ATOM     10  O   UNL     1       5.200  -4.006   0.108  0.00  0.00    -0.274 OA
ATOM     11  C   UNL     1       3.718  -2.161   0.066  0.00  0.00    +0.171 C 
ATOM     12  H   UNL     1       7.032  -2.476  -0.085  0.00  0.00    +0.155 HD
ENDROOT
BRANCH   1  16
ATOM     13  C   UNL     1      -0.017   1.380   0.011  0.00  0.00    +0.000 A 
ATOM     14  C   UNL     1       0.781   1.429  -1.120  0.00  0.00    +0.001 A 
ATOM     15  C   UNL     1       1.988   0.766  -1.147  0.00  0.00    +0.008 A 
ATOM     16  C   UNL     1       2.408   0.038  -0.021  0.00  0.00    -0.020 A 
ATOM     17  C   UNL     1       1.591  -0.005   1.120  0.00  0.00    +0.008 A 
ATOM     18  C   UNL     1       0.388   0.665   1.126  0.00  0.00    +0.001 A 
ENDBRANCH   1  16
BRANCH  11  19
ATOM     19  S   UNL     1       2.755  -2.858  -1.304  0.00  0.00    -0.067 S 
BRANCH  19  20
ATOM     20  C   UNL     1       2.780  -4.594  -1.003  0.00  0.00    +0.210 A 
ATOM     21  N   UNL     1       3.369  -5.204   0.000  0.00  0.00    -0.121 NA
ATOM     22  N   UNL     1       3.186  -6.472  -0.092  0.00  0.00    -0.123 NA
ATOM     23  C   UNL     1       2.477  -6.746  -1.151  0.00  0.00    +0.255 A 
ATOM     24  N   UNL     1       2.188  -5.559  -1.765  0.00  0.00    -0.220 N 
BRANCH  23  25
ATOM     25  C   UNL     1       2.048  -8.116  -1.609  0.00  0.00    +0.454 C 
ATOM     26  F   UNL     1       2.224  -9.033  -0.566  0.00  0.00    -0.163 F 
ATOM     27  F   UNL     1       0.699  -8.084  -1.979  0.00  0.00    -0.163 F 
ATOM     28  F   UNL     1       2.824  -8.505  -2.706  0.00  0.00    -0.163 F 
ENDBRANCH  23  25
BRANCH  24  29
ATOM     29  N   UNL     1       1.460  -5.377  -2.907  0.00  0.00    -0.295 N 
ATOM     30  H   UNL     1       2.054  -5.406  -3.723  0.00  0.00    +0.163 HD
ATOM     31  H   UNL     1       0.719  -6.058  -2.976  0.00  0.00    +0.163 HD
ENDBRANCH  24  29
ENDBRANCH  19  20
ENDBRANCH  11  19
TORSDOF 5
