REMARK  Name = ZINC22451808
REMARK  3 active torsions:
REMARK  status: ('A' for Active; 'I' for Inactive)
REMARK    1  A    between atoms: C_1  and  C_2
REMARK    2  A    between atoms: C_5  and  C_28
REMARK    3  A    between atoms: C_16  and  C_18
REMARK                            x       y       z     vdW  Elec       q    Type
REMARK                         _______ _______ _______ _____ _____    ______ ____
ROOT
ATOM      1  C   UNL     1      -4.210  12.177  -1.615  0.00  0.00    +0.009 C 
ATOM      2  C   UNL     1      -3.377  11.515  -0.516  0.00  0.00    +0.004 C 
ATOM      3  C   UNL     1      -1.956  12.084  -0.539  0.00  0.00    +0.009 C 
ATOM      4  C   UNL     1      -1.113  11.373   0.523  0.00  0.00    +0.004 C 
ATOM      5  C   UNL     1      -1.121   9.867   0.250  0.00  0.00    +0.111 C 
ATOM      6  N   UNL     1      -2.503   9.371   0.284  0.00  0.00    -0.301 N 
ATOM      7  C   UNL     1      -3.320  10.005  -0.759  0.00  0.00    +0.111 C 
ATOM      8  C   UNL     1      -2.537   8.006   0.172  0.00  0.00    +0.199 A 
ATOM      9  N   UNL     1      -3.740   7.375   0.080  0.00  0.00    -0.295 N 
ATOM     10  H   UNL     1      -4.670   7.961   0.096  0.00  0.00    +0.172 HD
ATOM     11  C   UNL     1      -3.794   6.032  -0.031  0.00  0.00    +0.253 A 
ATOM     12  O   UNL     1      -4.869   5.459  -0.114  0.00  0.00    -0.268 OA
ATOM     13  C   UNL     1      -2.595   5.305  -0.055  0.00  0.00    +0.098 A 
ATOM     14  C   UNL     1      -1.395   5.997   0.047  0.00  0.00    +0.080 A 
ATOM     15  N   UNL     1      -1.406   7.333   0.155  0.00  0.00    -0.216 NA
ATOM     16  C   UNL     1      -1.701  11.645   1.909  0.00  0.00    +0.009 C 
ENDROOT
BRANCH  14  17
ATOM     17  C   UNL     1      -0.111   5.263   0.030  0.00  0.00    +0.008 A 
ATOM     18  C   UNL     1       0.207   4.433  -1.032  0.00  0.00    +0.010 A 
ATOM     19  C   UNL     1       1.412   3.741  -1.054  0.00  0.00    +0.001 A 
ATOM     20  C   UNL     1       2.312   3.859  -0.038  0.00  0.00    +0.008 A 
ATOM     21  C   UNL     1       2.030   4.691   1.059  0.00  0.00    -0.017 A 
ATOM     22  C   UNL     1       0.807   5.403   1.099  0.00  0.00    -0.009 A 
ATOM     23  C   UNL     1       0.527   6.232   2.194  0.00  0.00    +0.009 A 
ATOM     24  C   UNL     1       1.431   6.339   3.208  0.00  0.00    +0.001 A 
ATOM     25  C   UNL     1       2.638   5.644   3.168  0.00  0.00    +0.001 A 
ATOM     26  C   UNL     1       2.942   4.830   2.120  0.00  0.00    +0.008 A 
ENDBRANCH  14  17
TORSDOF 1
