REMARK  Name = ZINC18130635
REMARK  7 active torsions:
REMARK  status: ('A' for Active; 'I' for Inactive)
REMARK    1  A    between atoms: C_1  and  C_2
REMARK    2  A    between atoms: C_9  and  N_20
REMARK    3  A    between atoms: C_10  and  C_13
REMARK    4  A    between atoms: C_14  and  C_15
REMARK    5  A    between atoms: C_14  and  C_17
REMARK    6  A    between atoms: C_22  and  C_29
REMARK    7  A    between atoms: C_25  and  C_28
REMARK                            x       y       z     vdW  Elec       q    Type
REMARK                         _______ _______ _______ _____ _____    ______ ____
ROOT
ATOM      1  C   UNL     1      -4.589   5.808   0.405  0.00  0.00    +0.047 C 
ATOM      2  C   UNL     1      -4.665   4.303   0.363  0.00  0.00    -0.007 A 
ATOM      3  C   UNL     1      -5.867   3.673   0.503  0.00  0.00    +0.008 A 
ATOM      4  C   UNL     1      -5.921   2.273   0.463  0.00  0.00    +0.019 A 
ATOM      5  C   UNL     1      -4.789   1.556   0.286  0.00  0.00    +0.096 A 
ATOM      6  N   UNL     1      -3.584   2.177   0.144  0.00  0.00    -0.267 N 
ATOM      7  C   UNL     1      -3.499   3.541   0.179  0.00  0.00    +0.145 A 
ATOM      8  N   UNL     1      -2.329   4.168   0.043  0.00  0.00    -0.213 NA
ATOM      9  C   UNL     1      -1.198   3.502  -0.132  0.00  0.00    +0.136 A 
ATOM     10  C   UNL     1      -1.223   2.084  -0.178  0.00  0.00    +0.081 A 
ATOM     11  C   UNL     1      -2.474   1.429  -0.038  0.00  0.00    +0.267 A 
ATOM     12  O   UNL     1      -2.545   0.214  -0.076  0.00  0.00    -0.267 OA
ENDROOT
BRANCH   9  13
ATOM     13  N   UNL     1      -0.009   4.180  -0.269  0.00  0.00    -0.310 N 
ATOM     14  C   UNL     1       0.890   3.899   0.860  0.00  0.00    +0.138 C 
ATOM     15  C   UNL     1       2.220   4.623   0.638  0.00  0.00    +0.133 C 
ATOM     16  O   UNL     1       1.974   6.023   0.478  0.00  0.00    -0.371 OA
ATOM     17  C   UNL     1       1.103   6.333  -0.613  0.00  0.00    +0.133 C 
ATOM     18  C   UNL     1      -0.239   5.625  -0.404  0.00  0.00    +0.138 C 
ATOM     19  C   UNL     1       0.879   7.845  -0.674  0.00  0.00    +0.039 C 
ATOM     20  C   UNL     1       3.132   4.400   1.847  0.00  0.00    +0.039 C 
ENDBRANCH   9  13
BRANCH  10  21
ATOM     21  C   UNL     1      -0.040   1.348  -0.364  0.00  0.00    +0.040 C 
ATOM     22  C   UNL     1       0.751   1.576  -1.482  0.00  0.00    +0.114 C 
BRANCH  22  23
ATOM     23  C   UNL     1       2.039   0.887  -1.622  0.00  0.00    +0.252 C 
ATOM     24  O   UNL     1       2.414   0.117  -0.757  0.00  0.00    -0.270 OA
ATOM     25  N   UNL     1       2.807   1.108  -2.707  0.00  0.00    -0.325 N 
ATOM     26  H   UNL     1       2.507   1.722  -3.396  0.00  0.00    +0.145 HD
ATOM     27  H   UNL     1       3.658   0.653  -2.799  0.00  0.00    +0.145 HD
ENDBRANCH  22  23
BRANCH  22  28
ATOM     28  C   UNL     1       0.310   2.482  -2.499  0.00  0.00    +0.104 C 
ATOM     29  N   UNL     1      -0.040   3.201  -3.306  0.00  0.00    -0.191 NA
ENDBRANCH  22  28
ENDBRANCH  10  21
TORSDOF 4
