REMARK  Name = ZINC00518245
REMARK  5 active torsions:
REMARK  status: ('A' for Active; 'I' for Inactive)
REMARK    1  A    between atoms: C_1  and  C_2
REMARK    2  A    between atoms: C_5  and  C_25
REMARK    3  A    between atoms: C_8  and  C_24
REMARK    4  A    between atoms: C_10  and  C_22
REMARK    5  A    between atoms: C_22  and  O_23
REMARK                            x       y       z     vdW  Elec       q    Type
REMARK                         _______ _______ _______ _____ _____    ______ ____
ROOT
ATOM      1  C   UNL     1      -0.246   1.150   5.052  0.00  0.00    +0.008 C 
ATOM      2  C   UNL     1      -0.774   1.708   3.732  0.00  0.00    +0.000 C 
ATOM      3  C   UNL     1      -2.279   1.580   3.704  0.00  0.00    +0.052 C 
ATOM      4  C   UNL     1      -2.941   1.796   2.338  0.00  0.00    +0.114 C 
ATOM      5  C   UNL     1      -2.059   1.090   1.291  0.00  0.00    +0.069 C 
ATOM      6  C   UNL     1      -0.649   1.647   1.281  0.00  0.00    +0.006 C 
ATOM      7  C   UNL     1       0.019   1.125   2.575  0.00  0.00    +0.023 C 
ATOM      8  C   UNL     1       0.142  -0.391   2.521  0.00  0.00    +0.170 C 
ATOM      9  O   UNL     1      -0.801  -0.971   1.579  0.00  0.00    -0.371 OA
ATOM     10  C   UNL     1      -2.033  -0.354   1.838  0.00  0.00    +0.159 C 
ATOM     11  C   UNL     1      -3.350  -0.951   1.503  0.00  0.00    +0.023 A 
ATOM     12  C   UNL     1      -3.550  -2.195   0.975  0.00  0.00    +0.010 A 
ATOM     13  C   UNL     1      -4.842  -2.643   0.745  0.00  0.00    +0.001 A 
ATOM     14  C   UNL     1      -5.915  -1.827   1.053  0.00  0.00    +0.004 A 
ATOM     15  C   UNL     1      -5.713  -0.567   1.578  0.00  0.00    +0.046 A 
ATOM     16  C   UNL     1      -4.425  -0.101   1.803  0.00  0.00    +0.127 A 
ATOM     17  O   UNL     1      -4.219   1.140   2.299  0.00  0.00    -0.485 OA
ATOM     18  C   UNL     1       0.121   1.206   0.040  0.00  0.00    +0.009 C 
ATOM     19  C   UNL     1      -3.119   3.300   2.032  0.00  0.00    +0.056 C 
ENDROOT
BRANCH   7  20
ATOM     20  C   UNL     1       1.435   1.713   2.630  0.00  0.00    +0.165 C 
BRANCH  20  21
ATOM     21  O   UNL     1       1.364   3.136   2.518  0.00  0.00    -0.394 OA
ATOM     22  H   UNL     1       2.225   3.576   2.546  0.00  0.00    +0.209 HD
ENDBRANCH  20  21
ENDBRANCH   7  20
TORSDOF 2
