REMARK  Name = ZINC15641370
REMARK  5 active torsions:
REMARK  status: ('A' for Active; 'I' for Inactive)
REMARK    1  A    between atoms: C_6  and  C_7
REMARK    2  A    between atoms: C_7  and  N_8
REMARK    3  A    between atoms: C_9  and  N_13
REMARK    4  A    between atoms: C_14  and  C_16
REMARK    5  A    between atoms: C_20  and  N_22
REMARK                            x       y       z     vdW  Elec       q    Type
REMARK                         _______ _______ _______ _____ _____    ______ ____
ROOT
ATOM      1  N   UNL     1      -3.070   1.010  -1.703  0.00  0.00    -0.267 N 
ATOM      2  C   UNL     1      -3.843   1.718  -2.550  0.00  0.00    +0.249 C 
ATOM      3  O   UNL     1      -4.062   1.298  -3.669  0.00  0.00    -0.270 OA
ATOM      4  H   UNL     1      -2.895   1.345  -0.810  0.00  0.00    +0.157 HD
ENDROOT
BRANCH   2   5
ATOM      5  C   UNL     1      -4.426   3.005  -2.117  0.00  0.00    +0.039 A 
ATOM      6  C   UNL     1      -4.173   3.493  -0.833  0.00  0.00    +0.014 A 
ATOM      7  C   UNL     1      -4.720   4.694  -0.435  0.00  0.00    +0.018 A 
ATOM      8  C   UNL     1      -5.520   5.416  -1.305  0.00  0.00    +0.048 A 
ATOM      9  C   UNL     1      -5.775   4.937  -2.579  0.00  0.00    +0.141 A 
ATOM     10  C   UNL     1      -5.228   3.740  -2.991  0.00  0.00    +0.047 A 
ATOM     11 BR   UNL     1      -6.266   7.063  -0.750  0.00  0.00    -0.048 Br
BRANCH   9  12
ATOM     12  N   UNL     1      -6.631   5.715  -3.502  0.00  0.00    +0.058 N 
ATOM     13  O   UNL     1      -6.855   5.298  -4.615  0.00  0.00    -0.126 OA
ATOM     14  O   UNL     1      -7.107   6.768  -3.144  0.00  0.00    -0.126 OA
ENDBRANCH   9  12
ENDBRANCH   2   5
BRANCH   1  16
ATOM     15  N   UNL     1      -1.726  -1.017  -1.368  0.00  0.00    -0.246 N 
ATOM     16  C   UNL     1      -2.519  -0.204  -2.112  0.00  0.00    +0.124 A 
ATOM     17  C   UNL     1      -2.680  -0.792  -3.329  0.00  0.00    +0.065 A 
ATOM     18  C   UNL     1      -1.965  -1.992  -3.323  0.00  0.00    +0.136 A 
ATOM     19  N   UNL     1      -1.391  -2.126  -2.155  0.00  0.00    -0.178 NA
BRANCH  15  20
ATOM     20  C   UNL     1      -1.293  -0.775   0.011  0.00  0.00    +0.180 C 
BRANCH  20  26
ATOM     21  C   UNL     1      -0.017   1.378   0.010  0.00  0.00    +0.007 A 
ATOM     22  C   UNL     1       1.171   2.086   0.002  0.00  0.00    +0.020 A 
ATOM     23  C   UNL     1       2.378   1.410  -0.013  0.00  0.00    +0.041 A 
ATOM     24  C   UNL     1       2.396   0.027  -0.021  0.00  0.00    +0.020 A 
ATOM     25  C   UNL     1       1.208  -0.679  -0.013  0.00  0.00    +0.007 A 
ATOM     26  C   UNL     1       0.002  -0.004   0.002  0.00  0.00    -0.026 A 
ATOM     27 CL   UNL     1       3.870   2.298  -0.023  0.00  0.00    -0.084 Cl
ENDBRANCH  20  26
ENDBRANCH  15  20
ENDBRANCH   1  16
TORSDOF 5
