REMARK  Name = ZINC18272500
REMARK  4 active torsions:
REMARK  status: ('A' for Active; 'I' for Inactive)
REMARK    1  A    between atoms: C_1  and  C_2
REMARK    2  A    between atoms: C_5  and  N_8
REMARK    3  A    between atoms: C_14  and  C_15
REMARK    4  A    between atoms: C_18  and  C_20
REMARK                            x       y       z     vdW  Elec       q    Type
REMARK                         _______ _______ _______ _____ _____    ______ ____
ROOT
ATOM      1  N   UNL     1       0.213  -4.159  -0.182  0.00  0.00    -0.226 NA
ATOM      2  C   UNL     1       0.961  -4.802   0.687  0.00  0.00    +0.166 C 
ATOM      3  N   UNL     1       0.945  -6.142   1.006  0.00  0.00    -0.260 N 
ATOM      4  C   UNL     1       1.775  -6.629   1.913  0.00  0.00    +0.257 C 
ATOM      5  O   UNL     1       1.774  -7.811   2.207  0.00  0.00    -0.269 OA
ATOM      6  C   UNL     1       2.700  -5.680   2.552  0.00  0.00    +0.081 C 
ATOM      7  C   UNL     1       3.648  -5.905   3.505  0.00  0.00    +0.066 C 
ATOM      8  S   UNL     1       2.252  -4.154   1.737  0.00  0.00    -0.049 S 
ATOM      9  H   UNL     1       0.318  -6.734   0.562  0.00  0.00    +0.157 HD
ENDROOT
BRANCH   1  14
ATOM     10  C   UNL     1       0.907   1.391  -0.943  0.00  0.00    +0.044 C 
ATOM     11  C   UNL     1       0.722  -0.091  -0.740  0.00  0.00    -0.050 A 
ATOM     12  C   UNL     1       0.592  -0.925  -1.836  0.00  0.00    +0.005 A 
ATOM     13  C   UNL     1       0.423  -2.282  -1.657  0.00  0.00    +0.028 A 
ATOM     14  C   UNL     1       0.382  -2.814  -0.366  0.00  0.00    +0.067 A 
ATOM     15  C   UNL     1       0.514  -1.966   0.736  0.00  0.00    +0.028 A 
ATOM     16  C   UNL     1       0.688  -0.611   0.542  0.00  0.00    +0.005 A 
ENDBRANCH   1  14
BRANCH   7  17
ATOM     17  C   UNL     1       3.941  -7.227   3.914  0.00  0.00    +0.129 A 
ATOM     18  C   UNL     1       4.809  -7.593   4.922  0.00  0.00    +0.049 A 
ATOM     19  C   UNL     1       4.786  -8.996   4.978  0.00  0.00    +0.045 A 
ATOM     20  C   UNL     1       3.927  -9.420   4.026  0.00  0.00    +0.103 A 
ATOM     21  O   UNL     1       3.416  -8.355   3.391  0.00  0.00    -0.461 OA
ATOM     22  C   UNL     1       3.592 -10.859   3.729  0.00  0.00    +0.086 C 
ENDBRANCH   7  17
TORSDOF 2
