REMARK  Name = ZINC02224642
REMARK  7 active torsions:
REMARK  status: ('A' for Active; 'I' for Inactive)
REMARK    1  A    between atoms: C_1  and  C_2
REMARK    2  A    between atoms: C_10  and  C_13
REMARK    3  A    between atoms: C_19  and  C_27
REMARK    4  A    between atoms: C_30  and  O_35
REMARK    5  A    between atoms: C_31  and  O_33
REMARK    6  A    between atoms: O_33  and  C_34
REMARK    7  A    between atoms: O_35  and  C_36
REMARK                            x       y       z     vdW  Elec       q    Type
REMARK                         _______ _______ _______ _____ _____    ______ ____
ROOT
ATOM      1  C   UNL     1      -0.018   1.503   0.010  0.00  0.00    +0.044 C 
ATOM      2  C   UNL     1       0.002  -0.004   0.002  0.00  0.00    -0.050 A 
ATOM      3  C   UNL     1       0.006  -0.687  -1.202  0.00  0.00    +0.007 A 
ATOM      4  C   UNL     1       0.024  -2.069  -1.225  0.00  0.00    +0.046 A 
ATOM      5  C   UNL     1       0.039  -2.778  -0.037  0.00  0.00    +0.131 A 
ATOM      6  C   UNL     1       0.037  -2.087   1.181  0.00  0.00    +0.043 A 
ATOM      7  C   UNL     1       0.023  -0.699   1.196  0.00  0.00    +0.017 A 
ATOM      8  C   UNL     1       0.059  -2.877   2.439  0.00  0.00    +0.083 C 
ATOM      9  C   UNL     1       0.408  -4.176   2.350  0.00  0.00    +0.027 C 
ATOM     10  C   UNL     1       0.767  -4.784   1.025  0.00  0.00    +0.234 C 
ATOM     11  O   UNL     1       0.054  -4.135  -0.030  0.00  0.00    -0.479 OA
ATOM     12  C   UNL     1       0.424  -4.997   3.620  0.00  0.00    +0.159 C 
ATOM     13  N   UNL     1       0.054  -4.286   4.850  0.00  0.00    -0.208 N 
ATOM     14  C   UNL     1      -0.274  -2.947   4.774  0.00  0.00    +0.237 C 
ATOM     15  N   UNL     1      -0.262  -2.308   3.627  0.00  0.00    -0.213 NA
ATOM     16  N   UNL     1      -0.568  -2.542   6.029  0.00  0.00    -0.205 NA
ATOM     17  C   UNL     1      -0.445  -3.534   6.867  0.00  0.00    +0.203 C 
ATOM     18  N   UNL     1      -0.060  -4.653   6.192  0.00  0.00    -0.251 N 
ATOM     19  H   UNL     1       0.103  -5.532   6.570  0.00  0.00    +0.171 HD
ENDROOT
BRANCH  10  20
ATOM     20  C   UNL     1       2.248  -4.627   0.791  0.00  0.00    -0.003 A 
ATOM     21  C   UNL     1       2.753  -3.420   0.344  0.00  0.00    +0.007 A 
ATOM     22  C   UNL     1       4.111  -3.276   0.129  0.00  0.00    +0.000 A 
ATOM     23  C   UNL     1       4.963  -4.339   0.360  0.00  0.00    +0.000 A 
ATOM     24  C   UNL     1       4.458  -5.546   0.808  0.00  0.00    +0.000 A 
ATOM     25  C   UNL     1       3.101  -5.688   1.027  0.00  0.00    +0.007 A 
ENDBRANCH  10  20
BRANCH  12  26
ATOM     26  C   UNL     1      -0.527  -6.153   3.446  0.00  0.00    -0.017 A 
ATOM     27  C   UNL     1      -1.886  -5.957   3.605  0.00  0.00    +0.009 A 
ATOM     28  C   UNL     1      -2.763  -7.014   3.446  0.00  0.00    +0.050 A 
ATOM     29  C   UNL     1      -2.280  -8.273   3.127  0.00  0.00    +0.162 A 
ATOM     30  C   UNL     1      -0.912  -8.470   2.966  0.00  0.00    +0.162 A 
ATOM     31  C   UNL     1      -0.039  -7.405   3.122  0.00  0.00    +0.055 A 
BRANCH  30  32
ATOM     32  O   UNL     1      -0.433  -9.704   2.653  0.00  0.00    -0.491 OA
ATOM     33  C   UNL     1       0.983  -9.832   2.504  0.00  0.00    +0.277 C 
ENDBRANCH  30  32
BRANCH  29  34
ATOM     34  O   UNL     1      -3.141  -9.314   2.970  0.00  0.00    -0.491 OA
ATOM     35  C   UNL     1      -4.532  -9.039   3.150  0.00  0.00    +0.277 C 
ENDBRANCH  29  34
ENDBRANCH  12  26
TORSDOF 4
