REMARK  Name = ZINC39702461
REMARK  5 active torsions:
REMARK  status: ('A' for Active; 'I' for Inactive)
REMARK    1  A    between atoms: C_1  and  N_2
REMARK    2  A    between atoms: C_4  and  C_21
REMARK    3  A    between atoms: N_9  and  C_14
REMARK    4  A    between atoms: N_23  and  C_24
REMARK    5  A    between atoms: C_24  and  C_25
REMARK                            x       y       z     vdW  Elec       q    Type
REMARK                         _______ _______ _______ _____ _____    ______ ____
ROOT
ATOM      1  C   UNL     1      -1.171   1.065  -0.636  0.00  0.00    +0.130 C 
ATOM      2  N   UNL     1      -0.693  -0.295  -0.374  0.00  0.00    -0.322 N 
ATOM      3  C   UNL     1      -0.489  -1.262  -1.293  0.00  0.00    +0.085 C 
ATOM      4  C   UNL     1      -0.249  -2.494  -0.703  0.00  0.00    +0.072 C 
ATOM      5  C   UNL     1      -0.354  -2.360   0.686  0.00  0.00    +0.078 C 
ATOM      6  N   UNL     1      -0.472  -3.214   1.670  0.00  0.00    -0.164 NA
ATOM      7  C   UNL     1      -0.914  -2.750   2.856  0.00  0.00    +0.337 C 
ATOM      8  O   UNL     1      -0.799  -3.450   3.845  0.00  0.00    -0.250 OA
ATOM      9  N   UNL     1      -1.477  -1.535   2.977  0.00  0.00    -0.191 N 
ATOM     10  C   UNL     1      -1.344  -0.586   2.018  0.00  0.00    +0.254 C 
ATOM     11  O   UNL     1      -1.998   0.435   2.042  0.00  0.00    -0.272 OA
ATOM     12  C   UNL     1      -0.344  -0.853   0.925  0.00  0.00    +0.208 C 
ENDROOT
BRANCH   9  13
ATOM     13  C   UNL     1      -2.222  -1.242   4.128  0.00  0.00    +0.046 A 
ATOM     14  C   UNL     1      -3.570  -1.568   4.185  0.00  0.00    +0.027 A 
ATOM     15  C   UNL     1      -4.303  -1.278   5.319  0.00  0.00    +0.040 A 
ATOM     16  C   UNL     1      -3.694  -0.662   6.399  0.00  0.00    +0.124 A 
ATOM     17  C   UNL     1      -2.349  -0.335   6.344  0.00  0.00    +0.040 A 
ATOM     18  C   UNL     1      -1.611  -0.630   5.214  0.00  0.00    +0.027 A 
ATOM     19  F   UNL     1      -4.412  -0.379   7.508  0.00  0.00    -0.205 F 
ENDBRANCH   9  13
BRANCH   4  20
ATOM     20  C   UNL     1       0.063  -3.739  -1.420  0.00  0.00    +0.247 C 
ATOM     21  O   UNL     1       0.130  -3.741  -2.635  0.00  0.00    -0.270 OA
ATOM     22  N   UNL     1       0.276  -4.878  -0.732  0.00  0.00    -0.307 N 
ATOM     23  H   UNL     1       0.224  -4.877   0.236  0.00  0.00    +0.149 HD
BRANCH  22  24
ATOM     24  C   UNL     1       0.588  -6.119  -1.447  0.00  0.00    +0.139 C 
BRANCH  24  25
ATOM     25  C   UNL     1       0.779  -7.236  -0.454  0.00  0.00    -0.030 A 
ATOM     26  C   UNL     1       2.034  -7.488   0.069  0.00  0.00    +0.008 A 
ATOM     27  C   UNL     1       2.211  -8.512   0.980  0.00  0.00    +0.038 A 
ATOM     28  C   UNL     1       1.131  -9.286   1.369  0.00  0.00    +0.123 A 
ATOM     29  C   UNL     1      -0.125  -9.033   0.845  0.00  0.00    +0.038 A 
ATOM     30  C   UNL     1      -0.301  -8.005  -0.062  0.00  0.00    +0.008 A 
ATOM     31  F   UNL     1       1.303 -10.287   2.259  0.00  0.00    -0.205 F 
ENDBRANCH  24  25
ENDBRANCH  22  24
ENDBRANCH   4  20
TORSDOF 4
