REMARK  Name = ZINC03239922
REMARK  11 active torsions:
REMARK  status: ('A' for Active; 'I' for Inactive)
REMARK    1  A    between atoms: C_1  and  C_2
REMARK    2  A    between atoms: C_7  and  C_9
REMARK    3  A    between atoms: C_7  and  C_10
REMARK    4  A    between atoms: C_13  and  C_15
REMARK    5  A    between atoms: C_15  and  O_16
REMARK    6  A    between atoms: O_16  and  C_17
REMARK    7  A    between atoms: C_17  and  C_19
REMARK    8  A    between atoms: C_22  and  S_25
REMARK    9  A    between atoms: S_25  and  N_28
REMARK   10  A    between atoms: N_28  and  C_29
REMARK   11  A    between atoms: N_28  and  C_30
REMARK                            x       y       z     vdW  Elec       q    Type
REMARK                         _______ _______ _______ _____ _____    ______ ____
ROOT
ATOM      1  O   UNL     1       1.396  -3.410  -4.528  0.00  0.00    -0.452 OA
ENDROOT
BRANCH   1   2
ATOM      2  C   UNL     1       2.329  -3.267  -5.489  0.00  0.00    +0.340 C 
ATOM      3  O   UNL     1       3.046  -2.287  -5.499  0.00  0.00    -0.245 OA
BRANCH   2   4
ATOM      4  C   UNL     1       2.481  -4.303  -6.530  0.00  0.00    +0.059 A 
ATOM      5  C   UNL     1       1.655  -5.429  -6.525  0.00  0.00    +0.017 A 
ATOM      6  C   UNL     1       1.802  -6.393  -7.501  0.00  0.00    +0.029 A 
ATOM      7  C   UNL     1       2.765  -6.247  -8.483  0.00  0.00    +0.105 A 
ATOM      8  C   UNL     1       3.588  -5.134  -8.494  0.00  0.00    +0.029 A 
ATOM      9  C   UNL     1       3.447  -4.159  -7.528  0.00  0.00    +0.017 A 
BRANCH   7  10
ATOM     10  S   UNL     1       2.946  -7.483  -9.726  0.00  0.00    +0.060 S 
ATOM     11  O   UNL     1       4.278  -7.380 -10.210  0.00  0.00    -0.153 OA
ATOM     12  O   UNL     1       2.426  -8.687  -9.180  0.00  0.00    -0.153 OA
BRANCH  10  13
ATOM     13  N   UNL     1       1.952  -7.064 -10.982  0.00  0.00    -0.183 NA
ATOM     14  C   UNL     1       2.456  -6.212 -12.062  0.00  0.00    +0.131 C 
ATOM     15  C   UNL     1       0.569  -7.544 -11.012  0.00  0.00    +0.131 C 
ENDBRANCH  10  13
ENDBRANCH   7  10
ENDBRANCH   2   4
ENDBRANCH   1   2
BRANCH   1  16
ATOM     16  C   UNL     1       1.304  -2.369  -3.553  0.00  0.00    +0.328 C 
BRANCH  16  28
ATOM     17  C   UNL     1      -0.019   1.532   0.011  0.00  0.00    +0.013 C 
ATOM     18  C   UNL     1       0.002  -0.004   0.002  0.00  0.00    -0.014 C 
ATOM     19  C   UNL     1      -1.427  -0.614  -0.023  0.00  0.00    +0.030 C 
ATOM     20  C   UNL     1      -1.088  -2.044  -0.513  0.00  0.00    +0.077 C 
ATOM     21  C   UNL     1      -0.480  -2.795   0.669  0.00  0.00    +0.029 C 
ATOM     22  C   UNL     1       0.726  -2.106   1.280  0.00  0.00    -0.033 C 
ATOM     23  C   UNL     1       0.726  -0.590   1.212  0.00  0.00    +0.014 C 
ATOM     24  C   UNL     1       2.015  -2.662   0.657  0.00  0.00    +0.011 C 
ATOM     25  C   UNL     1       0.763  -2.497   2.779  0.00  0.00    +0.011 C 
ATOM     26  N   UNL     1      -0.055  -1.854  -1.550  0.00  0.00    -0.295 N 
ATOM     27  C   UNL     1       0.625  -0.576  -1.291  0.00  0.00    +0.115 C 
ATOM     28  C   UNL     1       0.214  -2.699  -2.566  0.00  0.00    +0.254 C 
ATOM     29  O   UNL     1      -0.423  -3.724  -2.687  0.00  0.00    -0.272 OA
ENDBRANCH  16  28
ENDBRANCH   1  16
TORSDOF 6
