REMARK  Name = ZINC40670398
REMARK  5 active torsions:
REMARK  status: ('A' for Active; 'I' for Inactive)
REMARK    1  A    between atoms: C_1  and  C_2
REMARK    2  A    between atoms: C_7  and  C_22
REMARK    3  A    between atoms: C_10  and  C_12
REMARK    4  A    between atoms: C_12  and  C_21
REMARK    5  A    between atoms: C_13  and  C_14
REMARK                            x       y       z     vdW  Elec       q    Type
REMARK                         _______ _______ _______ _____ _____    ______ ____
ROOT
ATOM      1  C   UNL     1       2.642  -1.926  -0.028  0.00  0.00    +0.030 C 
ATOM      2  C   UNL     1       1.861  -0.770   0.600  0.00  0.00    +0.099 C 
ATOM      3  C   UNL     1       1.933   0.458  -0.315  0.00  0.00    +0.182 C 
ATOM      4  O   UNL     1       1.214   0.191  -1.521  0.00  0.00    -0.376 OA
ATOM      5  C   UNL     1      -0.182  -0.051  -1.329  0.00  0.00    +0.182 C 
ATOM      6  C   UNL     1      -0.363  -1.305  -0.467  0.00  0.00    +0.099 C 
ATOM      7  N   UNL     1       0.448  -1.152   0.753  0.00  0.00    -0.288 N 
ATOM      8  C   UNL     1      -0.088  -1.355   1.973  0.00  0.00    +0.243 C 
ATOM      9  O   UNL     1      -1.296  -1.338   2.118  0.00  0.00    -0.270 OA
ATOM     10  C   UNL     1      -1.837  -1.463  -0.090  0.00  0.00    +0.030 C 
ENDROOT
BRANCH   8  11
ATOM     11  C   UNL     1       0.784  -1.596   3.124  0.00  0.00    +0.012 C 
ATOM     12  C   UNL     1       0.248  -1.819   4.341  0.00  0.00    +0.016 C 
ATOM     13  C   UNL     1       2.281  -1.594   2.949  0.00  0.00    +0.049 C 
BRANCH  12  14
ATOM     14  C   UNL     1       1.113  -1.855   5.531  0.00  0.00    -0.025 A 
ATOM     15  C   UNL     1       2.127  -0.904   5.691  0.00  0.00    +0.009 A 
ATOM     16  C   UNL     1       2.933  -0.944   6.809  0.00  0.00    +0.020 A 
ATOM     17  C   UNL     1       2.740  -1.921   7.772  0.00  0.00    +0.041 A 
ATOM     18  C   UNL     1       1.738  -2.865   7.620  0.00  0.00    +0.020 A 
ATOM     19  C   UNL     1       0.921  -2.835   6.510  0.00  0.00    +0.009 A 
ATOM     20 CL   UNL     1       3.761  -1.963   9.176  0.00  0.00    -0.084 Cl
ENDBRANCH  12  14
ENDBRANCH   8  11
TORSDOF 2
