REMARK  Name = ZINC09925945
REMARK  7 active torsions:
REMARK  status: ('A' for Active; 'I' for Inactive)
REMARK    1  A    between atoms: C_1  and  C_2
REMARK    2  A    between atoms: C_8  and  N_9
REMARK    3  A    between atoms: C_8  and  N_51
REMARK    4  A    between atoms: C_16  and  C_19
REMARK    5  A    between atoms: C_16  and  O_27
REMARK    6  A    between atoms: C_19  and  C_20
REMARK    7  A    between atoms: C_20  and  C_22
REMARK                            x       y       z     vdW  Elec       q    Type
REMARK                         _______ _______ _______ _____ _____    ______ ____
ROOT
ATOM      1  N   UNL     1       3.706   6.109  -2.105  0.00  0.00    -0.285 N 
ATOM      2  C   UNL     1       5.061   6.160  -1.777  0.00  0.00    +0.041 A 
ATOM      3  C   UNL     1       6.095   6.941  -2.291  0.00  0.00    +0.024 A 
ATOM      4  C   UNL     1       7.375   6.808  -1.795  0.00  0.00    +0.002 A 
ATOM      5  C   UNL     1       7.644   5.901  -0.787  0.00  0.00    +0.000 A 
ATOM      6  C   UNL     1       6.623   5.122  -0.271  0.00  0.00    +0.009 A 
ATOM      7  C   UNL     1       5.344   5.252  -0.764  0.00  0.00    +0.014 A 
ATOM      8  C   UNL     1       4.038   4.570  -0.428  0.00  0.00    +0.175 C 
ATOM      9  C   UNL     1       3.034   5.208  -1.364  0.00  0.00    +0.255 C 
ATOM     10  O   UNL     1       1.850   4.954  -1.432  0.00  0.00    -0.272 OA
ENDROOT
BRANCH   8  11
ATOM     11  O   UNL     1       3.681   4.816   0.933  0.00  0.00    -0.374 OA
ATOM     12  H   UNL     1       2.836   4.425   1.195  0.00  0.00    +0.211 HD
ENDBRANCH   8  11
BRANCH   1  13
ATOM     13  C   UNL     1       3.084   6.942  -3.138  0.00  0.00    +0.039 C 
BRANCH  13  20
ATOM     14  C   UNL     1       4.339   8.183  -5.329  0.00  0.00    -0.013 C 
ATOM     15  C   UNL     1       3.183   7.203  -5.542  0.00  0.00    -0.070 C 
ATOM     16  C   UNL     1       3.389   6.450  -6.858  0.00  0.00    -0.016 C 
ATOM     17  C   UNL     1       2.241   5.457  -7.057  0.00  0.00    -0.003 C 
ATOM     18  C   UNL     1       2.190   4.501  -5.862  0.00  0.00    -0.019 C 
ATOM     19  C   UNL     1       2.018   5.311  -4.574  0.00  0.00    -0.076 C 
ATOM     20  N   UNL     1       3.167   6.230  -4.429  0.00  0.00    +0.392 N 
ATOM     21  H   UNL     1       4.036   5.683  -4.453  0.00  0.00    -0.079 HD
ENDBRANCH  13  20
ENDBRANCH   1  13
BRANCH   8  22
ATOM     22  C   UNL     1       4.137   3.066  -0.692  0.00  0.00    +0.129 C 
BRANCH  22  23
ATOM     23  C   UNL     1       2.780   2.435  -0.512  0.00  0.00    +0.173 C 
ATOM     24  O   UNL     1       1.827   3.121  -0.203  0.00  0.00    -0.291 OA
BRANCH  23  25
ATOM     25  C   UNL     1       2.617   1.045  -0.703  0.00  0.00    +0.055 A 
ATOM     26  C   UNL     1       1.465   0.273  -0.589  0.00  0.00    +0.019 A 
ATOM     27  C   UNL     1       1.588  -1.069  -0.832  0.00  0.00    +0.008 A 
ATOM     28  C   UNL     1       2.806  -1.575  -1.167  0.00  0.00    +0.046 A 
ATOM     29  S   UNL     1       3.834  -0.179  -1.154  0.00  0.00    -0.094 S 
ENDBRANCH  23  25
ENDBRANCH  22  23
ENDBRANCH   8  22
TORSDOF 6
