REMARK  Name = ZINC39969615
REMARK  8 active torsions:
REMARK  status: ('A' for Active; 'I' for Inactive)
REMARK    1  A    between atoms: C_1  and  C_2
REMARK    2  A    between atoms: C_2  and  C_4
REMARK    3  A    between atoms: C_2  and  N_26
REMARK    4  A    between atoms: C_8  and  S_12
REMARK    5  A    between atoms: N_10  and  C_11
REMARK    6  A    between atoms: S_12  and  C_13
REMARK    7  A    between atoms: C_13  and  C_14
REMARK    8  A    between atoms: C_27  and  C_29
REMARK                            x       y       z     vdW  Elec       q    Type
REMARK                         _______ _______ _______ _____ _____    ______ ____
ROOT
ATOM      1  C   UNL     1       0.618  -0.190   1.337  0.00  0.00    +0.160 C 
ATOM      2  N   UNL     1       0.708  -1.671   1.237  0.00  0.00    -0.236 NA
ATOM      3  N   UNL     1       1.842  -1.994   2.117  0.00  0.00    -0.229 NA
ATOM      4  C   UNL     1       2.809  -0.895   1.893  0.00  0.00    +0.200 C 
ATOM      5  N   UNL     1       2.027   0.260   1.398  0.00  0.00    -0.263 NA
ATOM      6  C   UNL     1       2.502   0.688   0.075  0.00  0.00    +0.109 C 
ATOM      7  H   UNL     1      -0.140  -2.107   1.565  0.00  0.00    +0.142 HD
ATOM      8  H   UNL     1       2.246  -2.886   1.874  0.00  0.00    +0.143 HD
ENDROOT
BRANCH   1  10
ATOM      9  C   UNL     1      -1.568   0.055   0.151  0.00  0.00    +0.031 C 
ATOM     10  C   UNL     1      -0.075   0.388   0.101  0.00  0.00    +0.103 C 
BRANCH  10  11
ATOM     11  N   UNL     1       0.515  -0.194  -1.107  0.00  0.00    -0.306 N 
ATOM     12  C   UNL     1       0.458   0.477  -2.275  0.00  0.00    +0.247 C 
ATOM     13  O   UNL     1      -0.083   1.564  -2.326  0.00  0.00    -0.270 OA
ATOM     14  H   UNL     1       0.947  -1.062  -1.066  0.00  0.00    +0.149 HD
BRANCH  12  15
ATOM     15  C   UNL     1       1.054  -0.110  -3.493  0.00  0.00    +0.072 A 
ATOM     16  C   UNL     1       1.671  -1.362  -3.439  0.00  0.00    +0.016 A 
ATOM     17  C   UNL     1       2.224  -1.904  -4.580  0.00  0.00    +0.001 A 
ATOM     18  C   UNL     1       2.170  -1.211  -5.777  0.00  0.00    +0.003 A 
ATOM     19  C   UNL     1       1.562   0.028  -5.840  0.00  0.00    +0.039 A 
ATOM     20  C   UNL     1       0.997   0.583  -4.706  0.00  0.00    +0.135 A 
ATOM     21  F   UNL     1       0.398   1.792  -4.769  0.00  0.00    -0.205 F 
ENDBRANCH  12  15
ENDBRANCH  10  11
ENDBRANCH   1  10
BRANCH   4  22
ATOM     22  S   UNL     1       3.632  -0.464   3.451  0.00  0.00    -0.117 S 
BRANCH  22  23
ATOM     23  C   UNL     1       2.269   0.000   4.554  0.00  0.00    +0.146 C 
BRANCH  23  24
ATOM     24  C   UNL     1       2.822   0.386   5.902  0.00  0.00    +0.120 A 
ATOM     25  N   UNL     1       1.950   0.762   6.873  0.00  0.00    -0.310 N 
ATOM     26  H   UNL     1       0.998   0.775   6.685  0.00  0.00    +0.170 HD
ATOM     27  C   UNL     1       2.396   1.117   8.101  0.00  0.00    +0.259 A 
ATOM     28  O   UNL     1       1.626   1.455   8.980  0.00  0.00    -0.267 OA
ATOM     29  C   UNL     1       3.848   1.078   8.330  0.00  0.00    +0.065 A 
ATOM     30  C   UNL     1       4.410   1.424   9.557  0.00  0.00    +0.015 A 
ATOM     31  C   UNL     1       5.777   1.370   9.717  0.00  0.00    +0.001 A 
ATOM     32  C   UNL     1       6.596   0.974   8.668  0.00  0.00    +0.002 A 
ATOM     33  C   UNL     1       6.061   0.628   7.448  0.00  0.00    +0.028 A 
ATOM     34  C   UNL     1       4.678   0.674   7.261  0.00  0.00    +0.078 A 
ATOM     35  N   UNL     1       4.108   0.336   6.077  0.00  0.00    -0.233 NA
ENDBRANCH  23  24
ENDBRANCH  22  23
ENDBRANCH   4  22
TORSDOF 6
