REMARK  Name = ZINC22062061
REMARK  13 active torsions:
REMARK  status: ('A' for Active; 'I' for Inactive)
REMARK    1  A    between atoms: C_1  and  N_2
REMARK    2  A    between atoms: N_2  and  C_3
REMARK    3  A    between atoms: N_2  and  C_6
REMARK    4  A    between atoms: C_3  and  C_4
REMARK    5  A    between atoms: C_4  and  S_5
REMARK    6  A    between atoms: C_12  and  O_30
REMARK    7  A    between atoms: C_13  and  O_28
REMARK    8  A    between atoms: C_14  and  O_26
REMARK    9  A    between atoms: C_21  and  O_24
REMARK   10  A    between atoms: O_24  and  C_25
REMARK   11  A    between atoms: O_26  and  C_27
REMARK   12  A    between atoms: O_28  and  C_29
REMARK   13  A    between atoms: O_30  and  C_31
REMARK                            x       y       z     vdW  Elec       q    Type
REMARK                         _______ _______ _______ _____ _____    ______ ____
ROOT
ATOM      1  C   UNL     1       2.133   0.692  -0.062  0.00  0.00    -0.037 C 
ATOM      2  C   UNL     1       2.891   0.521  -1.362  0.00  0.00    -0.006 C 
ATOM      3  C   UNL     1       2.824   1.790  -2.208  0.00  0.00    +0.035 C 
ATOM      4  C   UNL     1       3.065   2.994  -1.334  0.00  0.00    -0.033 A 
ATOM      5  C   UNL     1       4.279   3.648  -1.377  0.00  0.00    +0.054 A 
ATOM      6  C   UNL     1       4.492   4.771  -0.588  0.00  0.00    +0.165 A 
ATOM      7  C   UNL     1       3.487   5.244   0.249  0.00  0.00    +0.204 A 
ATOM      8  C   UNL     1       2.264   4.587   0.301  0.00  0.00    +0.173 A 
ATOM      9  C   UNL     1       2.057   3.456  -0.493  0.00  0.00    +0.031 A 
ATOM     10  C   UNL     1       0.747   2.741  -0.434  0.00  0.00    -0.012 A 
ATOM     11  C   UNL     1       0.788   1.355  -0.281  0.00  0.00    -0.049 A 
ATOM     12  C   UNL     1      -0.281   0.540  -0.300  0.00  0.00    +0.057 A 
ATOM     13  C   UNL     1      -1.621   0.769  -0.433  0.00  0.00    +0.220 A 
ATOM     14  O   UNL     1      -2.330  -0.229  -0.466  0.00  0.00    -0.284 OA
ATOM     15  C   UNL     1      -2.287   1.986  -0.530  0.00  0.00    +0.167 A 
ATOM     16  C   UNL     1      -1.694   3.209  -0.578  0.00  0.00    +0.050 A 
ATOM     17  C   UNL     1      -0.382   3.511  -0.546  0.00  0.00    +0.012 A 
ENDROOT
BRANCH   1  19
ATOM     18  C   UNL     1       1.394  -0.499   1.913  0.00  0.00    -0.095 C 
ATOM     19  N   UNL     1       1.923  -0.628   0.548  0.00  0.00    +0.383 N 
ATOM     20  H   UNL     1       1.175  -1.164  -0.055  0.00  0.00    -0.081 HD
BRANCH  19  21
ATOM     21  C   UNL     1       3.162  -1.417   0.536  0.00  0.00    -0.068 C 
BRANCH  21  22
ATOM     22  C   UNL     1       2.853  -2.859   0.944  0.00  0.00    +0.047 C 
BRANCH  22  23
ATOM     23  S   UNL     1       4.383  -3.833   0.929  0.00  0.00    -0.180 S 
ATOM     24  H   UNL     1       4.359  -4.899   1.196  0.00  0.00    +0.102 HD
ENDBRANCH  22  23
ENDBRANCH  21  22
ENDBRANCH  19  21
ENDBRANCH   1  19
BRANCH  15  25
ATOM     25  O   UNL     1      -3.641   1.950  -0.586  0.00  0.00    -0.491 OA
ATOM     26  C   UNL     1      -4.319   3.204  -0.691  0.00  0.00    +0.277 C 
ENDBRANCH  15  25
BRANCH   8  27
ATOM     27  O   UNL     1       1.277   5.042   1.117  0.00  0.00    -0.491 OA
ATOM     28  C   UNL     1       1.242   4.519   2.446  0.00  0.00    +0.277 C 
ENDBRANCH   8  27
BRANCH   7  29
ATOM     29  O   UNL     1       3.701   6.347   1.016  0.00  0.00    -0.488 OA
ATOM     30  C   UNL     1       3.368   7.612   0.442  0.00  0.00    +0.277 C 
ENDBRANCH   7  29
BRANCH   6  31
ATOM     31  O   UNL     1       5.690   5.412  -0.633  0.00  0.00    -0.491 OA
ATOM     32  C   UNL     1       6.680   4.875  -1.513  0.00  0.00    +0.277 C 
ENDBRANCH   6  31
TORSDOF 8
