REMARK  Name = ZINC37606830
REMARK  5 active torsions:
REMARK  status: ('A' for Active; 'I' for Inactive)
REMARK    1  A    between atoms: C_1  and  C_2
REMARK    2  A    between atoms: C_2  and  C_3
REMARK    3  A    between atoms: C_2  and  C_4
REMARK    4  A    between atoms: C_2  and  N_5
REMARK    5  A    between atoms: N_9  and  C_12
REMARK                            x       y       z     vdW  Elec       q    Type
REMARK                         _______ _______ _______ _____ _____    ______ ____
ROOT
ATOM      1  N   UNL     1       0.688  -0.476  -1.203  0.00  0.00    -0.219 N 
ATOM      2  C   UNL     1       0.116  -1.252  -2.145  0.00  0.00    +0.241 C 
ATOM      3  O   UNL     1      -1.021  -1.675  -2.154  0.00  0.00    -0.273 OA
ATOM      4  C   UNL     1       1.188  -1.486  -3.191  0.00  0.00    +0.211 C 
ATOM      5  N   UNL     1       2.349  -0.745  -2.668  0.00  0.00    -0.246 N 
ATOM      6  C   UNL     1       1.958  -0.186  -1.508  0.00  0.00    +0.316 C 
ATOM      7  O   UNL     1       2.679   0.502  -0.813  0.00  0.00    -0.252 OA
ENDROOT
BRANCH   5   8
ATOM      8  C   UNL     1       3.611  -0.639  -3.264  0.00  0.00    +0.038 A 
ATOM      9  C   UNL     1       3.863  -1.268  -4.476  0.00  0.00    +0.025 A 
ATOM     10  C   UNL     1       5.109  -1.163  -5.061  0.00  0.00    +0.022 A 
ATOM     11  C   UNL     1       6.106  -0.431  -4.441  0.00  0.00    +0.041 A 
ATOM     12  C   UNL     1       5.858   0.197  -3.233  0.00  0.00    +0.022 A 
ATOM     13  C   UNL     1       4.612   0.099  -2.646  0.00  0.00    +0.025 A 
ATOM     14 CL   UNL     1       7.672  -0.300  -5.180  0.00  0.00    -0.084 Cl
ENDBRANCH   5   8
BRANCH   1  16
ATOM     15  C   UNL     1      -0.019   1.526   0.010  0.00  0.00    +0.032 C 
ATOM     16  C   UNL     1       0.002  -0.004   0.002  0.00  0.00    +0.038 C 
ATOM     17  C   UNL     1       0.742  -0.511   1.242  0.00  0.00    +0.032 C 
ATOM     18  C   UNL     1      -1.433  -0.534   0.013  0.00  0.00    +0.032 C 
ENDBRANCH   1  16
TORSDOF 2
