REMARK  Name = ZINC05927847
REMARK  5 active torsions:
REMARK  status: ('A' for Active; 'I' for Inactive)
REMARK    1  A    between atoms: C_1  and  C_2
REMARK    2  A    between atoms: C_10  and  S_12
REMARK    3  A    between atoms: S_12  and  C_13
REMARK    4  A    between atoms: C_13  and  C_14
REMARK    5  A    between atoms: C_20  and  C_25
REMARK                            x       y       z     vdW  Elec       q    Type
REMARK                         _______ _______ _______ _____ _____    ______ ____
ROOT
ATOM      1  C   UNL     1      -3.729   5.843   0.066  0.00  0.00    +0.133 C 
ENDROOT
BRANCH   1   2
ATOM      2  C   UNL     1      -2.400   5.132   0.051  0.00  0.00    +0.059 A 
ATOM      3  C   UNL     1      -1.227   5.862   0.044  0.00  0.00    +0.094 A 
ATOM      4  C   UNL     1      -0.005   5.179   0.030  0.00  0.00    +0.259 A 
ATOM      5  O   UNL     1       1.049   5.794   0.024  0.00  0.00    -0.267 OA
ATOM      6  N   UNL     1      -0.011   3.829   0.023  0.00  0.00    -0.268 N 
ATOM      7  C   UNL     1       1.169   3.150   0.008  0.00  0.00    +0.099 A 
ATOM      8  C   UNL     1       1.189   1.798   0.000  0.00  0.00    -0.034 A 
ATOM      9  C   UNL     1      -0.013   1.076   0.008  0.00  0.00    +0.008 A 
ATOM     10  C   UNL     1      -1.199   1.746   0.017  0.00  0.00    +0.047 A 
ATOM     11  C   UNL     1      -1.199   3.152   0.030  0.00  0.00    +0.141 A 
ATOM     12  N   UNL     1      -2.358   3.809   0.043  0.00  0.00    -0.233 NA
ATOM     13  C   UNL     1       2.506   1.065  -0.016  0.00  0.00    +0.045 C 
ENDBRANCH   1   2
BRANCH   1  14
ATOM     14  S   UNL     1      -4.483   5.747  -1.577  0.00  0.00    -0.082 S 
BRANCH  14  24
ATOM     15  C   UNL     1     -11.283   9.364  -1.568  0.00  0.00    +0.044 C 
ATOM     16  C   UNL     1      -9.962   8.800  -1.112  0.00  0.00    -0.048 A 
ATOM     17  C   UNL     1      -9.553   8.981   0.201  0.00  0.00    +0.005 A 
ATOM     18  C   UNL     1      -8.349   8.472   0.634  0.00  0.00    +0.030 A 
ATOM     19  C   UNL     1      -7.533   7.769  -0.255  0.00  0.00    +0.090 A 
ATOM     20  C   UNL     1      -7.952   7.589  -1.584  0.00  0.00    +0.067 A 
ATOM     21  C   UNL     1      -9.168   8.109  -2.003  0.00  0.00    +0.031 A 
ATOM     22  N   UNL     1      -6.949   6.867  -2.211  0.00  0.00    -0.333 N 
ATOM     23  H   UNL     1      -6.939   6.572  -3.166  0.00  0.00    +0.168 HD
ATOM     24  C   UNL     1      -5.978   6.632  -1.279  0.00  0.00    +0.168 A 
ATOM     25  N   UNL     1      -6.326   7.158  -0.131  0.00  0.00    -0.222 NA
ENDBRANCH  14  24
ENDBRANCH   1  14
TORSDOF 3
