REMARK  Name = ZINC57101976
REMARK  5 active torsions:
REMARK  status: ('A' for Active; 'I' for Inactive)
REMARK    1  A    between atoms: C_6  and  N_7
REMARK    2  A    between atoms: C_10  and  C_13
REMARK    3  A    between atoms: C_13  and  N_14
REMARK    4  A    between atoms: N_14  and  S_15
REMARK    5  A    between atoms: S_15  and  C_18
REMARK                            x       y       z     vdW  Elec       q    Type
REMARK                         _______ _______ _______ _____ _____    ______ ____
ROOT
ATOM      1  N   UNL     1      -4.549  -4.005  -0.911  0.00  0.00    -0.190 NA
ATOM      2  H   UNL     1      -5.118  -3.619  -0.227  0.00  0.00    +0.148 HD
ENDROOT
BRANCH   1   3
ATOM      3  S   UNL     1      -5.200  -4.991  -2.070  0.00  0.00    +0.058 S 
ATOM      4  O   UNL     1      -6.587  -5.097  -1.780  0.00  0.00    -0.153 OA
ATOM      5  O   UNL     1      -4.717  -4.521  -3.321  0.00  0.00    -0.153 OA
BRANCH   3   6
ATOM      6  C   UNL     1      -4.513  -6.596  -1.835  0.00  0.00    +0.107 A 
ATOM      7  C   UNL     1      -3.339  -6.945  -2.482  0.00  0.00    +0.030 A 
ATOM      8  C   UNL     1      -2.792  -8.200  -2.304  0.00  0.00    +0.030 A 
ATOM      9  C   UNL     1      -3.421  -9.116  -1.475  0.00  0.00    +0.067 A 
ATOM     10  C   UNL     1      -4.605  -8.765  -0.823  0.00  0.00    +0.069 A 
ATOM     11  C   UNL     1      -5.144  -7.500  -1.003  0.00  0.00    +0.056 A 
ATOM     12  N   UNL     1      -4.995  -9.871  -0.072  0.00  0.00    -0.306 N 
ATOM     13  H   UNL     1      -5.784  -9.927   0.490  0.00  0.00    +0.170 HD
ATOM     14  C   UNL     1      -4.090 -10.851  -0.258  0.00  0.00    +0.325 A 
ATOM     15  O   UNL     1      -4.134 -11.953   0.255  0.00  0.00    -0.247 OA
ATOM     16  N   UNL     1      -3.129 -10.425  -1.100  0.00  0.00    -0.306 N 
ATOM     17  H   UNL     1      -2.363 -10.942  -1.394  0.00  0.00    +0.170 HD
ENDBRANCH   3   6
ENDBRANCH   1   3
BRANCH   1  18
ATOM     18  C   UNL     1      -3.112  -3.715  -0.918  0.00  0.00    +0.111 C 
BRANCH  18  22
ATOM     19  N   UNL     1      -1.198  -0.721   0.010  0.00  0.00    -0.330 N 
ATOM     20  C   UNL     1      -2.550  -0.132   0.020  0.00  0.00    +0.105 C 
ATOM     21  C   UNL     1      -3.463  -1.226  -0.587  0.00  0.00    +0.025 C 
ATOM     22  C   UNL     1      -2.829  -2.518  -0.008  0.00  0.00    +0.023 C 
ATOM     23  C   UNL     1      -1.322  -2.186   0.004  0.00  0.00    +0.110 C 
BRANCH  19  29
ATOM     24  C   UNL     1      -0.017   1.385   0.010  0.00  0.00    +0.026 A 
ATOM     25  C   UNL     1       1.171   2.090   0.002  0.00  0.00    +0.040 A 
ATOM     26  C   UNL     1       2.379   1.414  -0.013  0.00  0.00    +0.124 A 
ATOM     27  C   UNL     1       2.400   0.030  -0.021  0.00  0.00    +0.040 A 
ATOM     28  C   UNL     1       1.215  -0.680  -0.014  0.00  0.00    +0.026 A 
ATOM     29  C   UNL     1       0.002  -0.004   0.002  0.00  0.00    +0.030 A 
ATOM     30  F   UNL     1       3.539   2.107  -0.020  0.00  0.00    -0.205 F 
ENDBRANCH  19  29
ENDBRANCH  18  22
ENDBRANCH   1  18
TORSDOF 5
