REMARK  Name = ZINC13275476
REMARK  5 active torsions:
REMARK  status: ('A' for Active; 'I' for Inactive)
REMARK    1  A    between atoms: C_3  and  C_21
REMARK    2  A    between atoms: C_4  and  N_8
REMARK    3  A    between atoms: C_9  and  C_11
REMARK    4  A    between atoms: C_11  and  O_12
REMARK    5  A    between atoms: O_12  and  C_13
REMARK                            x       y       z     vdW  Elec       q    Type
REMARK                         _______ _______ _______ _____ _____    ______ ____
ROOT
ATOM      1  N   UNL     1       0.017   1.343   0.013  0.00  0.00    -0.282 N 
ATOM      2  C   UNL     1      -0.052  -0.003   0.023  0.00  0.00    +0.255 C 
ATOM      3  O   UNL     1      -1.127  -0.554   0.131  0.00  0.00    -0.272 OA
ATOM      4  H   UNL     1       0.880   1.784   0.005  0.00  0.00    +0.155 HD
ENDROOT
BRANCH   1   8
ATOM      5  C   UNL     1      -3.484   3.614   0.001  0.00  0.00    +0.039 A 
ATOM      6  C   UNL     1      -2.324   4.163   0.501  0.00  0.00    +0.020 A 
ATOM      7  C   UNL     1      -1.145   3.412   0.510  0.00  0.00    +0.084 A 
ATOM      8  C   UNL     1      -1.152   2.100   0.008  0.00  0.00    +0.050 A 
ATOM      9  C   UNL     1      -2.327   1.565  -0.497  0.00  0.00    +0.062 A 
ATOM     10  C   UNL     1      -3.489   2.317  -0.495  0.00  0.00    +0.125 A 
ATOM     11  F   UNL     1      -4.632   1.789  -0.984  0.00  0.00    -0.205 F 
BRANCH   7  12
ATOM     12  C   UNL     1       0.098   3.994   1.044  0.00  0.00    +0.388 C 
ATOM     13  O   UNL     1       1.141   3.373   0.969  0.00  0.00    -0.241 OA
ATOM     14  O   UNL     1       0.080   5.214   1.616  0.00  0.00    -0.241 OA
ENDBRANCH   7  12
ENDBRANCH   1   8
BRANCH   2  15
ATOM     15  C   UNL     1       1.206  -0.823  -0.101  0.00  0.00    +0.325 C 
BRANCH  15  16
ATOM     16  O   UNL     1       0.874  -2.212  -0.065  0.00  0.00    -0.481 OA
BRANCH  16  17
ATOM     17  C   UNL     1       1.903  -3.095  -0.166  0.00  0.00    +0.141 A 
ATOM     18  C   UNL     1       3.204  -2.633  -0.302  0.00  0.00    +0.067 A 
ATOM     19  C   UNL     1       4.249  -3.533  -0.400  0.00  0.00    +0.045 A 
ATOM     20  C   UNL     1       3.997  -4.894  -0.372  0.00  0.00    +0.021 A 
ATOM     21  C   UNL     1       2.701  -5.356  -0.241  0.00  0.00    +0.025 A 
ATOM     22  C   UNL     1       1.653  -4.460  -0.138  0.00  0.00    +0.083 A 
ATOM     23 CL   UNL     1       0.026  -5.042   0.027  0.00  0.00    -0.080 Cl
ATOM     24 CL   UNL     1       5.878  -2.956  -0.565  0.00  0.00    -0.083 Cl
ENDBRANCH  16  17
ENDBRANCH  15  16
ENDBRANCH   2  15
TORSDOF 5
