REMARK  Name = ZINC04631752
REMARK  6 active torsions:
REMARK  status: ('A' for Active; 'I' for Inactive)
REMARK    1  A    between atoms: C_1  and  C_2
REMARK    2  A    between atoms: C_5  and  S_8
REMARK    3  A    between atoms: S_8  and  C_9
REMARK    4  A    between atoms: C_9  and  C_10
REMARK    5  A    between atoms: C_17  and  N_31
REMARK    6  A    between atoms: C_18  and  C_29
REMARK                            x       y       z     vdW  Elec       q    Type
REMARK                         _______ _______ _______ _____ _____    ______ ____
ROOT
ATOM      1  C   UNL     1       0.097  -6.482   1.870  0.00  0.00    +0.081 A 
ATOM      2  C   UNL     1      -1.016  -7.308   1.944  0.00  0.00    +0.062 A 
ATOM      3  C   UNL     1      -0.578  -8.600   2.059  0.00  0.00    +0.223 A 
ATOM      4  N   UNL     1       0.764  -8.573   2.058  0.00  0.00    -0.246 N 
ATOM      5  H   UNL     1       1.351  -9.343   2.128  0.00  0.00    +0.192 HD
ATOM      6  N   UNL     1       1.169  -7.235   1.933  0.00  0.00    -0.175 NA
ATOM      7  O   UNL     1      -1.426  -9.653   2.152  0.00  0.00    -0.423 OA
ATOM      8  C   UNL     1      -2.727  -9.445   1.862  0.00  0.00    +0.201 C 
ATOM      9  C   UNL     1      -3.280  -8.216   1.735  0.00  0.00    +0.110 C 
ATOM     10  C   UNL     1      -2.477  -6.957   1.912  0.00  0.00    +0.145 C 
ATOM     11  C   UNL     1      -2.885  -6.220   3.147  0.00  0.00    -0.002 A 
ATOM     12  C   UNL     1      -2.865  -6.580   4.477  0.00  0.00    +0.007 A 
ATOM     13  C   UNL     1      -3.323  -5.640   5.393  0.00  0.00    +0.000 A 
ATOM     14  C   UNL     1      -3.777  -4.402   4.986  0.00  0.00    +0.002 A 
ATOM     15  C   UNL     1      -3.801  -4.032   3.650  0.00  0.00    +0.023 A 
ATOM     16  C   UNL     1      -3.344  -4.967   2.720  0.00  0.00    +0.038 A 
ATOM     17  N   UNL     1      -3.259  -4.867   1.343  0.00  0.00    -0.284 N 
ATOM     18  C   UNL     1      -2.761  -5.990   0.784  0.00  0.00    +0.238 C 
ATOM     19  O   UNL     1      -2.577  -6.188  -0.399  0.00  0.00    -0.274 OA
ATOM     20  H   UNL     1      -3.525  -4.082   0.839  0.00  0.00    +0.155 HD
ENDROOT
BRANCH   8  21
ATOM     21  N   UNL     1      -3.534 -10.540   1.686  0.00  0.00    -0.328 N 
ATOM     22  H   UNL     1      -3.166 -11.434   1.770  0.00  0.00    +0.145 HD
ATOM     23  H   UNL     1      -4.474 -10.422   1.476  0.00  0.00    +0.145 HD
ENDBRANCH   8  21
BRANCH   9  24
ATOM     24  C   UNL     1      -4.673  -8.112   1.423  0.00  0.00    +0.102 C 
ATOM     25  N   UNL     1      -5.779  -8.029   1.175  0.00  0.00    -0.191 NA
ENDBRANCH   9  24
BRANCH   1  26
ATOM     26  C   UNL     1       0.077  -4.981   1.735  0.00  0.00    +0.132 C 
BRANCH  26  27
ATOM     27  S   UNL     1       0.062  -4.533  -0.023  0.00  0.00    -0.119 S 
BRANCH  27  32
ATOM     28  C   UNL     1      -0.018   1.503   0.010  0.00  0.00    +0.044 C 
ATOM     29  C   UNL     1       0.002  -0.004   0.002  0.00  0.00    -0.050 A 
ATOM     30  C   UNL     1       0.006  -0.687  -1.200  0.00  0.00    +0.004 A 
ATOM     31  C   UNL     1       0.024  -2.068  -1.212  0.00  0.00    +0.015 A 
ATOM     32  C   UNL     1       0.039  -2.771  -0.013  0.00  0.00    +0.008 A 
ATOM     33  C   UNL     1       0.036  -2.081   1.193  0.00  0.00    +0.015 A 
ATOM     34  C   UNL     1       0.023  -0.700   1.197  0.00  0.00    +0.004 A 
ENDBRANCH  27  32
ENDBRANCH  26  27
ENDBRANCH   1  26
TORSDOF 5
