REMARK  Name = ZINC05290112
REMARK  8 active torsions:
REMARK  status: ('A' for Active; 'I' for Inactive)
REMARK    1  A    between atoms: C_1  and  C_2
REMARK    2  A    between atoms: C_2  and  C_4
REMARK    3  A    between atoms: C_2  and  O_15
REMARK    4  A    between atoms: N_6  and  C_7
REMARK    5  A    between atoms: C_7  and  C_13
REMARK    6  A    between atoms: O_15  and  C_16
REMARK    7  A    between atoms: C_16  and  C_18
REMARK    8  A    between atoms: C_18  and  C_19
REMARK                            x       y       z     vdW  Elec       q    Type
REMARK                         _______ _______ _______ _____ _____    ______ ____
ROOT
ATOM      1  O   UNL     1       0.671  -0.465  -1.174  0.00  0.00    -0.452 OA
ENDROOT
BRANCH   1   3
ATOM      2  C   UNL     1      -0.019   1.526   0.010  0.00  0.00    +0.062 C 
ATOM      3  C   UNL     1       0.002  -0.004   0.002  0.00  0.00    +0.258 C 
BRANCH   3   4
ATOM      4  C   UNL     1       0.731  -0.503   1.223  0.00  0.00    +0.255 C 
ATOM      5  O   UNL     1       1.774  -1.109   1.101  0.00  0.00    -0.272 OA
ATOM      6  N   UNL     1       0.223  -0.277   2.451  0.00  0.00    -0.294 N 
ATOM      7  H   UNL     1      -0.611   0.208   2.548  0.00  0.00    +0.150 HD
BRANCH   6   8
ATOM      8  C   UNL     1       0.932  -0.762   3.638  0.00  0.00    +0.121 C 
ATOM      9  C   UNL     1       1.062  -2.285   3.567  0.00  0.00    +0.041 C 
ATOM     10  C   UNL     1       1.802  -2.791   4.806  0.00  0.00    +0.003 C 
ATOM     11  C   UNL     1       1.018  -2.404   6.062  0.00  0.00    +0.000 C 
ATOM     12  C   UNL     1       0.888  -0.881   6.133  0.00  0.00    +0.003 C 
ATOM     13  C   UNL     1       0.148  -0.374   4.893  0.00  0.00    +0.041 C 
BRANCH   8  14
ATOM     14  C   UNL     1       2.273  -0.157   3.690  0.00  0.00    +0.088 C 
ATOM     15  N   UNL     1       3.308   0.310   3.730  0.00  0.00    -0.194 NA
ENDBRANCH   8  14
ENDBRANCH   6   8
ENDBRANCH   3   4
ENDBRANCH   1   3
BRANCH   1  16
ATOM     16  C   UNL     1      -0.085  -0.672  -2.263  0.00  0.00    +0.309 C 
ATOM     17  O   UNL     1      -1.276  -0.469  -2.220  0.00  0.00    -0.251 OA
BRANCH  16  18
ATOM     18  C   UNL     1       0.551  -1.158  -3.540  0.00  0.00    +0.144 C 
BRANCH  18  19
ATOM     19  C   UNL     1      -0.524  -1.312  -4.619  0.00  0.00    +0.148 C 
ATOM     20  C   UNL     1       0.087  -1.903  -5.862  0.00  0.00    +0.231 C 
ATOM     21  O   UNL     1      -0.035  -3.095  -6.054  0.00  0.00    -0.274 OA
ATOM     22  N   UNL     1       0.754  -1.184  -6.758  0.00  0.00    -0.284 N 
ATOM     23  C   UNL     1       0.898   0.200  -6.772  0.00  0.00    +0.047 A 
ATOM     24  C   UNL     1       1.893   0.772  -7.558  0.00  0.00    +0.024 A 
ATOM     25  C   UNL     1       2.062   2.142  -7.581  0.00  0.00    +0.002 A 
ATOM     26  C   UNL     1       1.246   2.962  -6.824  0.00  0.00    +0.001 A 
ATOM     27  C   UNL     1       0.251   2.408  -6.040  0.00  0.00    +0.016 A 
ATOM     28  C   UNL     1       0.074   1.034  -6.017  0.00  0.00    +0.030 A 
ATOM     29  S   UNL     1      -1.214   0.320  -5.031  0.00  0.00    -0.110 S 
ATOM     30  H   UNL     1       1.185  -1.673  -7.477  0.00  0.00    +0.155 HD
ENDBRANCH  18  19
ENDBRANCH  16  18
ENDBRANCH   1  16
TORSDOF 7
