REMARK  Name = ZINC20647452
REMARK  7 active torsions:
REMARK  status: ('A' for Active; 'I' for Inactive)
REMARK    1  A    between atoms: C_1  and  C_2
REMARK    2  A    between atoms: C_2  and  C_35
REMARK    3  A    between atoms: C_6  and  C_28
REMARK    4  A    between atoms: C_9  and  C_10
REMARK    5  A    between atoms: C_18  and  C_20
REMARK    6  A    between atoms: C_23  and  O_26
REMARK    7  A    between atoms: O_26  and  C_27
REMARK                            x       y       z     vdW  Elec       q    Type
REMARK                         _______ _______ _______ _____ _____    ______ ____
ROOT
ATOM      1  C   UNL     1     -10.758   2.026   2.249  0.00  0.00    +0.041 C 
ATOM      2  C   UNL     1      -9.326   1.722   1.802  0.00  0.00    +0.068 C 
ATOM      3  C   UNL     1      -9.330   0.532   0.839  0.00  0.00    +0.071 C 
ATOM      4  C   UNL     1      -7.980   0.406   0.186  0.00  0.00    -0.016 A 
ATOM      5  C   UNL     1      -7.076   1.440   0.191  0.00  0.00    +0.012 A 
ATOM      6  C   UNL     1      -5.838   1.269  -0.443  0.00  0.00    +0.114 A 
ATOM      7  N   UNL     1      -5.530   0.125  -1.047  0.00  0.00    -0.227 NA
ATOM      8  C   UNL     1      -6.368  -0.896  -1.067  0.00  0.00    +0.140 A 
ATOM      9  C   UNL     1      -7.630  -0.794  -0.452  0.00  0.00    +0.095 A 
ATOM     10  N   UNL     1      -6.004  -2.072  -1.700  0.00  0.00    -0.311 N 
ATOM     11  C   UNL     1      -4.827  -2.674  -1.058  0.00  0.00    +0.125 C 
ATOM     12  C   UNL     1      -4.567  -4.055  -1.667  0.00  0.00    +0.127 C 
ATOM     13  N   UNL     1      -4.473  -3.911  -3.128  0.00  0.00    -0.295 N 
ATOM     14  C   UNL     1      -5.552  -3.196  -3.828  0.00  0.00    +0.127 C 
ATOM     15  C   UNL     1      -5.773  -1.849  -3.133  0.00  0.00    +0.125 C 
ATOM     16  C   UNL     1      -3.427  -4.421  -3.808  0.00  0.00    +0.247 C 
ATOM     17  O   UNL     1      -2.600  -5.100  -3.230  0.00  0.00    -0.270 OA
ATOM     18  C   UNL     1      -7.383   2.749   0.868  0.00  0.00    +0.198 C 
ATOM     19  O   UNL     1      -8.784   2.858   1.119  0.00  0.00    -0.369 OA
ATOM     20  C   UNL     1      -8.466   1.392   3.023  0.00  0.00    +0.041 C 
ENDROOT
BRANCH  16  21
ATOM     21  C   UNL     1      -3.285  -4.154  -5.252  0.00  0.00    +0.037 A 
ATOM     22  C   UNL     1      -3.700  -2.930  -5.783  0.00  0.00    +0.016 A 
ATOM     23  C   UNL     1      -3.560  -2.683  -7.131  0.00  0.00    +0.046 A 
ATOM     24  C   UNL     1      -3.018  -3.654  -7.964  0.00  0.00    +0.120 A 
ATOM     25  C   UNL     1      -2.608  -4.875  -7.441  0.00  0.00    +0.046 A 
ATOM     26  C   UNL     1      -2.739  -5.128  -6.094  0.00  0.00    +0.016 A 
BRANCH  24  27
ATOM     27  O   UNL     1      -2.887  -3.409  -9.293  0.00  0.00    -0.495 OA
ATOM     28  C   UNL     1      -3.328  -2.134  -9.764  0.00  0.00    +0.277 C 
ENDBRANCH  24  27
ENDBRANCH  16  21
BRANCH   6  29
ATOM     29  C   UNL     1      -4.865   2.376  -0.446  0.00  0.00    +0.153 A 
ATOM     30  C   UNL     1      -3.511   2.251  -0.375  0.00  0.00    +0.051 A 
ATOM     31  C   UNL     1      -2.981   3.554  -0.414  0.00  0.00    +0.042 A 
ATOM     32  C   UNL     1      -4.025   4.404  -0.500  0.00  0.00    +0.196 A 
ATOM     33  O   UNL     1      -5.161   3.689  -0.515  0.00  0.00    -0.461 OA
ENDBRANCH   6  29
BRANCH   9  34
ATOM     34  C   UNL     1      -8.542  -1.898  -0.477  0.00  0.00    +0.103 C 
ATOM     35  N   UNL     1      -9.265  -2.773  -0.497  0.00  0.00    -0.191 NA
ENDBRANCH   9  34
TORSDOF 4
