REMARK  Name = ZINC00053448
REMARK  6 active torsions:
REMARK  status: ('A' for Active; 'I' for Inactive)
REMARK    1  A    between atoms: C_1  and  C_2
REMARK    2  A    between atoms: C_2  and  O_3
REMARK    3  A    between atoms: O_3  and  C_4
REMARK    4  A    between atoms: C_6  and  C_11
REMARK    5  A    between atoms: C_9  and  O_10
REMARK    6  A    between atoms: C_15  and  C_24
REMARK                            x       y       z     vdW  Elec       q    Type
REMARK                         _______ _______ _______ _____ _____    ______ ____
ROOT
ATOM      1  C   UNL     1       3.480   0.972  -0.027  0.00  0.00    +0.055 C 
ATOM      2  C   UNL     1       2.463   1.073  -0.920  0.00  0.00    +0.141 C 
ATOM      3  C   UNL     1       2.177   0.132  -2.001  0.00  0.00    +0.036 A 
ATOM      4  C   UNL     1       2.760  -1.062  -2.462  0.00  0.00    +0.033 A 
ATOM      5  C   UNL     1       2.221  -1.699  -3.527  0.00  0.00    +0.014 A 
ATOM      6  N   UNL     1       1.125  -1.212  -4.168  0.00  0.00    -0.352 N 
ATOM      7  H   UNL     1       0.767  -1.696  -4.928  0.00  0.00    +0.166 HD
ATOM      8  C   UNL     1       0.523  -0.072  -3.772  0.00  0.00    +0.099 A 
ATOM      9  S   UNL     1      -0.855   0.509  -4.604  0.00  0.00    -0.032 S 
ATOM     10  C   UNL     1       1.038   0.638  -2.667  0.00  0.00    +0.101 A 
ATOM     11  C   UNL     1       0.671   1.865  -1.971  0.00  0.00    +0.348 C 
ATOM     12  O   UNL     1      -0.263   2.591  -2.257  0.00  0.00    -0.244 OA
ATOM     13  O   UNL     1       1.540   2.065  -0.962  0.00  0.00    -0.422 OA
ATOM     14  C   UNL     1       2.851  -2.978  -4.015  0.00  0.00    +0.063 C 
ENDROOT
BRANCH   1  17
ATOM     15  C   UNL     1       6.392  -1.378   0.220  0.00  0.00    +0.162 A 
ATOM     16  C   UNL     1       5.661  -0.210   0.142  0.00  0.00    +0.057 A 
ATOM     17  C   UNL     1       4.264  -0.267   0.056  0.00  0.00    -0.018 A 
ATOM     18  C   UNL     1       3.618  -1.509   0.053  0.00  0.00    +0.012 A 
ATOM     19  C   UNL     1       4.356  -2.670   0.124  0.00  0.00    +0.050 A 
ATOM     20  C   UNL     1       5.741  -2.611   0.210  0.00  0.00    +0.158 A 
BRANCH  20  21
ATOM     21  O   UNL     1       6.464  -3.759   0.286  0.00  0.00    -0.503 OA
ATOM     22  H   UNL     1       6.617  -4.069   1.189  0.00  0.00    +0.292 HD
ENDBRANCH  20  21
BRANCH  15  23
ATOM     23  O   UNL     1       7.749  -1.327   0.304  0.00  0.00    -0.489 OA
BRANCH  23  25
ATOM     24  C   UNL     1       9.870  -0.173   0.408  0.00  0.00    +0.048 C 
ATOM     25  C   UNL     1       8.350  -0.030   0.308  0.00  0.00    +0.226 C 
ENDBRANCH  23  25
ENDBRANCH  15  23
ENDBRANCH   1  17
TORSDOF 4
