REMARK  Name = ZINC23350466
REMARK  7 active torsions:
REMARK  status: ('A' for Active; 'I' for Inactive)
REMARK    1  A    between atoms: C_5  and  N_8
REMARK    2  A    between atoms: C_9  and  C_11
REMARK    3  A    between atoms: C_11  and  S_12
REMARK    4  A    between atoms: S_12  and  C_13
REMARK    5  A    between atoms: C_16  and  C_22
REMARK    6  A    between atoms: N_17  and  C_18
REMARK    7  A    between atoms: C_18  and  C_19
REMARK                            x       y       z     vdW  Elec       q    Type
REMARK                         _______ _______ _______ _____ _____    ______ ____
ROOT
ATOM      1  S   UNL     1       3.363   7.617  -1.055  0.00  0.00    -0.077 S 
ENDROOT
BRANCH   1   2
ATOM      2  C   UNL     1       5.013   8.233  -1.105  0.00  0.00    +0.193 A 
ATOM      3  N   UNL     1       6.104   7.566  -0.810  0.00  0.00    -0.122 NA
ATOM      4  N   UNL     1       7.132   8.324  -0.956  0.00  0.00    -0.133 NA
ATOM      5  C   UNL     1       6.761   9.510  -1.348  0.00  0.00    +0.138 A 
ATOM      6  N   UNL     1       5.399   9.493  -1.463  0.00  0.00    -0.297 N 
BRANCH   5   7
ATOM      7  C   UNL     1       7.667  10.681  -1.630  0.00  0.00    +0.057 C 
ATOM      8  C   UNL     1       9.175  10.421  -1.641  0.00  0.00    +0.012 C 
ATOM      9  C   UNL     1       8.539  11.192  -0.481  0.00  0.00    +0.012 C 
ENDBRANCH   5   7
BRANCH   6  10
ATOM     10  C   UNL     1       4.532  10.598  -1.881  0.00  0.00    +0.221 C 
BRANCH  10  11
ATOM     11  C   UNL     1       4.120  11.398  -0.671  0.00  0.00    +0.230 C 
ATOM     12  O   UNL     1       4.511  11.076   0.430  0.00  0.00    -0.274 OA
ATOM     13  N   UNL     1       3.317  12.470  -0.815  0.00  0.00    -0.328 N 
ATOM     14  H   UNL     1       3.016  13.054   0.068  0.00  0.00    +0.145 HD
ATOM     15  H   UNL     1       2.962  12.762  -1.814  0.00  0.00    +0.145 HD
ENDBRANCH  10  11
ENDBRANCH   6  10
ENDBRANCH   1   2
BRANCH   1  16
ATOM     16  C   UNL     1       3.677   5.920  -0.510  0.00  0.00    +0.173 C 
BRANCH  16  18
ATOM     17  N   UNL     1       2.358   3.890  -0.001  0.00  0.00    -0.282 N 
ATOM     18  C   UNL     1       2.370   5.180  -0.393  0.00  0.00    +0.228 C 
ATOM     19  O   UNL     1       1.328   5.744  -0.653  0.00  0.00    -0.275 OA
ATOM     20  H   UNL     1       3.292   3.403   0.314  0.00  0.00    +0.155 HD
BRANCH  17  25
ATOM     21  C   UNL     1      -0.438   1.776  -1.120  0.00  0.00    +0.042 A 
ATOM     22  C   UNL     1      -1.223   1.755   0.019  0.00  0.00    +0.044 A 
ATOM     23  C   UNL     1      -0.818   2.433   1.155  0.00  0.00    +0.042 A 
ATOM     24  C   UNL     1       0.368   3.144   1.151  0.00  0.00    +0.065 A 
ATOM     25  C   UNL     1       1.156   3.171   0.007  0.00  0.00    +0.071 A 
ATOM     26  C   UNL     1       0.749   2.485  -1.130  0.00  0.00    +0.065 A 
ATOM     27 CL   UNL     1       1.729   2.517  -2.562  0.00  0.00    -0.082 Cl
ATOM     28 CL   UNL     1       0.874   3.999   2.575  0.00  0.00    -0.082 Cl
ATOM     29 CL   UNL     1      -2.717   0.870   0.026  0.00  0.00    -0.083 Cl
ENDBRANCH  17  25
ENDBRANCH  16  18
ENDBRANCH   1  16
TORSDOF 7
