REMARK  Name = ZINC39908845
REMARK  5 active torsions:
REMARK  status: ('A' for Active; 'I' for Inactive)
REMARK    1  A    between atoms: C_1  and  N_2
REMARK    2  A    between atoms: C_3  and  C_19
REMARK    3  A    between atoms: C_22  and  O_25
REMARK    4  A    between atoms: O_25  and  C_26
REMARK    5  A    between atoms: C_26  and  C_27
REMARK                            x       y       z     vdW  Elec       q    Type
REMARK                         _______ _______ _______ _____ _____    ______ ____
ROOT
ATOM      1  C   UNL     1      -0.018   1.461   0.010  0.00  0.00    +0.133 C 
ATOM      2  N   UNL     1       0.002  -0.004   0.002  0.00  0.00    -0.287 N 
ATOM      3  C   UNL     1      -1.177  -0.885   0.003  0.00  0.00    +0.144 C 
ATOM      4  C   UNL     1      -0.644  -2.280  -0.005  0.00  0.00    +0.072 A 
ATOM      5  C   UNL     1      -1.329  -3.577   0.001  0.00  0.00    +0.199 A 
ATOM      6  O   UNL     1      -2.530  -3.697  -0.162  0.00  0.00    -0.287 OA
ATOM      7  C   UNL     1      -0.419  -4.729   0.224  0.00  0.00    +0.066 A 
ATOM      8  C   UNL     1      -0.937  -6.003   0.455  0.00  0.00    +0.035 A 
ATOM      9  C   UNL     1      -0.077  -7.059   0.665  0.00  0.00    +0.042 A 
ATOM     10  C   UNL     1       1.296  -6.853   0.647  0.00  0.00    +0.023 A 
ATOM     11  C   UNL     1       1.818  -5.600   0.418  0.00  0.00    +0.048 A 
ATOM     12  C   UNL     1       0.969  -4.515   0.201  0.00  0.00    +0.140 A 
ATOM     13  O   UNL     1       1.509  -3.296  -0.032  0.00  0.00    -0.450 OA
ATOM     14  C   UNL     1       0.720  -2.204  -0.016  0.00  0.00    +0.199 A 
ATOM     15  C   UNL     1       1.104  -0.781  -0.013  0.00  0.00    +0.283 C 
ATOM     16  O   UNL     1       2.247  -0.369  -0.021  0.00  0.00    -0.267 OA
ATOM     17 CL   UNL     1      -0.712  -8.649   0.953  0.00  0.00    -0.084 Cl
ENDROOT
BRANCH   3  18
ATOM     18  C   UNL     1      -2.002  -0.649   1.242  0.00  0.00    -0.022 A 
ATOM     19  C   UNL     1      -1.376  -0.408   2.451  0.00  0.00    +0.009 A 
ATOM     20  C   UNL     1      -2.130  -0.193   3.589  0.00  0.00    +0.046 A 
ATOM     21  C   UNL     1      -3.515  -0.217   3.517  0.00  0.00    +0.121 A 
ATOM     22  C   UNL     1      -4.140  -0.459   2.302  0.00  0.00    +0.046 A 
ATOM     23  C   UNL     1      -3.382  -0.669   1.167  0.00  0.00    +0.009 A 
BRANCH  21  24
ATOM     24  O   UNL     1      -4.258  -0.006   4.635  0.00  0.00    -0.488 OA
BRANCH  24  25
ATOM     25  C   UNL     1      -5.679  -0.045   4.487  0.00  0.00    +0.256 C 
BRANCH  25  26
ATOM     26  C   UNL     1      -6.331   0.209   5.821  0.00  0.00    +0.006 C 
ATOM     27  C   UNL     1      -7.343   1.035   5.909  0.00  0.00    +0.007 C 
ENDBRANCH  25  26
ENDBRANCH  24  25
ENDBRANCH  21  24
ENDBRANCH   3  18
TORSDOF 4
