REMARK  Name = ZINC33045706
REMARK  2 active torsions:
REMARK  status: ('A' for Active; 'I' for Inactive)
REMARK    1  A    between atoms: C_1  and  C_2
REMARK    2  A    between atoms: N_15  and  N_16
REMARK                            x       y       z     vdW  Elec       q    Type
REMARK                         _______ _______ _______ _____ _____    ______ ____
ROOT
ATOM      1  C   UNL     1       1.548  -0.514  -6.471  0.00  0.00    +0.088 C 
ATOM      2  C   UNL     1       0.373   0.401  -6.239  0.00  0.00    +0.129 A 
ATOM      3  N   UNL     1       0.046   0.731  -5.003  0.00  0.00    -0.216 NA
ATOM      4  C   UNL     1      -0.978   1.525  -4.733  0.00  0.00    +0.150 A 
ATOM      5  C   UNL     1      -1.747   2.053  -5.808  0.00  0.00    +0.052 A 
ATOM      6  C   UNL     1      -2.907   2.944  -5.754  0.00  0.00    -0.025 A 
ATOM      7  C   UNL     1      -3.460   3.300  -6.931  0.00  0.00    -0.004 A 
ATOM      8  S   UNL     1      -2.486   2.483  -8.166  0.00  0.00    -0.073 S 
ATOM      9  C   UNL     1      -1.333   1.661  -7.097  0.00  0.00    +0.114 A 
ATOM     10  N   UNL     1      -0.302   0.859  -7.276  0.00  0.00    -0.225 NA
ATOM     11  C   UNL     1      -4.644   4.194  -7.144  0.00  0.00    +0.043 C 
ATOM     12  C   UNL     1      -5.375   4.356  -5.804  0.00  0.00    +0.005 C 
ATOM     13  C   UNL     1      -4.346   4.686  -4.719  0.00  0.00    +0.005 C 
ATOM     14  C   UNL     1      -3.479   3.458  -4.436  0.00  0.00    +0.037 C 
ATOM     15  N   UNL     1      -1.293   1.843  -3.424  0.00  0.00    -0.220 N 
ATOM     16  H   UNL     1      -2.344   1.972  -3.127  0.00  0.00    +0.176 HD
ENDROOT
BRANCH  15  17
ATOM     17  N   UNL     1      -0.273   1.998  -2.476  0.00  0.00    -0.185 NA
ATOM     18  C   UNL     1      -0.571   2.199  -1.229  0.00  0.00    +0.067 C 
ATOM     19  C   UNL     1       0.379   2.087  -0.061  0.00  0.00    +0.062 C 
ATOM     20  C   UNL     1      -0.459   2.422   1.180  0.00  0.00    +0.042 C 
ATOM     21  C   UNL     1      -1.857   2.712   0.682  0.00  0.00    -0.038 A 
ATOM     22  C   UNL     1      -1.897   2.578  -0.705  0.00  0.00    +0.001 A 
ATOM     23  C   UNL     1      -3.103   2.804  -1.383  0.00  0.00    +0.010 A 
ATOM     24  C   UNL     1      -4.235   3.153  -0.680  0.00  0.00    +0.001 A 
ATOM     25  C   UNL     1      -4.186   3.283   0.697  0.00  0.00    +0.000 A 
ATOM     26  C   UNL     1      -3.001   3.063   1.373  0.00  0.00    +0.004 A 
ENDBRANCH  15  17
TORSDOF 1
