REMARK  Name = ZINC63567343
REMARK  6 active torsions:
REMARK  status: ('A' for Active; 'I' for Inactive)
REMARK    1  A    between atoms: C_7  and  C_10
REMARK    2  A    between atoms: C_10  and  C_11
REMARK    3  A    between atoms: C_11  and  N_12
REMARK    4  A    between atoms: C_13  and  C_15
REMARK    5  A    between atoms: N_18  and  C_26
REMARK    6  A    between atoms: C_19  and  N_21
REMARK                            x       y       z     vdW  Elec       q    Type
REMARK                         _______ _______ _______ _____ _____    ______ ____
ROOT
ATOM      1  C   UNL     1      -1.694  -6.485  -2.622  0.00  0.00    +0.071 C 
ATOM      2  C   UNL     1      -2.127  -7.167  -3.699  0.00  0.00    +0.100 C 
ATOM      3  N   UNL     1      -2.968  -8.175  -3.351  0.00  0.00    -0.269 N 
ATOM      4  N   UNL     1      -3.148  -8.220  -1.963  0.00  0.00    -0.226 N 
ATOM      5  C   UNL     1      -2.328  -7.130  -1.408  0.00  0.00    +0.230 C 
ATOM      6  H   UNL     1      -3.388  -8.782  -3.980  0.00  0.00    +0.170 HD
ENDROOT
BRANCH   4   7
ATOM      7  C   UNL     1      -3.943  -9.121  -1.248  0.00  0.00    +0.050 A 
ATOM      8  C   UNL     1      -4.023  -9.031   0.136  0.00  0.00    +0.027 A 
ATOM      9  C   UNL     1      -4.808  -9.923   0.841  0.00  0.00    +0.040 A 
ATOM     10  C   UNL     1      -5.515 -10.906   0.169  0.00  0.00    +0.124 A 
ATOM     11  C   UNL     1      -5.436 -10.997  -1.211  0.00  0.00    +0.040 A 
ATOM     12  C   UNL     1      -4.657 -10.104  -1.920  0.00  0.00    +0.027 A 
ATOM     13  F   UNL     1      -6.282 -11.777   0.860  0.00  0.00    -0.205 F 
ENDBRANCH   4   7
BRANCH   5  14
ATOM     14  N   UNL     1      -3.173  -6.167  -0.698  0.00  0.00    -0.329 N 
ATOM     15  C   UNL     1      -4.433  -5.795  -1.063  0.00  0.00    +0.088 A 
ATOM     16  C   UNL     1      -4.883  -4.894  -0.166  0.00  0.00    +0.019 A 
ATOM     17  C   UNL     1      -3.863  -4.702   0.787  0.00  0.00    +0.019 A 
ATOM     18  C   UNL     1      -2.831  -5.498   0.440  0.00  0.00    +0.088 A 
ENDBRANCH   5  14
BRANCH   1  20
ATOM     19  N   UNL     1      -0.458  -4.798  -1.460  0.00  0.00    -0.311 N 
ATOM     20  C   UNL     1      -0.811  -5.380  -2.623  0.00  0.00    +0.245 C 
ATOM     21  O   UNL     1      -0.369  -4.955  -3.675  0.00  0.00    -0.270 OA
ATOM     22  H   UNL     1      -0.810  -5.136  -0.622  0.00  0.00    +0.149 HD
BRANCH  19  23
ATOM     23  C   UNL     1       0.457  -3.653  -1.462  0.00  0.00    +0.109 C 
BRANCH  23  24
ATOM     24  C   UNL     1       0.691  -3.186  -0.024  0.00  0.00    +0.052 C 
BRANCH  24  31
ATOM     25  C   UNL     1      -0.016   1.348   0.009  0.00  0.00    +0.001 A 
ATOM     26  C   UNL     1       1.166   2.101   0.002  0.00  0.00    +0.002 A 
ATOM     27  C   UNL     1       2.391   1.535  -0.013  0.00  0.00    +0.026 A 
ATOM     28  C   UNL     1       2.529   0.120  -0.022  0.00  0.00    +0.043 A 
ATOM     29  N   UNL     1       3.587  -0.654  -0.037  0.00  0.00    -0.380 N 
ATOM     30  C   UNL     1       3.143  -2.053  -0.041  0.00  0.00    +0.144 C 
ATOM     31  C   UNL     1       1.631  -2.008  -0.025  0.00  0.00    -0.040 C 
ATOM     32  C   UNL     1       1.295  -0.698  -0.014  0.00  0.00    -0.001 A 
ATOM     33  C   UNL     1       0.002  -0.004   0.002  0.00  0.00    +0.010 A 
ATOM     34  H   UNL     1       4.509  -0.353  -0.045  0.00  0.00    +0.160 HD
ENDBRANCH  24  31
ENDBRANCH  23  24
ENDBRANCH  19  23
ENDBRANCH   1  20
TORSDOF 6
