REMARK  Name = ZINC39691014
REMARK  10 active torsions:
REMARK  status: ('A' for Active; 'I' for Inactive)
REMARK    1  A    between atoms: C_1  and  C_2
REMARK    2  A    between atoms: C_2  and  C_3
REMARK    3  A    between atoms: C_2  and  C_4
REMARK    4  A    between atoms: C_4  and  C_6
REMARK    5  A    between atoms: C_4  and  O_26
REMARK    6  A    between atoms: C_10  and  C_19
REMARK    7  A    between atoms: N_21  and  C_22
REMARK    8  A    between atoms: C_22  and  C_23
REMARK    9  A    between atoms: C_23  and  C_25
REMARK   10  A    between atoms: O_26  and  C_27
REMARK                            x       y       z     vdW  Elec       q    Type
REMARK                         _______ _______ _______ _____ _____    ______ ____
ROOT
ATOM      1  C   UNL     1      -1.536  -1.955  -0.069  0.00  0.00    +0.257 C 
ATOM      2  O   UNL     1      -2.015  -2.582   0.852  0.00  0.00    -0.272 OA
ATOM      3  N   UNL     1      -1.029  -2.605  -1.135  0.00  0.00    -0.297 N 
ATOM      4  C   UNL     1      -0.481  -2.017  -2.381  0.00  0.00    +0.121 C 
ATOM      5  C   UNL     1       0.744  -2.895  -2.721  0.00  0.00    +0.100 C 
ATOM      6  C   UNL     1       0.468  -4.240  -2.028  0.00  0.00    -0.004 C 
ATOM      7  C   UNL     1      -0.886  -4.068  -1.325  0.00  0.00    +0.115 C 
ATOM      8  C   UNL     1       1.556  -4.538  -1.000  0.00  0.00    -0.010 C 
ATOM      9  C   UNL     1       1.290  -5.906  -0.366  0.00  0.00    -0.082 C 
ATOM     10  N   UNL     1       1.279  -6.938  -1.410  0.00  0.00    +0.379 N 
ATOM     11  C   UNL     1       0.172  -6.695  -2.343  0.00  0.00    -0.082 C 
ATOM     12  C   UNL     1       0.390  -5.360  -3.061  0.00  0.00    -0.010 C 
ATOM     13  H   UNL     1       2.153  -6.913  -1.914  0.00  0.00    -0.086 HD
ATOM     14  H   UNL     1       1.165  -7.845  -0.984  0.00  0.00    -0.086 HD
ENDROOT
BRANCH   5  15
ATOM     15  C   UNL     1       0.858  -3.083  -4.212  0.00  0.00    +0.218 C 
ATOM     16  O   UNL     1      -0.130  -2.998  -4.910  0.00  0.00    -0.275 OA
ATOM     17  N   UNL     1       2.057  -3.346  -4.768  0.00  0.00    -0.311 N 
ATOM     18  H   UNL     1       2.846  -3.414  -4.209  0.00  0.00    +0.149 HD
BRANCH  17  19
ATOM     19  C   UNL     1       2.167  -3.530  -6.218  0.00  0.00    +0.134 C 
BRANCH  19  20
ATOM     20  C   UNL     1       3.602  -3.810  -6.581  0.00  0.00    -0.063 C 
ATOM     21  C   UNL     1       4.016  -5.046  -6.708  0.00  0.00    +0.009 C 
ATOM     22  C   UNL     1       4.562  -2.668  -6.798  0.00  0.00    +0.040 C 
ENDBRANCH  19  20
ENDBRANCH  17  19
ENDBRANCH   5  15
BRANCH   1  23
ATOM     23  C   UNL     1      -1.509  -0.449  -0.021  0.00  0.00    +0.261 C 
BRANCH  23  25
ATOM     24  C   UNL     1      -0.022   1.559   0.007  0.00  0.00    +0.011 C 
ATOM     25  C   UNL     1      -0.060   0.031   0.090  0.00  0.00    +0.033 C 
ATOM     26  C   UNL     1       0.525  -0.421   1.429  0.00  0.00    +0.011 C 
ENDBRANCH  23  25
BRANCH  23  27
ATOM     27  O   UNL     1      -2.250   0.005   1.113  0.00  0.00    -0.479 OA
BRANCH  27  28
ATOM     28  C   UNL     1      -2.926   1.176   0.980  0.00  0.00    +0.122 A 
ATOM     29  C   UNL     1      -2.955   1.826  -0.246  0.00  0.00    +0.045 A 
ATOM     30  C   UNL     1      -3.644   3.016  -0.379  0.00  0.00    +0.004 A 
ATOM     31  C   UNL     1      -4.304   3.560   0.708  0.00  0.00    +0.000 A 
ATOM     32  C   UNL     1      -4.276   2.914   1.930  0.00  0.00    +0.004 A 
ATOM     33  C   UNL     1      -3.594   1.721   2.067  0.00  0.00    +0.045 A 
ENDBRANCH  27  28
ENDBRANCH  23  27
ENDBRANCH   1  23
TORSDOF 7
