REMARK  Name = ZINC14607481
REMARK  4 active torsions:
REMARK  status: ('A' for Active; 'I' for Inactive)
REMARK    1  A    between atoms: C_1  and  C_2
REMARK    2  A    between atoms: C_2  and  C_3
REMARK    3  A    between atoms: C_6  and  C_9
REMARK    4  A    between atoms: C_14  and  C_19
REMARK                            x       y       z     vdW  Elec       q    Type
REMARK                         _______ _______ _______ _____ _____    ______ ____
ROOT
ATOM      1  C   UNL     1      -2.716   2.949   4.763  0.00  0.00    +0.175 C 
ATOM      2  C   UNL     1      -3.398   4.267   4.470  0.00  0.00    +0.041 C 
ATOM      3  C   UNL     1      -2.925   5.440   4.942  0.00  0.00    +0.020 C 
ATOM      4  C   UNL     1      -3.630   6.741   4.638  0.00  0.00    +0.055 C 
ATOM      5  C   UNL     1      -4.313   6.649   3.272  0.00  0.00    -0.001 C 
ATOM      6  C   UNL     1      -5.300   5.477   3.304  0.00  0.00    +0.083 C 
ATOM      7  C   UNL     1      -4.558   4.224   3.675  0.00  0.00    +0.163 C 
ATOM      8  O   UNL     1      -4.968   3.151   3.280  0.00  0.00    -0.292 OA
ATOM      9  C   UNL     1      -5.066   7.949   2.984  0.00  0.00    +0.008 C 
ATOM     10  N   UNL     1      -1.793   5.505   5.720  0.00  0.00    -0.287 N 
ATOM     11  C   UNL     1      -1.315   4.327   6.271  0.00  0.00    +0.218 A 
ATOM     12  N   UNL     1      -1.745   3.117   5.837  0.00  0.00    -0.221 N 
ATOM     13  N   UNL     1      -1.082   2.161   6.605  0.00  0.00    -0.156 NA
ATOM     14  C   UNL     1      -0.306   2.815   7.434  0.00  0.00    +0.247 A 
ATOM     15  N   UNL     1      -0.450   4.128   7.227  0.00  0.00    -0.201 NA
ATOM     16  H   UNL     1      -1.343   6.349   5.878  0.00  0.00    +0.155 HD
ENDROOT
BRANCH   1  20
ATOM     17  C   UNL     1      -0.718   1.572   1.248  0.00  0.00    -0.048 A 
ATOM     18  C   UNL     1      -0.360   2.779   1.819  0.00  0.00    +0.004 A 
ATOM     19  C   UNL     1      -1.010   3.227   2.953  0.00  0.00    +0.006 A 
ATOM     20  C   UNL     1      -2.012   2.463   3.523  0.00  0.00    -0.018 A 
ATOM     21  C   UNL     1      -2.366   1.254   2.955  0.00  0.00    +0.006 A 
ATOM     22  C   UNL     1      -1.719   0.808   1.818  0.00  0.00    +0.004 A 
BRANCH  17  24
ATOM     23  C   UNL     1      -0.753   1.593  -1.232  0.00  0.00    +0.009 C 
ATOM     24  C   UNL     1      -0.013   1.086   0.008  0.00  0.00    +0.032 C 
ENDBRANCH  17  24
ENDBRANCH   1  20
TORSDOF 2
