REMARK  Name = ZINC09429637
REMARK  7 active torsions:
REMARK  status: ('A' for Active; 'I' for Inactive)
REMARK    1  A    between atoms: C_1  and  C_2
REMARK    2  A    between atoms: C_5  and  C_8
REMARK    3  A    between atoms: C_8  and  N_9
REMARK    4  A    between atoms: C_10  and  C_12
REMARK    5  A    between atoms: C_22  and  S_25
REMARK    6  A    between atoms: S_25  and  C_28
REMARK    7  A    between atoms: C_31  and  C_34
REMARK                            x       y       z     vdW  Elec       q    Type
REMARK                         _______ _______ _______ _____ _____    ______ ____
ROOT
ATOM      1  C   UNL     1       3.112  -6.543  -0.051  0.00  0.00    +0.039 A 
ATOM      2  C   UNL     1       4.161  -5.617  -0.046  0.00  0.00    +0.014 A 
ATOM      3  C   UNL     1       5.458  -6.043  -0.056  0.00  0.00    +0.014 A 
ATOM      4  C   UNL     1       5.742  -7.409  -0.070  0.00  0.00    +0.047 A 
ATOM      5  C   UNL     1       4.698  -8.349  -0.075  0.00  0.00    +0.054 A 
ATOM      6  C   UNL     1       3.379  -7.907  -0.060  0.00  0.00    +0.039 A 
ATOM      7  N   UNL     1       4.995  -9.696  -0.090  0.00  0.00    -0.320 N 
ATOM      8  H   UNL     1       4.270 -10.341  -0.094  0.00  0.00    +0.169 HD
ATOM      9  C   UNL     1       6.278 -10.140  -0.101  0.00  0.00    +0.278 A 
ATOM     10  O   UNL     1       6.507 -11.471  -0.117  0.00  0.00    -0.266 OA
ATOM     11  C   UNL     1       7.342  -9.290  -0.098  0.00  0.00    +0.204 A 
ATOM     12  C   UNL     1       7.134  -7.900  -0.082  0.00  0.00    +0.218 A 
ATOM     13  O   UNL     1       8.075  -7.123  -0.079  0.00  0.00    -0.285 OA
ENDROOT
BRANCH   1  15
ATOM     14  N   UNL     1       1.447  -4.746  -0.032  0.00  0.00    -0.307 N 
ATOM     15  C   UNL     1       1.710  -6.067  -0.040  0.00  0.00    +0.244 C 
ATOM     16  O   UNL     1       0.797  -6.869  -0.040  0.00  0.00    -0.270 OA
ATOM     17  H   UNL     1       2.176  -4.106  -0.032  0.00  0.00    +0.149 HD
BRANCH  14  18
ATOM     18  C   UNL     1       0.059  -4.275  -0.021  0.00  0.00    +0.139 C 
BRANCH  18  23
ATOM     19  C   UNL     1      -0.018   1.503   0.010  0.00  0.00    +0.044 C 
ATOM     20  C   UNL     1       0.002  -0.004   0.002  0.00  0.00    -0.050 A 
ATOM     21  C   UNL     1       0.006  -0.689  -1.199  0.00  0.00    +0.003 A 
ATOM     22  C   UNL     1       0.025  -2.071  -1.206  0.00  0.00    +0.005 A 
ATOM     23  C   UNL     1       0.040  -2.768  -0.013  0.00  0.00    -0.030 A 
ATOM     24  C   UNL     1       0.037  -2.084   1.188  0.00  0.00    +0.005 A 
ATOM     25  C   UNL     1       0.023  -0.702   1.195  0.00  0.00    +0.003 A 
ENDBRANCH  18  23
ENDBRANCH  14  18
ENDBRANCH   1  15
BRANCH  11  26
ATOM     26  S   UNL     1       8.982  -9.934  -0.112  0.00  0.00    +0.034 S 
ATOM     27  O   UNL     1       9.692  -9.258   0.917  0.00  0.00    -0.164 OA
ATOM     28  O   UNL     1       8.863 -11.349  -0.153  0.00  0.00    -0.164 OA
BRANCH  26  29
ATOM     29  C   UNL     1       9.720  -9.446  -1.636  0.00  0.00    +0.094 A 
ATOM     30  C   UNL     1       9.606 -10.257  -2.750  0.00  0.00    +0.027 A 
ATOM     31  C   UNL     1      10.185  -9.875  -3.945  0.00  0.00    +0.005 A 
ATOM     32  C   UNL     1      10.877  -8.681  -4.027  0.00  0.00    -0.050 A 
ATOM     33  C   UNL     1      10.991  -7.870  -2.914  0.00  0.00    +0.005 A 
ATOM     34  C   UNL     1      10.408  -8.250  -1.720  0.00  0.00    +0.027 A 
ATOM     35  C   UNL     1      11.509  -8.265  -5.331  0.00  0.00    +0.044 C 
ENDBRANCH  26  29
ENDBRANCH  11  26
TORSDOF 5
