REMARK  Name = ZINC39676882
REMARK  10 active torsions:
REMARK  status: ('A' for Active; 'I' for Inactive)
REMARK    1  A    between atoms: C_1  and  C_2
REMARK    2  A    between atoms: C_5  and  C_36
REMARK    3  A    between atoms: C_6  and  C_8
REMARK    4  A    between atoms: C_8  and  C_9
REMARK    5  A    between atoms: C_9  and  N_10
REMARK    6  A    between atoms: C_11  and  C_13
REMARK    7  A    between atoms: C_24  and  C_26
REMARK    8  A    between atoms: C_31  and  O_32
REMARK    9  A    between atoms: O_32  and  C_33
REMARK   10  A    between atoms: C_33  and  C_35
REMARK                            x       y       z     vdW  Elec       q    Type
REMARK                         _______ _______ _______ _____ _____    ______ ____
ROOT
ATOM      1  C   UNL     1       2.749  -5.567   6.089  0.00  0.00    +0.100 C 
ATOM      2  C   UNL     1       2.260  -4.516   7.110  0.00  0.00    +0.121 C 
ATOM      3  N   UNL     1       3.139  -4.701   8.289  0.00  0.00    -0.296 N 
ATOM      4  C   UNL     1       4.480  -4.960   7.711  0.00  0.00    +0.115 C 
ATOM      5  C   UNL     1       4.207  -5.855   6.486  0.00  0.00    -0.004 C 
ATOM      6  C   UNL     1       5.148  -5.488   5.344  0.00  0.00    -0.010 C 
ATOM      7  C   UNL     1       6.586  -5.838   5.740  0.00  0.00    -0.082 C 
ATOM      8  N   UNL     1       6.678  -7.273   6.035  0.00  0.00    +0.379 N 
ATOM      9  C   UNL     1       5.840  -7.601   7.194  0.00  0.00    -0.082 C 
ATOM     10  C   UNL     1       4.372  -7.325   6.860  0.00  0.00    -0.010 C 
ATOM     11  C   UNL     1       2.797  -4.646   9.591  0.00  0.00    +0.250 C 
ATOM     12  O   UNL     1       3.656  -4.726  10.449  0.00  0.00    -0.270 OA
ATOM     13  H   UNL     1       6.364  -7.800   5.234  0.00  0.00    -0.086 HD
ATOM     14  H   UNL     1       7.638  -7.512   6.236  0.00  0.00    -0.086 HD
ENDROOT
BRANCH  11  15
ATOM     15  C   UNL     1       1.381  -4.490   9.976  0.00  0.00    +0.079 A 
ATOM     16  C   UNL     1       0.524  -3.710   9.197  0.00  0.00    +0.017 A 
ATOM     17  C   UNL     1      -0.797  -3.568   9.562  0.00  0.00    +0.001 A 
ATOM     18  C   UNL     1      -1.280  -4.195  10.699  0.00  0.00    +0.004 A 
ATOM     19  C   UNL     1      -0.443  -4.969  11.478  0.00  0.00    +0.047 A 
ATOM     20  C   UNL     1       0.888  -5.127  11.123  0.00  0.00    +0.144 A 
BRANCH  20  21
ATOM     21  O   UNL     1       1.711  -5.892  11.884  0.00  0.00    -0.425 OA
BRANCH  21  22
ATOM     22  C   UNL     1       1.857  -7.185  11.553  0.00  0.00    +0.309 C 
ATOM     23  O   UNL     1       1.337  -7.614  10.550  0.00  0.00    -0.251 OA
ATOM     24  C   UNL     1       2.667  -8.102  12.432  0.00  0.00    +0.136 C 
ENDBRANCH  21  22
ENDBRANCH  20  21
ENDBRANCH  11  15
BRANCH   1  26
ATOM     25  N   UNL     1       2.601  -5.843   3.635  0.00  0.00    -0.315 N 
ATOM     26  C   UNL     1       2.687  -5.009   4.691  0.00  0.00    +0.218 C 
ATOM     27  O   UNL     1       2.714  -3.809   4.515  0.00  0.00    -0.275 OA
ATOM     28  H   UNL     1       2.580  -6.803   3.776  0.00  0.00    +0.149 HD
BRANCH  25  29
ATOM     29  C   UNL     1       2.541  -5.301   2.276  0.00  0.00    +0.109 C 
BRANCH  29  30
ATOM     30  C   UNL     1       2.448  -6.451   1.272  0.00  0.00    +0.054 C 
BRANCH  30  36
ATOM     31  C   UNL     1      -0.229  -4.975  -2.691  0.00  0.00    +0.044 C 
ATOM     32  C   UNL     1       1.105  -5.188  -2.023  0.00  0.00    -0.050 A 
ATOM     33  C   UNL     1       2.272  -4.871  -2.693  0.00  0.00    +0.003 A 
ATOM     34  C   UNL     1       3.496  -5.066  -2.081  0.00  0.00    +0.004 A 
ATOM     35  C   UNL     1       3.553  -5.577  -0.797  0.00  0.00    -0.047 A 
ATOM     36  C   UNL     1       2.386  -5.893  -0.127  0.00  0.00    -0.043 A 
ATOM     37  C   UNL     1       1.162  -5.694  -0.738  0.00  0.00    +0.007 A 
ATOM     38  C   UNL     1       4.887  -5.791  -0.130  0.00  0.00    +0.044 C 
ENDBRANCH  30  36
ENDBRANCH  29  30
ENDBRANCH  25  29
ENDBRANCH   1  26
TORSDOF 7
