REMARK  Name = ZINC04873165
REMARK  11 active torsions:
REMARK  status: ('A' for Active; 'I' for Inactive)
REMARK    1  A    between atoms: C_1  and  C_2
REMARK    2  A    between atoms: C_8  and  C_9
REMARK    3  A    between atoms: C_8  and  N_64
REMARK    4  A    between atoms: C_9  and  C_10
REMARK    5  A    between atoms: C_10  and  N_11
REMARK    6  A    between atoms: C_12  and  C_14
REMARK    7  A    between atoms: C_14  and  N_15
REMARK    8  A    between atoms: C_18  and  C_26
REMARK    9  A    between atoms: C_26  and  C_27
REMARK   10  A    between atoms: C_26  and  C_28
REMARK   11  A    between atoms: C_26  and  C_29
REMARK                            x       y       z     vdW  Elec       q    Type
REMARK                         _______ _______ _______ _____ _____    ______ ____
ROOT
ATOM      1  C   UNL     1       2.085   9.946   0.345  0.00  0.00    +0.209 C 
ENDROOT
BRANCH   1   2
ATOM      2  N   UNL     1       1.877  11.396   0.355  0.00  0.00    -0.257 N 
ATOM      3  C   UNL     1       1.853  12.120  -0.846  0.00  0.00    +0.079 A 
ATOM      4  C   UNL     1       1.705  11.471  -2.060  0.00  0.00    +0.031 A 
ATOM      5  C   UNL     1       1.686  12.203  -3.233  0.00  0.00    -0.040 A 
ATOM      6  C   UNL     1       1.813  13.580  -3.196  0.00  0.00    +0.008 A 
ATOM      7  C   UNL     1       1.949  14.232  -1.988  0.00  0.00    +0.048 A 
ATOM      8  C   UNL     1       1.976  13.507  -0.810  0.00  0.00    +0.143 A 
ATOM      9  O   UNL     1       2.124  14.134   0.388  0.00  0.00    -0.481 OA
ATOM     10  C   UNL     1       1.461  13.544   1.509  0.00  0.00    +0.325 C 
ATOM     11  C   UNL     1       1.711  12.057   1.521  0.00  0.00    +0.258 C 
ATOM     12  O   UNL     1       1.763  11.457   2.574  0.00  0.00    -0.271 OA
BRANCH   5  13
ATOM     13  C   UNL     1       1.524  11.499  -4.556  0.00  0.00    -0.013 C 
ATOM     14  C   UNL     1       0.196  10.739  -4.570  0.00  0.00    +0.015 C 
ATOM     15  C   UNL     1       1.534  12.530  -5.686  0.00  0.00    +0.015 C 
ATOM     16  C   UNL     1       2.678  10.514  -4.753  0.00  0.00    +0.015 C 
ENDBRANCH   5  13
ENDBRANCH   1   2
BRANCH   1  18
ATOM     17  N   UNL     1       0.697   7.902   0.232  0.00  0.00    -0.314 N 
ATOM     18  C   UNL     1       0.753   9.248   0.256  0.00  0.00    +0.231 C 
ATOM     19  O   UNL     1      -0.270   9.898   0.205  0.00  0.00    -0.274 OA
ATOM     20  H   UNL     1       1.516   7.382   0.273  0.00  0.00    +0.149 HD
BRANCH  17  21
ATOM     21  C   UNL     1      -0.598   7.223   0.145  0.00  0.00    +0.102 C 
BRANCH  21  22
ATOM     22  C   UNL     1      -0.381   5.708   0.135  0.00  0.00    +0.000 C 
BRANCH  22  23
ATOM     23  C   UNL     1      -1.734   5.000   0.044  0.00  0.00    -0.077 C 
BRANCH  23  30
ATOM     24  C   UNL     1      -1.542   3.608   2.482  0.00  0.00    -0.013 C 
ATOM     25  C   UNL     1      -0.804   3.109   1.238  0.00  0.00    -0.072 C 
ATOM     26  C   UNL     1      -0.732   1.581   1.266  0.00  0.00    -0.016 C 
ATOM     27  C   UNL     1      -0.013   1.086   0.008  0.00  0.00    -0.003 C 
ATOM     28  C   UNL     1      -0.756   1.594  -1.230  0.00  0.00    -0.019 C 
ATOM     29  C   UNL     1      -0.826   3.122  -1.185  0.00  0.00    -0.078 C 
ATOM     30  N   UNL     1      -1.552   3.533   0.035  0.00  0.00    +0.381 N 
ATOM     31  H   UNL     1      -2.475   3.083   0.041  0.00  0.00    -0.081 HD
ENDBRANCH  23  30
ENDBRANCH  22  23
ENDBRANCH  21  22
ENDBRANCH  17  21
ENDBRANCH   1  18
TORSDOF 7
