REMARK  Name = ZINC39359440
REMARK  7 active torsions:
REMARK  status: ('A' for Active; 'I' for Inactive)
REMARK    1  A    between atoms: C_1  and  C_2
REMARK    2  A    between atoms: C_4  and  C_29
REMARK    3  A    between atoms: C_9  and  C_14
REMARK    4  A    between atoms: C_17  and  O_22
REMARK    5  A    between atoms: C_18  and  O_20
REMARK    6  A    between atoms: O_20  and  C_21
REMARK    7  A    between atoms: O_22  and  C_23
REMARK                            x       y       z     vdW  Elec       q    Type
REMARK                         _______ _______ _______ _____ _____    ______ ____
ROOT
ATOM      1  C   UNL     1      -0.018   1.503   0.010  0.00  0.00    +0.067 C 
ATOM      2  C   UNL     1       0.002  -0.004   0.002  0.00  0.00    +0.064 C 
ATOM      3  C   UNL     1      -1.064  -0.767   0.003  0.00  0.00    +0.008 C 
ATOM      4  C   UNL     1      -2.532  -0.504   0.162  0.00  0.00    +0.085 C 
ATOM      5  C   UNL     1      -3.070  -1.552   1.124  0.00  0.00    +0.023 C 
ATOM      6  C   UNL     1      -2.342  -2.623   1.504  0.00  0.00    +0.014 C 
ATOM      7  C   UNL     1      -2.942  -3.657   2.436  0.00  0.00    +0.059 C 
ATOM      8  C   UNL     1      -3.920  -2.981   3.397  0.00  0.00    +0.032 C 
ATOM      9  C   UNL     1      -5.018  -2.305   2.569  0.00  0.00    +0.088 C 
ATOM     10  C   UNL     1      -4.375  -1.347   1.605  0.00  0.00    +0.162 C 
ATOM     11  O   UNL     1      -4.998  -0.373   1.232  0.00  0.00    -0.292 OA
ATOM     12  N   UNL     1      -1.048  -2.854   1.111  0.00  0.00    -0.321 N 
ATOM     13  C   UNL     1      -0.528  -2.198  -0.091  0.00  0.00    +0.241 C 
ATOM     14  N   UNL     1       0.921  -1.985  -0.031  0.00  0.00    -0.160 NA
ATOM     15  N   UNL     1       1.127  -0.764  -0.013  0.00  0.00    -0.157 NA
ATOM     16  H   UNL     1      -0.481  -3.449   1.626  0.00  0.00    +0.148 HD
ENDROOT
BRANCH   8  17
ATOM     17  C   UNL     1      -4.532  -4.014   4.308  0.00  0.00    -0.040 A 
ATOM     18  C   UNL     1      -5.257  -5.062   3.773  0.00  0.00    +0.008 A 
ATOM     19  C   UNL     1      -5.821  -6.012   4.604  0.00  0.00    +0.049 A 
ATOM     20  C   UNL     1      -5.659  -5.915   5.977  0.00  0.00    +0.161 A 
ATOM     21  C   UNL     1      -4.929  -4.859   6.515  0.00  0.00    +0.162 A 
ATOM     22  C   UNL     1      -4.363  -3.914   5.676  0.00  0.00    +0.053 A 
BRANCH  21  23
ATOM     23  O   UNL     1      -4.768  -4.760   7.862  0.00  0.00    -0.491 OA
ATOM     24  C   UNL     1      -4.006  -3.650   8.344  0.00  0.00    +0.277 C 
ENDBRANCH  21  23
BRANCH  20  25
ATOM     25  O   UNL     1      -6.214  -6.848   6.796  0.00  0.00    -0.491 OA
ATOM     26  C   UNL     1      -6.950  -7.902   6.174  0.00  0.00    +0.277 C 
ENDBRANCH  20  25
ENDBRANCH   8  17
BRANCH   4  27
ATOM     27  C   UNL     1      -2.748   0.875   0.729  0.00  0.00    -0.036 A 
ATOM     28  C   UNL     1      -2.216   1.208   1.960  0.00  0.00    +0.004 A 
ATOM     29  C   UNL     1      -2.414   2.474   2.480  0.00  0.00    +0.000 A 
ATOM     30  C   UNL     1      -3.144   3.407   1.767  0.00  0.00    +0.000 A 
ATOM     31  C   UNL     1      -3.676   3.074   0.535  0.00  0.00    +0.000 A 
ATOM     32  C   UNL     1      -3.474   1.810   0.014  0.00  0.00    +0.004 A 
ENDBRANCH   4  27
TORSDOF 4
