REMARK  Name = ZINC41645081
REMARK  5 active torsions:
REMARK  status: ('A' for Active; 'I' for Inactive)
REMARK    1  A    between atoms: C_1  and  C_2
REMARK    2  A    between atoms: C_2  and  C_13
REMARK    3  A    between atoms: N_15  and  C_16
REMARK    4  A    between atoms: C_16  and  C_17
REMARK    5  A    between atoms: C_17  and  N_23
REMARK                            x       y       z     vdW  Elec       q    Type
REMARK                         _______ _______ _______ _____ _____    ______ ____
ROOT
ATOM      1  C   UNL     1      -4.516  -0.400  -1.123  0.00  0.00    +0.238 C 
ATOM      2  O   UNL     1      -3.695  -1.150  -1.607  0.00  0.00    -0.274 OA
ATOM      3  N   UNL     1      -4.587  -0.250   0.214  0.00  0.00    -0.312 N 
ATOM      4  H   UNL     1      -5.244   0.349   0.602  0.00  0.00    +0.149 HD
ENDROOT
BRANCH   1   6
ATOM      5  C   UNL     1      -6.852  -0.267  -1.953  0.00  0.00    +0.043 C 
ATOM      6  C   UNL     1      -5.459   0.363  -2.017  0.00  0.00    +0.170 C 
ATOM      7  C   UNL     1      -4.954   0.332  -3.437  0.00  0.00    +0.242 C 
ATOM      8  O   UNL     1      -4.194  -0.556  -3.759  0.00  0.00    -0.273 OA
ATOM      9  N   UNL     1      -5.302   1.230  -4.352  0.00  0.00    -0.283 N 
ATOM     10  C   UNL     1      -6.063   2.377  -4.144  0.00  0.00    +0.047 A 
ATOM     11  C   UNL     1      -6.627   3.025  -5.239  0.00  0.00    +0.024 A 
ATOM     12  C   UNL     1      -7.394   4.159  -5.058  0.00  0.00    +0.002 A 
ATOM     13  C   UNL     1      -7.611   4.663  -3.789  0.00  0.00    +0.001 A 
ATOM     14  C   UNL     1      -7.054   4.031  -2.692  0.00  0.00    +0.016 A 
ATOM     15  C   UNL     1      -6.280   2.896  -2.869  0.00  0.00    +0.031 A 
ATOM     16  S   UNL     1      -5.547   2.097  -1.475  0.00  0.00    -0.098 S 
ATOM     17  H   UNL     1      -4.993   1.071  -5.258  0.00  0.00    +0.155 HD
ENDBRANCH   1   6
BRANCH   3  18
ATOM     18  C   UNL     1      -3.670  -0.993   1.084  0.00  0.00    +0.126 C 
BRANCH  18  19
ATOM     19  C   UNL     1      -4.040  -0.742   2.547  0.00  0.00    +0.038 C 
ATOM     20  C   UNL     1      -3.005  -1.407   3.456  0.00  0.00    +0.024 C 
ATOM     21  C   UNL     1      -2.982  -2.913   3.187  0.00  0.00    +0.002 C 
ATOM     22  C   UNL     1      -4.365  -3.502   3.471  0.00  0.00    +0.000 C 
ATOM     23  C   UNL     1      -5.400  -2.837   2.563  0.00  0.00    +0.002 C 
ATOM     24  C   UNL     1      -5.423  -1.331   2.832  0.00  0.00    +0.024 C 
BRANCH  19  25
ATOM     25  N   UNL     1      -4.061   0.704   2.806  0.00  0.00    -0.291 NA
ATOM     26  C   UNL     1      -2.762   1.315   2.491  0.00  0.00    +0.113 C 
ATOM     27  C   UNL     1      -2.846   2.827   2.717  0.00  0.00    +0.175 C 
ATOM     28  O   UNL     1      -3.251   3.080   4.065  0.00  0.00    -0.377 OA
ATOM     29  C   UNL     1      -4.513   2.500   4.406  0.00  0.00    +0.175 C 
ATOM     30  C   UNL     1      -4.445   0.985   4.197  0.00  0.00    +0.113 C 
ENDBRANCH  19  25
ENDBRANCH  18  19
ENDBRANCH   3  18
TORSDOF 4
