REMARK  Name = ZINC14977339
REMARK  8 active torsions:
REMARK  status: ('A' for Active; 'I' for Inactive)
REMARK    1  A    between atoms: C_1  and  C_2
REMARK    2  A    between atoms: C_2  and  C_3
REMARK    3  A    between atoms: C_2  and  C_4
REMARK    4  A    between atoms: C_7  and  C_10
REMARK    5  A    between atoms: C_10  and  N_66
REMARK    6  A    between atoms: C_20  and  C_22
REMARK    7  A    between atoms: N_26  and  C_31
REMARK    8  A    between atoms: N_29  and  C_30
REMARK                            x       y       z     vdW  Elec       q    Type
REMARK                         _______ _______ _______ _____ _____    ______ ____
ROOT
ATOM      1  C   UNL     1      -7.193   5.938   7.300  0.00  0.00    -0.078 C 
ATOM      2  C   UNL     1      -6.226   6.374   6.197  0.00  0.00    -0.018 C 
ATOM      3  C   UNL     1      -6.340   5.406   5.015  0.00  0.00    +0.005 C 
ATOM      4  C   UNL     1      -6.071   3.987   5.501  0.00  0.00    -0.027 C 
ATOM      5  C   UNL     1      -7.009   3.613   6.641  0.00  0.00    -0.070 C 
ATOM      6  C   UNL     1      -6.220   2.986   4.335  0.00  0.00    +0.025 C 
ATOM      7  C   UNL     1      -4.821   3.082   3.667  0.00  0.00    +0.108 C 
ATOM      8  N   UNL     1      -3.879   3.249   4.790  0.00  0.00    -0.296 N 
ATOM      9  C   UNL     1      -4.604   3.830   5.931  0.00  0.00    +0.113 C 
ATOM     10  C   UNL     1      -2.570   2.927   4.772  0.00  0.00    +0.263 C 
ATOM     11  O   UNL     1      -1.906   3.028   5.784  0.00  0.00    -0.268 OA
ATOM     12  N   UNL     1      -6.831   4.577   7.749  0.00  0.00    +0.383 N 
ATOM     13  H   UNL     1      -5.846   4.573   8.039  0.00  0.00    -0.081 HD
ENDROOT
BRANCH  10  14
ATOM     14  C   UNL     1      -1.941   2.450   3.517  0.00  0.00    +0.113 A 
ATOM     15  C   UNL     1      -1.473   3.340   2.603  0.00  0.00    +0.101 A 
ATOM     16  C   UNL     1      -0.853   2.822   1.378  0.00  0.00    +0.257 A 
ATOM     17  O   UNL     1      -0.416   3.584   0.535  0.00  0.00    -0.267 OA
ATOM     18  N   UNL     1      -0.781   1.487   1.199  0.00  0.00    -0.264 N 
ATOM     19  C   UNL     1      -1.260   0.648   2.135  0.00  0.00    +0.332 A 
ATOM     20  O   UNL     1      -1.177  -0.551   1.952  0.00  0.00    -0.246 OA
ATOM     21  N   UNL     1      -1.826   1.100   3.266  0.00  0.00    -0.292 N 
ATOM     22  C   UNL     1      -2.330   0.140   4.251  0.00  0.00    +0.154 C 
ATOM     23  C   UNL     1      -0.172   0.948  -0.019  0.00  0.00    +0.157 C 
ENDBRANCH  10  14
BRANCH  12  24
ATOM     24  C   UNL     1      -7.671   4.184   8.899  0.00  0.00    -0.043 C 
BRANCH  24  28
ATOM     25  C   UNL     1      -6.646   6.626  12.251  0.00  0.00    -0.045 A 
ATOM     26  C   UNL     1      -7.652   7.022  11.388  0.00  0.00    +0.004 A 
ATOM     27  C   UNL     1      -7.983   6.232  10.304  0.00  0.00    +0.002 A 
ATOM     28  C   UNL     1      -7.310   5.046  10.081  0.00  0.00    -0.064 A 
ATOM     29  C   UNL     1      -6.308   4.647  10.947  0.00  0.00    +0.002 A 
ATOM     30  C   UNL     1      -5.973   5.440  12.028  0.00  0.00    +0.004 A 
BRANCH  25  32
ATOM     31  C   UNL     1      -6.495   6.696  14.725  0.00  0.00    +0.012 C 
ATOM     32  C   UNL     1      -6.285   7.488  13.433  0.00  0.00    +0.013 C 
ATOM     33  C   UNL     1      -4.818   7.910  13.326  0.00  0.00    +0.012 C 
ENDBRANCH  25  32
ENDBRANCH  24  28
ENDBRANCH  12  24
TORSDOF 4
