REMARK  Name = ZINC14547869
REMARK  4 active torsions:
REMARK  status: ('A' for Active; 'I' for Inactive)
REMARK    1  A    between atoms: C_1  and  C_2
REMARK    2  A    between atoms: C_4  and  N_29
REMARK    3  A    between atoms: C_9  and  C_18
REMARK    4  A    between atoms: C_27  and  O_28
REMARK                            x       y       z     vdW  Elec       q    Type
REMARK                         _______ _______ _______ _____ _____    ______ ____
ROOT
ATOM      1  C   UNL     1      -0.147   0.151   0.561  0.00  0.00    +0.046 C 
ATOM      2  C   UNL     1      -0.295  -1.236  -0.009  0.00  0.00    -0.027 A 
ATOM      3  C   UNL     1      -0.485  -2.304   0.840  0.00  0.00    +0.038 A 
ATOM      4  C   UNL     1      -0.621  -3.583   0.332  0.00  0.00    +0.127 A 
ATOM      5  C   UNL     1      -0.555  -3.786  -1.034  0.00  0.00    +0.038 A 
ATOM      6  C   UNL     1      -0.362  -2.723  -1.891  0.00  0.00    -0.017 A 
ATOM      7  C   UNL     1      -0.242  -1.423  -1.391  0.00  0.00    +0.034 A 
ATOM      8  N   UNL     1      -0.080  -0.292  -2.188  0.00  0.00    -0.336 N 
ATOM      9  C   UNL     1       0.069  -0.518  -3.635  0.00  0.00    +0.109 C 
ATOM     10  C   UNL     1      -0.881  -1.635  -4.011  0.00  0.00    +0.029 C 
ATOM     11  C   UNL     1      -0.268  -2.912  -3.355  0.00  0.00    +0.049 C 
ATOM     12  C   UNL     1      -0.973  -4.005  -4.067  0.00  0.00    -0.023 C 
ATOM     13  C   UNL     1      -1.296  -3.578  -5.283  0.00  0.00    -0.030 C 
ATOM     14  C   UNL     1      -0.851  -2.124  -5.460  0.00  0.00    +0.033 C 
ATOM     15  H   UNL     1      -0.802   0.386  -2.000  0.00  0.00    +0.147 HD
ENDROOT
BRANCH   9  16
ATOM     16  C   UNL     1       1.487  -0.921  -3.949  0.00  0.00    +0.022 A 
ATOM     17  C   UNL     1       1.960  -0.866  -5.270  0.00  0.00    -0.009 A 
ATOM     18  C   UNL     1       1.134  -0.438  -6.324  0.00  0.00    +0.009 A 
ATOM     19  C   UNL     1       1.626  -0.398  -7.592  0.00  0.00    +0.001 A 
ATOM     20  C   UNL     1       2.940  -0.774  -7.864  0.00  0.00    +0.001 A 
ATOM     21  C   UNL     1       3.769  -1.194  -6.870  0.00  0.00    +0.008 A 
ATOM     22  C   UNL     1       3.297  -1.249  -5.547  0.00  0.00    -0.017 A 
ATOM     23  C   UNL     1       4.125  -1.677  -4.495  0.00  0.00    +0.012 A 
ATOM     24  C   UNL     1       3.636  -1.719  -3.227  0.00  0.00    +0.046 A 
ATOM     25  C   UNL     1       2.320  -1.336  -2.950  0.00  0.00    +0.122 A 
BRANCH  25  26
ATOM     26  O   UNL     1       1.862  -1.384  -1.672  0.00  0.00    -0.506 OA
ATOM     27  H   UNL     1       1.583  -2.264  -1.386  0.00  0.00    +0.292 HD
ENDBRANCH  25  26
ENDBRANCH   9  16
BRANCH   4  28
ATOM     28  N   UNL     1      -0.834  -4.728   1.245  0.00  0.00    +0.056 N 
ATOM     29  O   UNL     1      -0.891  -4.545   2.448  0.00  0.00    -0.126 OA
ATOM     30  O   UNL     1      -0.953  -5.853   0.794  0.00  0.00    -0.126 OA
ENDBRANCH   4  28
TORSDOF 3
