REMARK  Name = ZINC67636462
REMARK  5 active torsions:
REMARK  status: ('A' for Active; 'I' for Inactive)
REMARK    1  A    between atoms: C_3  and  C_11
REMARK    2  A    between atoms: C_11  and  O_13
REMARK    3  A    between atoms: O_13  and  C_14
REMARK    4  A    between atoms: C_17  and  O_20
REMARK    5  A    between atoms: O_20  and  C_21
REMARK                            x       y       z     vdW  Elec       q    Type
REMARK                         _______ _______ _______ _____ _____    ______ ____
ROOT
ATOM      1  C   UNL     1       4.870   4.081   0.013  0.00  0.00    +0.132 A 
ATOM      2  C   UNL     1       6.003   3.283  -0.059  0.00  0.00    +0.050 A 
ATOM      3  C   UNL     1       7.254   3.864  -0.128  0.00  0.00    +0.049 A 
ATOM      4  C   UNL     1       7.378   5.245  -0.124  0.00  0.00    +0.122 A 
ATOM      5  C   UNL     1       6.246   6.043  -0.052  0.00  0.00    +0.049 A 
ATOM      6  C   UNL     1       4.995   5.463   0.010  0.00  0.00    +0.050 A 
ENDROOT
BRANCH   1   7
ATOM      7  O   UNL     1       3.639   3.510   0.081  0.00  0.00    -0.422 OA
BRANCH   7   8
ATOM      8  C   UNL     1       2.873   3.523  -1.028  0.00  0.00    +0.348 C 
ATOM      9  O   UNL     1       3.251   4.114  -2.020  0.00  0.00    -0.244 OA
BRANCH   8  12
ATOM     10  C   UNL     1      -0.073   1.486   0.090  0.00  0.00    +0.005 A 
ATOM     11  C   UNL     1       1.139   2.140   0.103  0.00  0.00    +0.019 A 
ATOM     12  C   UNL     1       1.577   2.820  -1.037  0.00  0.00    +0.105 A 
ATOM     13  C   UNL     1       0.778   2.833  -2.189  0.00  0.00    +0.176 A 
ATOM     14  C   UNL     1      -0.441   2.167  -2.187  0.00  0.00    +0.163 A 
ATOM     15  C   UNL     1      -0.862   1.498  -1.048  0.00  0.00    +0.049 A 
ATOM     16  O   UNL     1      -1.231   2.158  -3.296  0.00  0.00    -0.485 OA
ATOM     17  C   UNL     1      -0.951   3.147  -4.293  0.00  0.00    +0.270 C 
ATOM     18  C   UNL     1       0.566   3.174  -4.530  0.00  0.00    +0.270 C 
ATOM     19  O   UNL     1       1.207   3.498  -3.292  0.00  0.00    -0.484 OA
ENDBRANCH   8  12
ENDBRANCH   7   8
ENDBRANCH   1   7
BRANCH   4  20
ATOM     20  O   UNL     1       8.610   5.817  -0.192  0.00  0.00    -0.480 OA
BRANCH  20  21
ATOM     21  C   UNL     1       9.721   4.942  -0.399  0.00  0.00    +0.259 C 
ATOM     22  C   UNL     1      10.786   5.652  -1.238  0.00  0.00    +0.054 C 
ATOM     23  C   UNL     1      10.834   7.133  -0.904  0.00  0.00    +0.006 C 
ATOM     24  C   UNL     1      11.321   7.428   0.503  0.00  0.00    +0.019 C 
ATOM     25  C   UNL     1      10.318   6.928   1.544  0.00  0.00    +0.104 C 
ATOM     26  N   UNL     1      10.607   5.515   1.835  0.00  0.00    -0.312 N 
ATOM     27  C   UNL     1      10.328   4.565   0.936  0.00  0.00    +0.254 C 
ATOM     28  O   UNL     1      10.564   3.402   1.186  0.00  0.00    -0.272 OA
ATOM     29  H   UNL     1      11.002   5.269   2.687  0.00  0.00    +0.149 HD
ENDBRANCH  20  21
ENDBRANCH   4  20
TORSDOF 5
