REMARK  Name = ZINC67255392
REMARK  5 active torsions:
REMARK  status: ('A' for Active; 'I' for Inactive)
REMARK    1  A    between atoms: C_1  and  C_2
REMARK    2  A    between atoms: C_5  and  S_25
REMARK    3  A    between atoms: C_7  and  N_8
REMARK    4  A    between atoms: C_15  and  C_18
REMARK    5  A    between atoms: S_25  and  C_28
REMARK                            x       y       z     vdW  Elec       q    Type
REMARK                         _______ _______ _______ _____ _____    ______ ____
ROOT
ATOM      1  N   UNL     1       0.026  -0.015   2.417  0.00  0.00    -0.269 N 
ATOM      2  C   UNL     1      -0.056  -0.694   3.578  0.00  0.00    +0.307 C 
ATOM      3  O   UNL     1      -0.041  -1.910   3.573  0.00  0.00    -0.252 OA
ATOM      4  N   UNL     1      -0.156  -0.026   4.745  0.00  0.00    -0.280 N 
ATOM      5  C   UNL     1      -0.294   1.438   4.769  0.00  0.00    +0.137 C 
ATOM      6  C   UNL     1       0.751   2.006   5.737  0.00  0.00    +0.179 C 
ATOM      7  O   UNL     1       0.639   1.337   6.996  0.00  0.00    -0.369 OA
ATOM      8  C   UNL     1       0.905  -0.067   6.938  0.00  0.00    +0.166 C 
ATOM      9  C   UNL     1      -0.137  -0.741   6.031  0.00  0.00    +0.145 C 
ATOM     10  H   UNL     1       0.060   0.955   2.424  0.00  0.00    +0.156 HD
ENDROOT
BRANCH   1  17
ATOM     11  C   UNL     1      -0.970   1.292   0.094  0.00  0.00    +0.045 C 
ATOM     12  C   UNL     1      -0.412  -0.107   0.044  0.00  0.00    -0.029 A 
ATOM     13  C   UNL     1      -0.369  -0.791  -1.155  0.00  0.00    +0.007 A 
ATOM     14  C   UNL     1       0.143  -2.075  -1.202  0.00  0.00    +0.027 A 
ATOM     15  C   UNL     1       0.612  -2.678  -0.049  0.00  0.00    +0.090 A 
ATOM     16  C   UNL     1       0.571  -1.999   1.153  0.00  0.00    +0.050 A 
ATOM     17  C   UNL     1       0.064  -0.707   1.202  0.00  0.00    +0.039 A 
BRANCH  15  18
ATOM     18  S   UNL     1       1.262  -4.314  -0.114  0.00  0.00    -0.006 S 
ATOM     19  O   UNL     1       1.067  -4.834   1.194  0.00  0.00    -0.170 OA
ATOM     20  O   UNL     1       0.625  -4.913  -1.234  0.00  0.00    -0.170 OA
ATOM     21  C   UNL     1       3.033  -4.100  -0.443  0.00  0.00    +0.200 C 
ENDBRANCH  15  18
ENDBRANCH   1  17
BRANCH   8  22
ATOM     22  C   UNL     1       0.820  -0.653   8.323  0.00  0.00    -0.015 A 
ATOM     23  C   UNL     1      -0.172  -0.235   9.191  0.00  0.00    +0.006 A 
ATOM     24  C   UNL     1      -0.252  -0.772  10.462  0.00  0.00    +0.003 A 
ATOM     25  C   UNL     1       0.662  -1.727  10.868  0.00  0.00    +0.038 A 
ATOM     26  C   UNL     1       1.656  -2.146  10.000  0.00  0.00    +0.124 A 
ATOM     27  C   UNL     1       1.731  -1.612   8.725  0.00  0.00    +0.044 A 
ATOM     28  F   UNL     1       2.549  -3.079  10.396  0.00  0.00    -0.205 F 
ENDBRANCH   8  22
TORSDOF 3
