REMARK  Name = ZINC12131685
REMARK  6 active torsions:
REMARK  status: ('A' for Active; 'I' for Inactive)
REMARK    1  A    between atoms: C_1  and  C_2
REMARK    2  A    between atoms: C_2  and  C_3
REMARK    3  A    between atoms: N_5  and  C_16
REMARK    4  A    between atoms: C_16  and  C_17
REMARK    5  A    between atoms: C_20  and  C_25
REMARK    6  A    between atoms: C_22  and  C_24
REMARK                            x       y       z     vdW  Elec       q    Type
REMARK                         _______ _______ _______ _____ _____    ______ ____
ROOT
ATOM      1  C   UNL     1      -2.143   1.058   1.278  0.00  0.00    +0.135 A 
ATOM      2  N   UNL     1      -2.544   0.318   0.303  0.00  0.00    -0.154 NA
ATOM      3  N   UNL     1      -3.840  -0.202   0.243  0.00  0.00    -0.217 N 
ATOM      4  C   UNL     1      -4.722   0.064   1.231  0.00  0.00    +0.292 A 
ATOM      5  O   UNL     1      -5.855  -0.381   1.196  0.00  0.00    -0.264 OA
ATOM      6  C   UNL     1      -4.277   0.905   2.347  0.00  0.00    +0.115 A 
ATOM      7  N   UNL     1      -2.971   1.382   2.338  0.00  0.00    -0.285 N 
ATOM      8  C   UNL     1      -2.790   2.130   3.453  0.00  0.00    +0.093 A 
ATOM      9  C   UNL     1      -3.967   2.145   4.207  0.00  0.00    +0.008 A 
ATOM     10  C   UNL     1      -4.898   1.351   3.470  0.00  0.00    +0.042 A 
ATOM     11  C   UNL     1      -3.902   2.916   5.442  0.00  0.00    +0.018 A 
ATOM     12  C   UNL     1      -2.759   3.538   5.762  0.00  0.00    +0.048 A 
ATOM     13  S   UNL     1      -1.674   3.126   4.408  0.00  0.00    -0.079 S 
ENDROOT
BRANCH   1  15
ATOM     14  C   UNL     1      -0.013   1.086   0.008  0.00  0.00    +0.012 C 
ATOM     15  C   UNL     1      -0.729   1.579   1.267  0.00  0.00    +0.073 C 
ENDBRANCH   1  15
BRANCH   3  16
ATOM     16  C   UNL     1      -4.242  -1.038  -0.891  0.00  0.00    +0.248 C 
BRANCH  16  17
ATOM     17  C   UNL     1      -4.812  -0.166  -1.980  0.00  0.00    +0.269 C 
ATOM     18  O   UNL     1      -4.877   1.030  -1.825  0.00  0.00    -0.269 OA
ATOM     19  N   UNL     1      -5.251  -0.721  -3.127  0.00  0.00    -0.203 N 
ATOM     20  C   UNL     1      -5.787  -0.055  -4.189  0.00  0.00    +0.045 A 
ATOM     21  C   UNL     1      -6.096  -0.972  -5.132  0.00  0.00    +0.048 A 
ATOM     22  C   UNL     1      -5.740  -2.236  -4.639  0.00  0.00    +0.061 A 
ATOM     23  N   UNL     1      -5.231  -2.086  -3.445  0.00  0.00    -0.169 NA
ATOM     24  C   UNL     1      -5.911  -3.545  -5.366  0.00  0.00    +0.067 C 
ATOM     25  C   UNL     1      -5.998   1.433  -4.292  0.00  0.00    +0.066 C 
ENDBRANCH  16  17
ENDBRANCH   3  16
TORSDOF 3
