REMARK  Name = ZINC13114895
REMARK  6 active torsions:
REMARK  status: ('A' for Active; 'I' for Inactive)
REMARK    1  A    between atoms: C_1  and  C_2
REMARK    2  A    between atoms: C_7  and  C_8
REMARK    3  A    between atoms: C_11  and  C_12
REMARK    4  A    between atoms: C_12  and  C_13
REMARK    5  A    between atoms: N_18  and  S_21
REMARK    6  A    between atoms: S_21  and  C_24
REMARK                            x       y       z     vdW  Elec       q    Type
REMARK                         _______ _______ _______ _____ _____    ______ ____
ROOT
ATOM      1  C   UNL     1      -3.762   3.410  -3.633  0.00  0.00    +0.220 C 
ATOM      2  O   UNL     1      -3.591   4.509  -4.117  0.00  0.00    -0.275 OA
ATOM      3  N   UNL     1      -3.046   3.028  -2.557  0.00  0.00    -0.299 N 
ATOM      4  C   UNL     1      -2.054   3.934  -1.959  0.00  0.00    +0.125 C 
ATOM      5  C   UNL     1      -0.701   3.214  -1.909  0.00  0.00    +0.128 C 
ATOM      6  N   UNL     1      -0.897   1.885  -1.312  0.00  0.00    -0.174 NA
ATOM      7  C   UNL     1      -1.885   0.978  -1.913  0.00  0.00    +0.128 C 
ATOM      8  C   UNL     1      -3.242   1.700  -1.960  0.00  0.00    +0.125 C 
ENDROOT
BRANCH   6   9
ATOM      9  S   UNL     1      -0.017   1.417   0.010  0.00  0.00    +0.061 S 
ATOM     10  O   UNL     1       0.002  -0.004   0.002  0.00  0.00    -0.153 OA
ATOM     11  O   UNL     1       1.172   2.195   0.003  0.00  0.00    -0.153 OA
BRANCH   9  12
ATOM     12  C   UNL     1      -0.927   1.900   1.439  0.00  0.00    +0.106 A 
ATOM     13  C   UNL     1      -0.717   3.145   2.003  0.00  0.00    +0.031 A 
ATOM     14  C   UNL     1      -1.433   3.527   3.122  0.00  0.00    +0.040 A 
ATOM     15  C   UNL     1      -2.354   2.659   3.684  0.00  0.00    +0.124 A 
ATOM     16  C   UNL     1      -2.559   1.410   3.121  0.00  0.00    +0.040 A 
ATOM     17  C   UNL     1      -1.846   1.032   2.000  0.00  0.00    +0.031 A 
ATOM     18  F   UNL     1      -3.051   3.029   4.780  0.00  0.00    -0.205 F 
ENDBRANCH   9  12
ENDBRANCH   6   9
BRANCH   1  19
ATOM     19  C   UNL     1      -4.775   2.471  -4.235  0.00  0.00    +0.134 C 
BRANCH  19  30
ATOM     20  C   UNL     1      -2.424   2.326  -9.492  0.00  0.00    +0.044 C 
ATOM     21  C   UNL     1      -3.640   2.873  -8.791  0.00  0.00    -0.047 A 
ATOM     22  C   UNL     1      -3.810   2.657  -7.442  0.00  0.00    +0.015 A 
ATOM     23  C   UNL     1      -4.934   3.171  -6.798  0.00  0.00    +0.024 A 
ATOM     24  C   UNL     1      -5.894   3.896  -7.525  0.00  0.00    +0.135 A 
ATOM     25  C   UNL     1      -5.704   4.103  -8.885  0.00  0.00    +0.050 A 
ATOM     26  C   UNL     1      -4.585   3.594  -9.508  0.00  0.00    -0.044 A 
ATOM     27  C   UNL     1      -4.385   3.822 -10.985  0.00  0.00    +0.044 C 
ATOM     28  O   UNL     1      -6.861   4.260  -6.658  0.00  0.00    -0.463 OA
ATOM     29  C   UNL     1      -6.590   3.811  -5.420  0.00  0.00    +0.200 A 
ATOM     30  C   UNL     1      -5.434   3.133  -5.418  0.00  0.00    +0.007 A 
ENDBRANCH  19  30
ENDBRANCH   1  19
TORSDOF 4
