REMARK  Name = ZINC02625916
REMARK  4 active torsions:
REMARK  status: ('A' for Active; 'I' for Inactive)
REMARK    1  A    between atoms: C_3  and  N_20
REMARK    2  A    between atoms: C_6  and  C_7
REMARK    3  A    between atoms: C_7  and  N_8
REMARK    4  A    between atoms: C_10  and  C_16
REMARK                            x       y       z     vdW  Elec       q    Type
REMARK                         _______ _______ _______ _____ _____    ______ ____
ROOT
ATOM      1  N   UNL     1       1.156   3.805   0.011  0.00  0.00    -0.309 N 
ATOM      2  C   UNL     1      -0.024   4.477   0.025  0.00  0.00    +0.102 A 
ATOM      3  C   UNL     1      -1.200   3.807   0.033  0.00  0.00    +0.073 A 
ATOM      4  C   UNL     1      -1.208   2.405   0.021  0.00  0.00    +0.039 A 
ATOM      5  C   UNL     1      -0.021   1.732   0.012  0.00  0.00    +0.106 A 
ATOM      6  C   UNL     1       1.183   2.459   0.004  0.00  0.00    +0.270 A 
ATOM      7  O   UNL     1       2.251   1.870  -0.009  0.00  0.00    -0.266 OA
ATOM      8 CL   UNL     1       0.002  -0.004   0.002  0.00  0.00    -0.078 Cl
ENDROOT
BRANCH   3   9
ATOM      9  C   UNL     1      -2.501   4.568   0.048  0.00  0.00    +0.419 C 
ATOM     10  F   UNL     1      -2.973   4.711  -1.262  0.00  0.00    -0.166 F 
ATOM     11  F   UNL     1      -3.442   3.868   0.809  0.00  0.00    -0.166 F 
ATOM     12  F   UNL     1      -2.295   5.833   0.609  0.00  0.00    -0.166 F 
ENDBRANCH   3   9
BRANCH   1  13
ATOM     13  C   UNL     1       2.415   4.554   0.003  0.00  0.00    +0.160 C 
BRANCH  13  19
ATOM     14  C   UNL     1       3.641   3.913  -2.083  0.00  0.00    +0.007 A 
ATOM     15  C   UNL     1       4.021   4.154  -3.390  0.00  0.00    +0.033 A 
ATOM     16  C   UNL     1       3.600   5.303  -4.033  0.00  0.00    +0.126 A 
ATOM     17  C   UNL     1       2.796   6.210  -3.369  0.00  0.00    +0.033 A 
ATOM     18  C   UNL     1       2.413   5.968  -2.063  0.00  0.00    +0.007 A 
ATOM     19  C   UNL     1       2.833   4.818  -1.421  0.00  0.00    -0.028 A 
BRANCH  16  20
ATOM     20  N   UNL     1       4.010   5.562  -5.431  0.00  0.00    +0.056 N 
ATOM     21  O   UNL     1       3.639   6.574  -5.997  0.00  0.00    -0.126 OA
ATOM     22  O   UNL     1       4.718   4.762  -6.016  0.00  0.00    -0.126 OA
ENDBRANCH  16  20
ENDBRANCH  13  19
ENDBRANCH   1  13
TORSDOF 4
