REMARK  Name = ZINC23265448
REMARK  10 active torsions:
REMARK  status: ('A' for Active; 'I' for Inactive)
REMARK    1  A    between atoms: C_1  and  C_2
REMARK    2  A    between atoms: C_2  and  C_3
REMARK    3  A    between atoms: C_2  and  C_4
REMARK    4  A    between atoms: C_7  and  C_10
REMARK    5  A    between atoms: C_12  and  C_15
REMARK    6  A    between atoms: C_15  and  N_16
REMARK    7  A    between atoms: N_19  and  C_22
REMARK    8  A    between atoms: C_22  and  C_23
REMARK    9  A    between atoms: N_25  and  C_26
REMARK   10  A    between atoms: C_26  and  C_27
REMARK                            x       y       z     vdW  Elec       q    Type
REMARK                         _______ _______ _______ _____ _____    ______ ____
ROOT
ATOM      1  C   UNL     1       2.964  -3.806   7.759  0.00  0.00    +0.022 C 
ENDROOT
BRANCH   1   2
ATOM      2  N   UNL     1       3.316  -5.198   7.451  0.00  0.00    +0.387 N 
ATOM      3  C   UNL     1       2.382  -5.729   6.449  0.00  0.00    -0.063 C 
ATOM      4  C   UNL     1       2.760  -7.173   6.113  0.00  0.00    +0.066 C 
ATOM      5  N   UNL     1       2.707  -7.987   7.336  0.00  0.00    -0.298 NA
ATOM      6  C   UNL     1       3.619  -7.453   8.358  0.00  0.00    +0.066 C 
ATOM      7  C   UNL     1       3.234  -6.006   8.675  0.00  0.00    -0.063 C 
ATOM      8  H   UNL     1       4.256  -5.235   7.087  0.00  0.00    -0.081 HD
BRANCH   5   9
ATOM      9  C   UNL     1       3.009  -9.395   7.045  0.00  0.00    +0.180 C 
BRANCH   9  10
ATOM     10  C   UNL     1       2.709 -10.235   8.260  0.00  0.00    +0.227 C 
ATOM     11  O   UNL     1       2.284  -9.712   9.269  0.00  0.00    -0.274 OA
ATOM     12  N   UNL     1       2.911 -11.567   8.225  0.00  0.00    -0.311 N 
ATOM     13  H   UNL     1       3.250 -11.985   7.418  0.00  0.00    +0.149 HD
BRANCH  12  14
ATOM     14  C   UNL     1       2.619 -12.383   9.406  0.00  0.00    +0.131 C 
BRANCH  14  15
ATOM     15  C   UNL     1       2.928 -13.827   9.107  0.00  0.00    -0.016 C 
ATOM     16  C   UNL     1       3.748 -14.495   9.881  0.00  0.00    +0.005 C 
ENDBRANCH  14  15
ENDBRANCH  12  14
ENDBRANCH   9  10
ENDBRANCH   5   9
ENDBRANCH   1   2
BRANCH   1  19
ATOM     17  C   UNL     1       2.788  -1.912   4.668  0.00  0.00    +0.202 A 
ATOM     18  N   UNL     1       2.270  -2.710   5.619  0.00  0.00    -0.193 NA
ATOM     19  C   UNL     1       3.166  -2.954   6.533  0.00  0.00    +0.211 A 
ATOM     20  O   UNL     1       4.296  -2.318   6.200  0.00  0.00    -0.340 OA
ATOM     21  N   UNL     1       4.033  -1.647   4.976  0.00  0.00    -0.056 NA
BRANCH  17  25
ATOM     22  C   UNL     1       0.731  -0.503   1.223  0.00  0.00    -0.045 A 
ATOM     23  C   UNL     1       2.051  -0.146   1.431  0.00  0.00    +0.004 A 
ATOM     24  C   UNL     1       2.723  -0.601   2.548  0.00  0.00    +0.012 A 
ATOM     25  C   UNL     1       2.070  -1.420   3.466  0.00  0.00    +0.022 A 
ATOM     26  C   UNL     1       0.740  -1.777   3.251  0.00  0.00    +0.012 A 
ATOM     27  C   UNL     1       0.076  -1.312   2.134  0.00  0.00    +0.004 A 
BRANCH  22  29
ATOM     28  C   UNL     1      -0.019   1.526   0.010  0.00  0.00    +0.012 C 
ATOM     29  C   UNL     1       0.002  -0.004   0.002  0.00  0.00    +0.013 C 
ATOM     30  C   UNL     1       0.718  -0.497  -1.257  0.00  0.00    +0.012 C 
ENDBRANCH  22  29
ENDBRANCH  17  25
ENDBRANCH   1  19
TORSDOF 8
