REMARK  Name = ZINC67257905
REMARK  4 active torsions:
REMARK  status: ('A' for Active; 'I' for Inactive)
REMARK    1  A    between atoms: C_1  and  C_2
REMARK    2  A    between atoms: C_5  and  C_8
REMARK    3  A    between atoms: C_8  and  N_9
REMARK    4  A    between atoms: N_18  and  C_19
REMARK                            x       y       z     vdW  Elec       q    Type
REMARK                         _______ _______ _______ _____ _____    ______ ____
ROOT
ATOM      1  N   UNL     1       1.447  -4.746  -0.032  0.00  0.00    -0.294 N 
ATOM      2  C   UNL     1       2.082  -4.951  -1.213  0.00  0.00    +0.204 A 
ATOM      3  N   UNL     1       3.312  -5.368  -1.295  0.00  0.00    -0.217 NA
ATOM      4  C   UNL     1       4.046  -5.626  -0.202  0.00  0.00    +0.170 A 
ATOM      5  C   UNL     1       3.474  -5.443   1.067  0.00  0.00    +0.103 A 
ATOM      6  C   UNL     1       2.092  -4.969   1.137  0.00  0.00    +0.265 A 
ATOM      7  O   UNL     1       1.540  -4.785   2.208  0.00  0.00    -0.267 OA
ATOM      8  C   UNL     1       4.452  -5.783   2.020  0.00  0.00    +0.150 A 
ATOM      9  N   UNL     1       5.534  -6.145   1.387  0.00  0.00    -0.172 NA
ATOM     10  N   UNL     1       5.319  -6.060   0.006  0.00  0.00    -0.214 N 
ENDROOT
BRANCH  10  11
ATOM     11  C   UNL     1       6.254  -6.370  -0.991  0.00  0.00    +0.068 A 
ATOM     12  C   UNL     1       5.834  -6.941  -2.185  0.00  0.00    +0.029 A 
ATOM     13  C   UNL     1       6.758  -7.245  -3.166  0.00  0.00    +0.017 A 
ATOM     14  C   UNL     1       8.100  -6.981  -2.959  0.00  0.00    +0.018 A 
ATOM     15  C   UNL     1       8.521  -6.413  -1.770  0.00  0.00    +0.017 A 
ATOM     16  C   UNL     1       7.601  -6.101  -0.788  0.00  0.00    +0.029 A 
ATOM     17 BR   UNL     1       9.362  -7.400  -4.304  0.00  0.00    -0.050 Br
ENDBRANCH  10  11
BRANCH   1  18
ATOM     18  C   UNL     1       0.059  -4.275  -0.021  0.00  0.00    +0.161 C 
BRANCH  18  23
ATOM     19  C   UNL     1      -0.018   1.503   0.010  0.00  0.00    +0.044 C 
ATOM     20  C   UNL     1       0.002  -0.004   0.002  0.00  0.00    -0.050 A 
ATOM     21  C   UNL     1       0.006  -0.689  -1.199  0.00  0.00    +0.004 A 
ATOM     22  C   UNL     1       0.025  -2.071  -1.206  0.00  0.00    +0.005 A 
ATOM     23  C   UNL     1       0.040  -2.768  -0.013  0.00  0.00    -0.028 A 
ATOM     24  C   UNL     1       0.037  -2.084   1.188  0.00  0.00    +0.005 A 
ATOM     25  C   UNL     1       0.023  -0.702   1.195  0.00  0.00    +0.004 A 
ENDBRANCH  18  23
ENDBRANCH   1  18
TORSDOF 3
