REMARK  Name = ZINC57570022
REMARK  2 active torsions:
REMARK  status: ('A' for Active; 'I' for Inactive)
REMARK    1  A    between atoms: C_6  and  C_7
REMARK    2  A    between atoms: N_13  and  C_14
REMARK                            x       y       z     vdW  Elec       q    Type
REMARK                         _______ _______ _______ _____ _____    ______ ____
ROOT
ATOM      1  C   UNL     1      -1.293  -0.775   0.010  0.00  0.00    +0.130 C 
ATOM      2  C   UNL     1      -1.600  -1.331  -1.394  0.00  0.00    +0.133 C 
ATOM      3  N   UNL     1      -1.620  -2.788  -1.198  0.00  0.00    -0.297 N 
ATOM      4  C   UNL     1      -1.371  -3.063   0.089  0.00  0.00    +0.307 C 
ATOM      5  O   UNL     1      -1.328  -4.196   0.528  0.00  0.00    -0.252 OA
ATOM      6  N   UNL     1      -1.174  -1.976   0.851  0.00  0.00    -0.247 N 
ATOM      7  H   UNL     1      -1.788  -3.446  -1.891  0.00  0.00    +0.150 HD
ENDROOT
BRANCH   1  13
ATOM      8  C   UNL     1      -0.017   1.378   0.010  0.00  0.00    +0.008 A 
ATOM      9  C   UNL     1       1.170   2.086   0.002  0.00  0.00    +0.038 A 
ATOM     10  C   UNL     1       2.379   1.410  -0.013  0.00  0.00    +0.123 A 
ATOM     11  C   UNL     1       2.396   0.026  -0.021  0.00  0.00    +0.038 A 
ATOM     12  C   UNL     1       1.208  -0.680  -0.013  0.00  0.00    +0.008 A 
ATOM     13  C   UNL     1       0.002  -0.004   0.002  0.00  0.00    -0.025 A 
ATOM     14  F   UNL     1       3.540   2.101  -0.021  0.00  0.00    -0.205 F 
ENDBRANCH   1  13
BRANCH   6  15
ATOM     15  C   UNL     1      -0.898  -1.981   2.224  0.00  0.00    +0.039 A 
ATOM     16  C   UNL     1      -0.718  -0.783   2.901  0.00  0.00    +0.026 A 
ATOM     17  C   UNL     1      -0.446  -0.791   4.256  0.00  0.00    +0.040 A 
ATOM     18  C   UNL     1      -0.353  -1.992   4.937  0.00  0.00    +0.124 A 
ATOM     19  C   UNL     1      -0.532  -3.188   4.263  0.00  0.00    +0.040 A 
ATOM     20  C   UNL     1      -0.809  -3.185   2.910  0.00  0.00    +0.026 A 
ATOM     21  F   UNL     1      -0.087  -1.998   6.262  0.00  0.00    -0.205 F 
ENDBRANCH   6  15
TORSDOF 2
