REMARK  Name = ZINC32714670
REMARK  4 active torsions:
REMARK  status: ('A' for Active; 'I' for Inactive)
REMARK    1  A    between atoms: C_1  and  C_2
REMARK    2  A    between atoms: C_5  and  N_8
REMARK    3  A    between atoms: C_11  and  C_13
REMARK    4  A    between atoms: C_17  and  C_20
REMARK                            x       y       z     vdW  Elec       q    Type
REMARK                         _______ _______ _______ _____ _____    ______ ____
ROOT
ATOM      1  N   UNL     1       3.477   2.241  -0.019  0.00  0.00    -0.216 N 
ATOM      2  C   UNL     1       2.443   1.359  -0.013  0.00  0.00    +0.146 A 
ATOM      3  C   UNL     1       1.270   2.114   0.001  0.00  0.00    +0.087 A 
ATOM      4  C   UNL     1       1.645   3.473   0.005  0.00  0.00    +0.073 A 
ATOM      5  N   UNL     1       2.948   3.538  -0.008  0.00  0.00    -0.169 NA
ATOM      6  C   UNL     1       0.704   4.650   0.021  0.00  0.00    +0.068 C 
ATOM      7  C   UNL     1      -0.017   1.412   0.010  0.00  0.00    +0.193 A 
ATOM      8  O   UNL     1      -1.071   2.028   0.018  0.00  0.00    -0.287 OA
ATOM      9  C   UNL     1       0.002  -0.004   0.002  0.00  0.00    +0.072 A 
ATOM     10  C   UNL     1       1.181  -0.658  -0.013  0.00  0.00    +0.018 A 
ATOM     11  N   UNL     1       2.370  -0.006  -0.021  0.00  0.00    -0.343 N 
ATOM     12  H   UNL     1       3.292  -0.606  -0.033  0.00  0.00    +0.167 HD
ATOM     13  C   UNL     1       1.178  -2.165  -0.021  0.00  0.00    +0.063 C 
ENDROOT
BRANCH   1  18
ATOM     14  C   UNL     1       8.991   0.900  -0.075  0.00  0.00    +0.044 C 
ATOM     15  C   UNL     1       7.526   1.256  -0.060  0.00  0.00    -0.050 A 
ATOM     16  C   UNL     1       7.082   2.376  -0.739  0.00  0.00    +0.005 A 
ATOM     17  C   UNL     1       5.740   2.705  -0.727  0.00  0.00    +0.028 A 
ATOM     18  C   UNL     1       4.838   1.910  -0.033  0.00  0.00    +0.068 A 
ATOM     19  C   UNL     1       5.288   0.789   0.652  0.00  0.00    +0.028 A 
ATOM     20  C   UNL     1       6.630   0.462   0.631  0.00  0.00    +0.005 A 
ENDBRANCH   1  18
TORSDOF 1
