REMARK  Name = ZINC20262768
REMARK  5 active torsions:
REMARK  status: ('A' for Active; 'I' for Inactive)
REMARK    1  A    between atoms: C_1  and  C_2
REMARK    2  A    between atoms: N_5  and  C_8
REMARK    3  A    between atoms: C_11  and  S_15
REMARK    4  A    between atoms: C_13  and  N_14
REMARK    5  A    between atoms: S_15  and  N_18
REMARK                            x       y       z     vdW  Elec       q    Type
REMARK                         _______ _______ _______ _____ _____    ______ ____
ROOT
ATOM      1  C   UNL     1       1.177   1.847  -0.275  0.00  0.00    +0.051 A 
ATOM      2  C   UNL     1       0.003   1.111  -0.292  0.00  0.00    +0.027 A 
ATOM      3  C   UNL     1      -1.203   1.725  -0.009  0.00  0.00    +0.030 A 
ATOM      4  C   UNL     1      -1.241   3.071   0.303  0.00  0.00    +0.107 A 
ATOM      5  C   UNL     1      -0.075   3.814   0.323  0.00  0.00    +0.053 A 
ATOM      6  C   UNL     1       1.138   3.207   0.034  0.00  0.00    +0.048 A 
ENDROOT
BRANCH   1  11
ATOM      7  C   UNL     1       5.663  -0.969  -2.235  0.00  0.00    +0.007 C 
ATOM      8  C   UNL     1       4.263  -0.372  -2.084  0.00  0.00    -0.011 C 
ATOM      9  C   UNL     1       4.361   1.155  -2.032  0.00  0.00    +0.022 C 
ATOM     10  C   UNL     1       2.964   1.744  -1.820  0.00  0.00    +0.105 C 
ATOM     11  N   UNL     1       2.399   1.229  -0.567  0.00  0.00    -0.328 N 
ATOM     12  C   UNL     1       2.251  -0.232  -0.612  0.00  0.00    +0.105 C 
ATOM     13  C   UNL     1       3.627  -0.879  -0.787  0.00  0.00    +0.022 C 
ENDBRANCH   1  11
BRANCH   6  14
ATOM     14  N   UNL     1       2.321   3.957   0.054  0.00  0.00    -0.356 N 
ATOM     15  H   UNL     1       2.288   5.029   0.298  0.00  0.00    +0.142 HD
ATOM     16  H   UNL     1       3.282   3.474  -0.175  0.00  0.00    +0.142 HD
ENDBRANCH   6  14
BRANCH   4  17
ATOM     17  S   UNL     1      -2.781   3.845   0.669  0.00  0.00    +0.061 S 
ATOM     18  O   UNL     1      -3.655   2.818   1.118  0.00  0.00    -0.153 OA
ATOM     19  O   UNL     1      -2.483   4.990   1.457  0.00  0.00    -0.153 OA
BRANCH  17  20
ATOM     20  N   UNL     1      -3.401   4.403  -0.761  0.00  0.00    -0.177 NA
ATOM     21  C   UNL     1      -3.166   5.735  -1.336  0.00  0.00    +0.109 C 
ATOM     22  C   UNL     1      -3.961   5.812  -2.656  0.00  0.00    +0.018 C 
ATOM     23  C   UNL     1      -5.056   4.730  -2.463  0.00  0.00    +0.018 C 
ATOM     24  C   UNL     1      -4.287   3.647  -1.666  0.00  0.00    +0.109 C 
ENDBRANCH  17  20
ENDBRANCH   4  17
TORSDOF 4
