REMARK  Name = ZINC19907528
REMARK  6 active torsions:
REMARK  status: ('A' for Active; 'I' for Inactive)
REMARK    1  A    between atoms: C_1  and  C_2
REMARK    2  A    between atoms: C_7  and  N_12
REMARK    3  A    between atoms: C_9  and  C_11
REMARK    4  A    between atoms: C_13  and  N_23
REMARK    5  A    between atoms: N_23  and  C_24
REMARK    6  A    between atoms: C_27  and  N_30
REMARK                            x       y       z     vdW  Elec       q    Type
REMARK                         _______ _______ _______ _____ _____    ______ ____
ROOT
ATOM      1  N   UNL     1       1.155   2.074   0.123  0.00  0.00    -0.272 N 
ATOM      2  C   UNL     1       0.585   3.425   0.019  0.00  0.00    +0.189 C 
ATOM      3  C   UNL     1      -0.905   3.232  -0.067  0.00  0.00    -0.024 C 
ATOM      4  C   UNL     1      -1.141   1.921  -0.022  0.00  0.00    +0.017 C 
ATOM      5  C   UNL     1       0.129   1.201   0.101  0.00  0.00    +0.245 C 
ATOM      6  O   UNL     1       0.241  -0.008   0.169  0.00  0.00    -0.270 OA
ATOM      7  C   UNL     1      -2.523   1.312  -0.086  0.00  0.00    +0.040 C 
ATOM      8  C   UNL     1      -3.552   2.408   0.213  0.00  0.00    +0.005 C 
ATOM      9  C   UNL     1      -3.266   3.630  -0.665  0.00  0.00    +0.005 C 
ATOM     10  C   UNL     1      -1.965   4.296  -0.189  0.00  0.00    +0.035 C 
ENDROOT
BRANCH   1  16
ATOM     11  C   UNL     1       5.139   1.919   1.641  0.00  0.00    +0.008 C 
ATOM     12  C   UNL     1       4.310   0.633   1.652  0.00  0.00    -0.009 C 
ATOM     13  C   UNL     1       4.718  -0.247   0.469  0.00  0.00    +0.003 C 
ATOM     14  C   UNL     1       4.470   0.508  -0.838  0.00  0.00    +0.002 C 
ATOM     15  C   UNL     1       2.985   0.858  -0.951  0.00  0.00    +0.023 C 
ATOM     16  C   UNL     1       2.577   1.739   0.232  0.00  0.00    +0.082 C 
ATOM     17  C   UNL     1       2.825   0.983   1.539  0.00  0.00    +0.009 C 
ATOM     18  C   UNL     1       2.417   1.863   2.722  0.00  0.00    +0.009 C 
ENDBRANCH   1  16
BRANCH   2  19
ATOM     19  N   UNL     1       1.079   4.091  -1.188  0.00  0.00    -0.322 N 
ATOM     20  H   UNL     1       0.677   3.814  -2.174  0.00  0.00    +0.148 HD
BRANCH  19  21
ATOM     21  C   UNL     1       2.061   5.080  -1.088  0.00  0.00    +0.029 A 
ATOM     22  C   UNL     1       2.670   5.335   0.134  0.00  0.00    +0.025 A 
ATOM     23  C   UNL     1       3.645   6.309   0.228  0.00  0.00    +0.034 A 
ATOM     24  C   UNL     1       4.007   7.037  -0.890  0.00  0.00    +0.126 A 
ATOM     25  C   UNL     1       3.399   6.790  -2.107  0.00  0.00    +0.034 A 
ATOM     26  C   UNL     1       2.428   5.813  -2.210  0.00  0.00    +0.025 A 
BRANCH  24  27
ATOM     27  N   UNL     1       5.047   8.085  -0.784  0.00  0.00    +0.056 N 
ATOM     28  O   UNL     1       5.367   8.727  -1.768  0.00  0.00    -0.126 OA
ATOM     29  O   UNL     1       5.583   8.304   0.287  0.00  0.00    -0.126 OA
ENDBRANCH  24  27
ENDBRANCH  19  21
ENDBRANCH   2  19
TORSDOF 4
