REMARK  Name = ZINC65182498
REMARK  10 active torsions:
REMARK  status: ('A' for Active; 'I' for Inactive)
REMARK    1  A    between atoms: C_1  and  C_2
REMARK    2  A    between atoms: C_2  and  C_3
REMARK    3  A    between atoms: C_6  and  C_31
REMARK    4  A    between atoms: C_11  and  C_13
REMARK    5  A    between atoms: C_16  and  C_19
REMARK    6  A    between atoms: C_19  and  C_20
REMARK    7  A    between atoms: C_20  and  N_21
REMARK    8  A    between atoms: N_21  and  C_22
REMARK    9  A    between atoms: C_23  and  C_25
REMARK   10  A    between atoms: N_29  and  C_30
REMARK                            x       y       z     vdW  Elec       q    Type
REMARK                         _______ _______ _______ _____ _____    ______ ____
ROOT
ATOM      1  C   UNL     1      -0.257  -3.965   1.044  0.00  0.00    +0.318 C 
ATOM      2  N   UNL     1      -0.157  -5.268   1.723  0.00  0.00    -0.291 N 
ATOM      3  C   UNL     1      -0.655  -5.094   2.993  0.00  0.00    +0.139 C 
ATOM      4  N   UNL     1      -1.040  -3.885   3.186  0.00  0.00    -0.072 NA
ATOM      5  O   UNL     1      -0.837  -3.094   2.028  0.00  0.00    -0.367 OA
ATOM      6  H   UNL     1       0.193  -6.090   1.346  0.00  0.00    +0.151 HD
ENDROOT
BRANCH   1  15
ATOM      7  C   UNL     1       1.025  -2.107  -0.018  0.00  0.00    -0.033 C 
ATOM      8  C   UNL     1       1.738  -1.259   0.758  0.00  0.00    -0.000 A 
ATOM      9  C   UNL     1       2.016   0.179   0.664  0.00  0.00    +0.013 A 
ATOM     10  C   UNL     1       2.782   0.763   1.613  0.00  0.00    -0.050 A 
ATOM     11  C   UNL     1       3.316   0.030   2.683  0.00  0.00    +0.005 A 
ATOM     12  C   UNL     1       3.105  -1.294   2.837  0.00  0.00    +0.026 A 
ATOM     13  C   UNL     1       2.313  -2.010   1.897  0.00  0.00    +0.043 A 
ATOM     14  N   UNL     1       1.970  -3.273   1.828  0.00  0.00    -0.373 N 
ATOM     15  C   UNL     1       1.131  -3.466   0.639  0.00  0.00    +0.169 C 
ATOM     16  C   UNL     1       3.069   2.239   1.520  0.00  0.00    +0.044 C 
ATOM     17  H   UNL     1       2.224  -3.964   2.459  0.00  0.00    +0.160 HD
BRANCH   7  19
ATOM     18  C   UNL     1       0.433  -0.276  -1.581  0.00  0.00    +0.008 C 
ATOM     19  C   UNL     1       0.272  -1.767  -1.278  0.00  0.00    +0.030 C 
ENDBRANCH   7  19
ENDBRANCH   1  15
BRANCH   3  20
ATOM     20  C   UNL     1      -0.738  -6.186   4.027  0.00  0.00    +0.094 C 
BRANCH  20  21
ATOM     21  C   UNL     1      -1.343  -5.625   5.315  0.00  0.00    +0.115 C 
BRANCH  21  22
ATOM     22  N   UNL     1      -1.424  -6.686   6.321  0.00  0.00    -0.299 N 
ATOM     23  C   UNL     1      -0.303  -6.914   7.237  0.00  0.00    +0.132 C 
ATOM     24  C   UNL     1      -2.528  -7.454   6.404  0.00  0.00    +0.263 C 
ATOM     25  O   UNL     1      -3.415  -7.335   5.579  0.00  0.00    -0.268 OA
BRANCH  24  26
ATOM     26  C   UNL     1      -2.662  -8.433   7.488  0.00  0.00    +0.104 A 
ATOM     27  C   UNL     1      -1.810  -8.581   8.562  0.00  0.00    +0.032 A 
ATOM     28  C   UNL     1      -2.312  -9.626   9.344  0.00  0.00    +0.020 A 
ATOM     29  C   UNL     1      -3.437 -10.088   8.747  0.00  0.00    +0.086 A 
ATOM     30  N   UNL     1      -3.663  -9.368   7.621  0.00  0.00    -0.346 N 
ATOM     31  C   UNL     1      -4.786  -9.555   6.699  0.00  0.00    +0.149 C 
ENDBRANCH  24  26
ENDBRANCH  21  22
ENDBRANCH  20  21
ENDBRANCH   3  20
TORSDOF 6
