REMARK  Name = ZINC62259562
REMARK  6 active torsions:
REMARK  status: ('A' for Active; 'I' for Inactive)
REMARK    1  A    between atoms: C_1  and  C_2
REMARK    2  A    between atoms: C_2  and  C_3
REMARK    3  A    between atoms: C_2  and  C_4
REMARK    4  A    between atoms: C_4  and  N_5
REMARK    5  A    between atoms: N_11  and  C_22
REMARK    6  A    between atoms: C_12  and  C_15
REMARK                            x       y       z     vdW  Elec       q    Type
REMARK                         _______ _______ _______ _____ _____    ______ ____
ROOT
ATOM      1  N   UNL     1      -1.416  -1.993  -0.116  0.00  0.00    -0.299 N 
ATOM      2  C   UNL     1      -2.575  -2.682  -0.130  0.00  0.00    +0.302 C 
ATOM      3  O   UNL     1      -3.628  -2.103   0.055  0.00  0.00    -0.253 OA
ATOM      4  N   UNL     1      -2.566  -4.011  -0.349  0.00  0.00    -0.283 N 
ATOM      5  C   UNL     1      -1.298  -4.749  -0.460  0.00  0.00    +0.124 C 
ATOM      6  C   UNL     1      -1.332  -5.583  -1.745  0.00  0.00    +0.103 C 
ATOM      7  N   UNL     1      -2.540  -6.419  -1.751  0.00  0.00    -0.295 NA
ATOM      8  C   UNL     1      -3.757  -5.597  -1.767  0.00  0.00    +0.104 C 
ATOM      9  C   UNL     1      -3.823  -4.764  -0.477  0.00  0.00    +0.133 C 
ATOM     10  C   UNL     1      -2.524  -7.358  -2.881  0.00  0.00    +0.105 C 
ATOM     11  H   UNL     1      -0.572  -2.463  -0.189  0.00  0.00    +0.150 HD
ENDROOT
BRANCH   8  12
ATOM     12  C   UNL     1      -4.967  -6.491  -1.849  0.00  0.00    -0.029 A 
ATOM     13  C   UNL     1      -5.009  -7.665  -1.122  0.00  0.00    +0.008 A 
ATOM     14  C   UNL     1      -6.118  -8.486  -1.196  0.00  0.00    +0.038 A 
ATOM     15  C   UNL     1      -7.188  -8.131  -2.000  0.00  0.00    +0.123 A 
ATOM     16  C   UNL     1      -7.145  -6.955  -2.729  0.00  0.00    +0.038 A 
ATOM     17  C   UNL     1      -6.037  -6.133  -2.649  0.00  0.00    +0.008 A 
ATOM     18  F   UNL     1      -8.273  -8.933  -2.074  0.00  0.00    -0.205 F 
ENDBRANCH   8  12
BRANCH   1  19
ATOM     19  C   UNL     1      -1.433  -0.533   0.011  0.00  0.00    +0.108 C 
BRANCH  19  21
ATOM     20  C   UNL     1      -0.019   1.526   0.007  0.00  0.00    +0.009 C 
ATOM     21  C   UNL     1       0.002  -0.004   0.000  0.00  0.00    -0.000 C 
ATOM     22  C   UNL     1       0.741  -0.509   1.241  0.00  0.00    +0.009 C 
ENDBRANCH  19  21
ENDBRANCH   1  19
TORSDOF 3
