REMARK  Name = ZINC01195132
REMARK  7 active torsions:
REMARK  status: ('A' for Active; 'I' for Inactive)
REMARK    1  A    between atoms: C_1  and  C_2
REMARK    2  A    between atoms: C_7  and  N_8
REMARK    3  A    between atoms: C_9  and  C_11
REMARK    4  A    between atoms: C_11  and  C_28
REMARK    5  A    between atoms: C_12  and  C_13
REMARK    6  A    between atoms: C_16  and  C_18
REMARK    7  A    between atoms: C_21  and  N_25
REMARK                            x       y       z     vdW  Elec       q    Type
REMARK                         _______ _______ _______ _____ _____    ______ ____
ROOT
ATOM      1  C   UNL     1      -2.399  -0.293   0.008  0.00  0.00    +0.117 C 
ATOM      2  C   UNL     1      -1.124  -0.842  -0.010  0.00  0.00    +0.070 C 
ENDROOT
BRANCH   2   3
ATOM      3  C   UNL     1       0.002  -0.003  -0.027  0.00  0.00    +0.130 A 
ATOM      4  C   UNL     1       1.326  -0.417  -0.046  0.00  0.00    +0.050 A 
ATOM      5  C   UNL     1       2.108   0.736  -0.058  0.00  0.00    +0.050 A 
ATOM      6  C   UNL     1       1.244   1.811  -0.047  0.00  0.00    +0.137 A 
ATOM      7  O   UNL     1      -0.017   1.347  -0.028  0.00  0.00    -0.455 OA
BRANCH   6   8
ATOM      8  C   UNL     1       1.639   3.232  -0.054  0.00  0.00    +0.031 A 
ATOM      9  C   UNL     1       2.584   3.704   0.861  0.00  0.00    +0.015 A 
ATOM     10  C   UNL     1       2.952   5.032   0.845  0.00  0.00    +0.033 A 
ATOM     11  C   UNL     1       2.379   5.902  -0.067  0.00  0.00    +0.127 A 
ATOM     12  C   UNL     1       1.438   5.445  -0.972  0.00  0.00    +0.048 A 
ATOM     13  C   UNL     1       1.064   4.116  -0.972  0.00  0.00    +0.031 A 
ATOM     14 BR   UNL     1      -0.222   3.493  -2.211  0.00  0.00    -0.049 Br
BRANCH  11  15
ATOM     15  N   UNL     1       2.775   7.329  -0.072  0.00  0.00    +0.056 N 
ATOM     16  O   UNL     1       2.272   8.097  -0.873  0.00  0.00    -0.126 OA
ATOM     17  O   UNL     1       3.603   7.734   0.724  0.00  0.00    -0.126 OA
ENDBRANCH  11  15
ENDBRANCH   6   8
ENDBRANCH   2   3
BRANCH   1  19
ATOM     18  N   UNL     1      -4.813  -0.638   0.043  0.00  0.00    -0.281 N 
ATOM     19  C   UNL     1      -3.575  -1.171   0.025  0.00  0.00    +0.259 C 
ATOM     20  O   UNL     1      -3.433  -2.380   0.024  0.00  0.00    -0.269 OA
ATOM     21  H   UNL     1      -4.927   0.322   0.124  0.00  0.00    +0.155 HD
BRANCH  18  28
ATOM     22  C   UNL     1      -7.278   0.297   1.113  0.00  0.00    +0.045 C 
ATOM     23  C   UNL     1      -7.156  -1.052   0.452  0.00  0.00    -0.029 A 
ATOM     24  C   UNL     1      -8.261  -1.875   0.352  0.00  0.00    +0.005 A 
ATOM     25  C   UNL     1      -8.150  -3.112  -0.256  0.00  0.00    +0.000 A 
ATOM     26  C   UNL     1      -6.934  -3.530  -0.764  0.00  0.00    +0.002 A 
ATOM     27  C   UNL     1      -5.827  -2.710  -0.672  0.00  0.00    +0.023 A 
ATOM     28  C   UNL     1      -5.933  -1.469  -0.057  0.00  0.00    +0.037 A 
ENDBRANCH  18  28
ENDBRANCH   1  19
BRANCH   1  29
ATOM     29  C   UNL     1      -2.566   1.129   0.009  0.00  0.00    +0.104 C 
ATOM     30  N   UNL     1      -2.699   2.257   0.011  0.00  0.00    -0.191 NA
ENDBRANCH   1  29
TORSDOF 6
