REMARK  Name = ZINC05446518
REMARK  5 active torsions:
REMARK  status: ('A' for Active; 'I' for Inactive)
REMARK    1  A    between atoms: C_3  and  N_7
REMARK    2  A    between atoms: C_8  and  C_24
REMARK    3  A    between atoms: C_10  and  C_15
REMARK    4  A    between atoms: C_15  and  C_17
REMARK    5  A    between atoms: C_27  and  O_30
REMARK                            x       y       z     vdW  Elec       q    Type
REMARK                         _______ _______ _______ _____ _____    ______ ____
ROOT
ATOM      1  N   UNL     1      -3.746   6.970  -0.050  0.00  0.00    -0.252 N 
ATOM      2  C   UNL     1      -2.737   5.906   0.021  0.00  0.00    +0.150 C 
ATOM      3  C   UNL     1      -1.394   6.598   0.003  0.00  0.00    +0.077 C 
ATOM      4  C   UNL     1      -1.640   7.928  -0.065  0.00  0.00    +0.250 C 
ATOM      5  C   UNL     1      -3.100   8.149  -0.103  0.00  0.00    +0.292 C 
ATOM      6  O   UNL     1      -3.639   9.237  -0.168  0.00  0.00    -0.266 OA
ATOM      7  O   UNL     1      -0.699   8.898  -0.096  0.00  0.00    -0.282 OA
ENDROOT
BRANCH   1  10
ATOM      8  C   UNL     1      -7.353   7.658  -0.135  0.00  0.00    +0.021 A 
ATOM      9  C   UNL     1      -5.987   7.888  -0.129  0.00  0.00    +0.026 A 
ATOM     10  C   UNL     1      -5.132   6.790  -0.059  0.00  0.00    +0.056 A 
ATOM     11  C   UNL     1      -5.678   5.514  -0.003  0.00  0.00    +0.134 A 
ATOM     12  N   UNL     1      -6.984   5.340  -0.007  0.00  0.00    -0.261 NA
ATOM     13  C   UNL     1      -7.820   6.359  -0.072  0.00  0.00    +0.111 A 
ENDBRANCH   1  10
BRANCH   2  14
ATOM     14  C   UNL     1      -2.865   4.991  -1.170  0.00  0.00    -0.022 A 
ATOM     15  C   UNL     1      -3.085   5.522  -2.428  0.00  0.00    +0.009 A 
ATOM     16  C   UNL     1      -3.197   4.686  -3.522  0.00  0.00    +0.046 A 
ATOM     17  C   UNL     1      -3.100   3.312  -3.356  0.00  0.00    +0.117 A 
ATOM     18  C   UNL     1      -2.886   2.782  -2.092  0.00  0.00    +0.046 A 
ATOM     19  C   UNL     1      -2.769   3.622  -1.002  0.00  0.00    +0.009 A 
BRANCH  17  20
ATOM     20  O   UNL     1      -3.215   2.487  -4.429  0.00  0.00    -0.507 OA
ATOM     21  H   UNL     1      -3.139   1.398  -4.297  0.00  0.00    +0.292 HD
ENDBRANCH  17  20
ENDBRANCH   2  14
BRANCH   3  22
ATOM     22  C   UNL     1      -0.079   5.954   0.055  0.00  0.00    +0.195 C 
ATOM     23  O   UNL     1       0.672   6.025  -0.900  0.00  0.00    -0.287 OA
BRANCH  22  24
ATOM     24  C   UNL     1       0.336   5.218   1.268  0.00  0.00    +0.022 A 
ATOM     25  C   UNL     1       1.557   4.540   1.293  0.00  0.00    +0.013 A 
ATOM     26  C   UNL     1       1.939   3.856   2.428  0.00  0.00    +0.021 A 
ATOM     27  C   UNL     1       1.114   3.839   3.541  0.00  0.00    +0.041 A 
ATOM     28  C   UNL     1      -0.101   4.505   3.520  0.00  0.00    +0.021 A 
ATOM     29  C   UNL     1      -0.491   5.198   2.393  0.00  0.00    +0.013 A 
ATOM     30 CL   UNL     1       1.601   2.976   4.966  0.00  0.00    -0.084 Cl
ENDBRANCH  22  24
ENDBRANCH   3  22
TORSDOF 5
