REMARK  Name = ZINC14238664
REMARK  7 active torsions:
REMARK  status: ('A' for Active; 'I' for Inactive)
REMARK    1  A    between atoms: C_1  and  C_2
REMARK    2  A    between atoms: C_2  and  C_3
REMARK    3  A    between atoms: C_2  and  C_4
REMARK    4  A    between atoms: N_9  and  C_11
REMARK    5  A    between atoms: C_11  and  N_12
REMARK    6  A    between atoms: N_15  and  S_18
REMARK    7  A    between atoms: S_18  and  C_21
REMARK                            x       y       z     vdW  Elec       q    Type
REMARK                         _______ _______ _______ _____ _____    ______ ____
ROOT
ATOM      1  N   UNL     1       1.077   7.991   4.395  0.00  0.00    -0.281 NA
ATOM      2  C   UNL     1       2.288   7.637   3.643  0.00  0.00    +0.103 C 
ATOM      3  C   UNL     1       2.314   8.420   2.326  0.00  0.00    +0.125 C 
ATOM      4  N   UNL     1       1.048   8.184   1.616  0.00  0.00    -0.174 NA
ATOM      5  C   UNL     1      -0.210   8.392   2.348  0.00  0.00    +0.125 C 
ATOM      6  C   UNL     1      -0.137   7.604   3.665  0.00  0.00    +0.103 C 
ENDROOT
BRANCH   4   7
ATOM      7  S   UNL     1       1.040   7.702   0.031  0.00  0.00    +0.061 S 
ATOM      8  O   UNL     1       2.275   8.128  -0.529  0.00  0.00    -0.153 OA
ATOM      9  O   UNL     1      -0.216   8.094  -0.506  0.00  0.00    -0.153 OA
BRANCH   7  10
ATOM     10  C   UNL     1       1.064   5.940   0.022  0.00  0.00    +0.106 A 
ATOM     11  C   UNL     1       2.286   5.270   0.008  0.00  0.00    +0.029 A 
ATOM     12  C   UNL     1       2.340   3.910  -0.000  0.00  0.00    +0.010 A 
ATOM     13  C   UNL     1       1.147   3.167   0.008  0.00  0.00    -0.018 A 
ATOM     14  C   UNL     1       1.163   1.762   0.000  0.00  0.00    +0.008 A 
ATOM     15  C   UNL     1      -0.013   1.076   0.008  0.00  0.00    +0.001 A 
ATOM     16  C   UNL     1      -1.235   1.746   0.017  0.00  0.00    +0.001 A 
ATOM     17  C   UNL     1      -1.288   3.106   0.030  0.00  0.00    +0.008 A 
ATOM     18  C   UNL     1      -0.096   3.849   0.023  0.00  0.00    -0.016 A 
ATOM     19  C   UNL     1      -0.111   5.254   0.030  0.00  0.00    +0.037 A 
ENDBRANCH   7  10
ENDBRANCH   4   7
BRANCH   1  20
ATOM     20  C   UNL     1       1.098   7.394   5.737  0.00  0.00    +0.233 C 
BRANCH  20  26
ATOM     21  C   UNL     1      -2.274   7.170   6.976  0.00  0.00    +0.132 A 
ATOM     22  N   UNL     1      -1.878   8.372   7.510  0.00  0.00    -0.321 N 
ATOM     23  H   UNL     1      -2.576   8.957   8.126  0.00  0.00    +0.169 HD
ATOM     24  C   UNL     1      -0.604   8.604   7.134  0.00  0.00    +0.177 A 
ATOM     25  S   UNL     1       0.343   9.968   7.550  0.00  0.00    -0.011 S 
ATOM     26  N   UNL     1      -0.214   7.564   6.368  0.00  0.00    -0.226 N 
ATOM     27  N   UNL     1      -1.294   6.674   6.292  0.00  0.00    -0.155 NA
BRANCH  21  29
ATOM     28  C   UNL     1      -3.646   5.738   8.465  0.00  0.00    +0.015 C 
ATOM     29  C   UNL     1      -3.628   6.534   7.158  0.00  0.00    +0.051 C 
ATOM     30  C   UNL     1      -4.701   7.623   7.210  0.00  0.00    +0.015 C 
ENDBRANCH  21  29
ENDBRANCH  20  26
ENDBRANCH   1  20
TORSDOF 5
