REMARK  Name = ZINC35286285
REMARK  5 active torsions:
REMARK  status: ('A' for Active; 'I' for Inactive)
REMARK    1  A    between atoms: C_1  and  C_2
REMARK    2  A    between atoms: C_2  and  C_4
REMARK    3  A    between atoms: C_2  and  N_10
REMARK    4  A    between atoms: N_10  and  C_11
REMARK    5  A    between atoms: C_14  and  C_17
REMARK                            x       y       z     vdW  Elec       q    Type
REMARK                         _______ _______ _______ _____ _____    ______ ____
ROOT
ATOM      1  C   UNL     1       2.100  -0.604   1.173  0.00  0.00    +0.028 A 
ATOM      2  C   UNL     1       2.813  -0.251   0.032  0.00  0.00    +0.023 A 
ATOM      3  C   UNL     1       4.186  -0.363   0.013  0.00  0.00    +0.015 A 
ATOM      4  C   UNL     1       4.862  -0.831   1.142  0.00  0.00    +0.039 A 
ATOM      5  C   UNL     1       4.144  -1.184   2.286  0.00  0.00    +0.015 A 
ATOM      6  C   UNL     1       2.772  -1.065   2.301  0.00  0.00    +0.023 A 
ENDROOT
BRANCH   4   7
ATOM      7  C   UNL     1       6.334  -0.952   1.125  0.00  0.00    +0.248 A 
ATOM      8  N   UNL     1       7.129  -0.652   0.124  0.00  0.00    -0.108 NA
ATOM      9  N   UNL     1       8.348  -0.884   0.466  0.00  0.00    -0.116 NA
ATOM     10  C   UNL     1       8.379  -1.337   1.688  0.00  0.00    +0.332 A 
ATOM     11  O   UNL     1       7.113  -1.386   2.137  0.00  0.00    -0.423 OA
ENDBRANCH   4   7
BRANCH   1  12
ATOM     12  N   UNL     1       0.711  -0.489   1.189  0.00  0.00    -0.337 N 
ATOM     13  H   UNL     1       0.213  -0.731   1.986  0.00  0.00    +0.147 HD
BRANCH  12  15
ATOM     14  C   UNL     1      -0.019   1.526   0.010  0.00  0.00    +0.033 C 
ATOM     15  C   UNL     1       0.002  -0.004   0.002  0.00  0.00    +0.104 C 
BRANCH  15  16
ATOM     16  C   UNL     1      -1.412  -0.526   0.013  0.00  0.00    +0.011 A 
ATOM     17  C   UNL     1      -2.157  -0.992  -1.019  0.00  0.00    +0.014 A 
ATOM     18  C   UNL     1      -3.447  -1.424  -0.772  0.00  0.00    +0.028 A 
ATOM     19  C   UNL     1      -3.928  -1.369   0.495  0.00  0.00    +0.078 A 
ATOM     20  S   UNL     1      -2.536  -0.697   1.389  0.00  0.00    -0.080 S 
ATOM     21 CL   UNL     1      -5.489  -1.836   1.093  0.00  0.00    -0.076 Cl
ENDBRANCH  15  16
ENDBRANCH  12  15
ENDBRANCH   1  12
TORSDOF 4
