REMARK  Name = ZINC11694769
REMARK  6 active torsions:
REMARK  status: ('A' for Active; 'I' for Inactive)
REMARK    1  A    between atoms: C_1  and  C_2
REMARK    2  A    between atoms: C_5  and  N_9
REMARK    3  A    between atoms: C_6  and  C_8
REMARK    4  A    between atoms: C_10  and  C_12
REMARK    5  A    between atoms: C_14  and  C_30
REMARK    6  A    between atoms: C_22  and  C_24
REMARK                            x       y       z     vdW  Elec       q    Type
REMARK                         _______ _______ _______ _____ _____    ______ ____
ROOT
ATOM      1  C   UNL     1      -3.233   6.060  -0.408  0.00  0.00    +0.124 C 
ATOM      2  C   UNL     1      -4.193   5.838  -1.582  0.00  0.00    +0.084 C 
ATOM      3  N   UNL     1      -3.963   6.896  -2.585  0.00  0.00    -0.310 N 
ATOM      4  C   UNL     1      -3.810   8.185  -2.093  0.00  0.00    +0.214 A 
ATOM      5  N   UNL     1      -3.824   9.326  -2.727  0.00  0.00    -0.202 NA
ATOM      6  C   UNL     1      -3.642  10.324  -1.854  0.00  0.00    +0.247 A 
ATOM      7  N   UNL     1      -3.509   9.824  -0.651  0.00  0.00    -0.156 NA
ATOM      8  N   UNL     1      -3.613   8.439  -0.776  0.00  0.00    -0.225 N 
ATOM      9  C   UNL     1      -3.534   7.408   0.258  0.00  0.00    +0.154 C 
ATOM     10  C   UNL     1      -5.638   5.906  -1.084  0.00  0.00    +0.028 C 
ATOM     11  H   UNL     1      -3.921   6.702  -3.535  0.00  0.00    +0.149 HD
ENDROOT
BRANCH   9  12
ATOM     12  C   UNL     1      -2.431   7.749   1.228  0.00  0.00    -0.022 A 
ATOM     13  C   UNL     1      -2.618   7.556   2.583  0.00  0.00    +0.006 A 
ATOM     14  C   UNL     1      -1.605   7.864   3.472  0.00  0.00    +0.000 A 
ATOM     15  C   UNL     1      -0.409   8.376   3.006  0.00  0.00    +0.000 A 
ATOM     16  C   UNL     1      -0.224   8.575   1.651  0.00  0.00    +0.000 A 
ATOM     17  C   UNL     1      -1.235   8.262   0.761  0.00  0.00    +0.006 A 
ENDBRANCH   9  12
BRANCH   1  19
ATOM     18  N   UNL     1      -0.840   5.474  -0.185  0.00  0.00    -0.285 N 
ATOM     19  C   UNL     1      -1.813   6.056  -0.913  0.00  0.00    +0.224 C 
ATOM     20  O   UNL     1      -1.546   6.577  -1.976  0.00  0.00    -0.275 OA
ATOM     21  H   UNL     1      -1.064   4.989   0.625  0.00  0.00    +0.155 HD
BRANCH  18  26
ATOM     22  C   UNL     1       4.568   5.858  -1.856  0.00  0.00    +0.044 C 
ATOM     23  C   UNL     1       3.131   5.756  -1.412  0.00  0.00    -0.050 A 
ATOM     24  C   UNL     1       2.193   6.647  -1.901  0.00  0.00    +0.005 A 
ATOM     25  C   UNL     1       0.876   6.556  -1.496  0.00  0.00    +0.024 A 
ATOM     26  C   UNL     1       0.494   5.569  -0.597  0.00  0.00    +0.036 A 
ATOM     27  C   UNL     1       1.437   4.673  -0.111  0.00  0.00    -0.029 A 
ATOM     28  C   UNL     1       2.754   4.773  -0.516  0.00  0.00    +0.008 A 
ATOM     29  C   UNL     1       1.026   3.597   0.860  0.00  0.00    +0.045 C 
ENDBRANCH  18  26
ENDBRANCH   1  19
TORSDOF 3
