REMARK  Name = ZINC05735421
REMARK  6 active torsions:
REMARK  status: ('A' for Active; 'I' for Inactive)
REMARK    1  A    between atoms: C_4  and  C_7
REMARK    2  A    between atoms: C_7  and  C_9
REMARK    3  A    between atoms: C_14  and  N_15
REMARK    4  A    between atoms: C_16  and  C_18
REMARK    5  A    between atoms: C_18  and  C_19
REMARK    6  A    between atoms: C_24  and  N_25
REMARK                            x       y       z     vdW  Elec       q    Type
REMARK                         _______ _______ _______ _____ _____    ______ ____
ROOT
ATOM      1  C   UNL     1       3.666  -1.500  -0.452  0.00  0.00    +0.045 A 
ATOM      2  C   UNL     1       2.364  -1.942  -0.708  0.00  0.00    +0.033 A 
ATOM      3  C   UNL     1       2.132  -3.272  -0.985  0.00  0.00    +0.042 A 
ATOM      4  C   UNL     1       3.184  -4.176  -1.012  0.00  0.00    +0.022 A 
ATOM      5  C   UNL     1       4.474  -3.754  -0.761  0.00  0.00    +0.025 A 
ATOM      6  C   UNL     1       4.729  -2.417  -0.485  0.00  0.00    +0.044 A 
ATOM      7 CL   UNL     1       0.516  -3.819  -1.302  0.00  0.00    -0.084 Cl
ENDROOT
BRANCH   6   8
ATOM      8  N   UNL     1       6.030  -1.989  -0.238  0.00  0.00    -0.285 N 
ATOM      9  C   UNL     1       7.067  -2.598  -0.847  0.00  0.00    +0.222 C 
ATOM     10  O   UNL     1       6.874  -3.570  -1.546  0.00  0.00    -0.275 OA
ATOM     11  H   UNL     1       6.191  -1.252   0.372  0.00  0.00    +0.155 HD
BRANCH   9  12
ATOM     12  C   UNL     1       8.467  -2.071  -0.658  0.00  0.00    +0.133 C 
BRANCH  12  13
ATOM     13  C   UNL     1       9.434  -2.924  -1.439  0.00  0.00    -0.008 A 
ATOM     14  C   UNL     1      10.218  -3.855  -0.784  0.00  0.00    +0.006 A 
ATOM     15  C   UNL     1      11.105  -4.637  -1.500  0.00  0.00    +0.000 A 
ATOM     16  C   UNL     1      11.207  -4.488  -2.870  0.00  0.00    +0.002 A 
ATOM     17  C   UNL     1      10.422  -3.558  -3.525  0.00  0.00    +0.033 A 
ATOM     18  C   UNL     1       9.532  -2.779  -2.810  0.00  0.00    +0.130 A 
BRANCH  18  19
ATOM     19  N   UNL     1       8.688  -1.786  -3.511  0.00  0.00    +0.057 N 
ATOM     20  O   UNL     1       8.739  -1.692  -4.716  0.00  0.00    -0.126 OA
ATOM     21  O   UNL     1       7.947  -1.068  -2.880  0.00  0.00    -0.126 OA
ENDBRANCH  18  19
ENDBRANCH  12  13
ENDBRANCH   9  12
ENDBRANCH   6   8
BRANCH   1  22
ATOM     22  C   UNL     1       3.922  -0.079  -0.155  0.00  0.00    +0.195 C 
ATOM     23  O   UNL     1       3.646   0.372   0.940  0.00  0.00    -0.287 OA
BRANCH  22  27
ATOM     24  C   UNL     1       5.622   2.439  -3.123  0.00  0.00    +0.000 A 
ATOM     25  C   UNL     1       5.234   2.973  -1.907  0.00  0.00    +0.001 A 
ATOM     26  C   UNL     1       4.681   2.161  -0.938  0.00  0.00    +0.012 A 
ATOM     27  C   UNL     1       4.513   0.797  -1.188  0.00  0.00    +0.022 A 
ATOM     28  C   UNL     1       4.907   0.265  -2.417  0.00  0.00    +0.012 A 
ATOM     29  C   UNL     1       5.458   1.088  -3.377  0.00  0.00    +0.001 A 
ENDBRANCH  22  27
ENDBRANCH   1  22
TORSDOF 6
