REMARK  Name = ZINC38627027
REMARK  7 active torsions:
REMARK  status: ('A' for Active; 'I' for Inactive)
REMARK    1  A    between atoms: C_1  and  C_2
REMARK    2  A    between atoms: C_2  and  O_3
REMARK    3  A    between atoms: O_3  and  C_4
REMARK    4  A    between atoms: C_4  and  C_6
REMARK    5  A    between atoms: C_8  and  N_17
REMARK    6  A    between atoms: C_18  and  C_20
REMARK    7  A    between atoms: C_20  and  N_21
REMARK                            x       y       z     vdW  Elec       q    Type
REMARK                         _______ _______ _______ _____ _____    ______ ____
ROOT
ATOM      1  C   UNL     1       1.383  -2.366  -2.479  0.00  0.00    +0.234 C 
ATOM      2  C   UNL     1       0.479  -2.469  -3.688  0.00  0.00    +0.053 C 
ATOM      3  C   UNL     1       0.484  -3.805  -4.048  0.00  0.00    +0.019 A 
ATOM      4  C   UNL     1      -0.162  -4.516  -5.088  0.00  0.00    +0.026 A 
ATOM      5  C   UNL     1       0.029  -5.854  -5.207  0.00  0.00    +0.019 A 
ATOM      6  C   UNL     1       0.853  -6.558  -4.324  0.00  0.00    +0.017 A 
ATOM      7  C   UNL     1       1.503  -5.942  -3.307  0.00  0.00    +0.027 A 
ATOM      8  C   UNL     1       1.354  -4.544  -3.117  0.00  0.00    +0.045 A 
ATOM      9  N   UNL     1       1.869  -3.725  -2.220  0.00  0.00    -0.367 N 
ATOM     10 BR   UNL     1      -0.842  -6.789  -6.601  0.00  0.00    -0.050 Br
ATOM     11  H   UNL     1       2.473  -3.980  -1.505  0.00  0.00    +0.161 HD
ENDROOT
BRANCH   2  12
ATOM     12  N   UNL     1      -0.200  -1.455  -4.294  0.00  0.00    -0.285 N 
ATOM     13  C   UNL     1       0.029  -0.178  -3.931  0.00  0.00    +0.234 C 
ATOM     14  O   UNL     1       0.913   0.079  -3.142  0.00  0.00    -0.274 OA
ATOM     15  H   UNL     1      -0.849  -1.653  -4.988  0.00  0.00    +0.155 HD
BRANCH  13  16
ATOM     16  C   UNL     1      -0.813   0.932  -4.506  0.00  0.00    +0.199 C 
BRANCH  16  17
ATOM     17  N   UNL     1      -0.368   2.216  -3.959  0.00  0.00    -0.315 N 
ATOM     18  C   UNL     1      -0.998   3.389  -4.345  0.00  0.00    +0.158 A 
ATOM     19  N   UNL     1      -2.006   3.541  -5.178  0.00  0.00    -0.233 NA
ATOM     20  C   UNL     1      -2.497   4.738  -5.442  0.00  0.00    +0.120 A 
ATOM     21  C   UNL     1      -1.919   5.793  -4.819  0.00  0.00    +0.068 A 
ATOM     22  S   UNL     1      -0.666   4.964  -3.855  0.00  0.00    -0.061 S 
ATOM     23  H   UNL     1       0.367   2.245  -3.327  0.00  0.00    +0.148 HD
ENDBRANCH  16  17
ENDBRANCH  13  16
ENDBRANCH   2  12
BRANCH   1  24
ATOM     24  C   UNL     1       0.607  -1.857  -1.292  0.00  0.00    +0.336 C 
ATOM     25  O   UNL     1       0.098  -2.638  -0.523  0.00  0.00    -0.248 OA
BRANCH  24  26
ATOM     26  O   UNL     1       0.482  -0.537  -1.088  0.00  0.00    -0.463 OA
BRANCH  26  28
ATOM     27  C   UNL     1      -0.299   1.403   0.123  0.00  0.00    +0.048 C 
ATOM     28  C   UNL     1      -0.267  -0.125   0.058  0.00  0.00    +0.229 C 
ENDBRANCH  26  28
ENDBRANCH  24  26
ENDBRANCH   1  24
TORSDOF 6
