REMARK  Name = ZINC03181786
REMARK  3 active torsions:
REMARK  status: ('A' for Active; 'I' for Inactive)
REMARK    1  A    between atoms: C_3  and  N_17
REMARK    2  A    between atoms: C_8  and  C_9
REMARK    3  A    between atoms: C_8  and  C_11
REMARK                            x       y       z     vdW  Elec       q    Type
REMARK                         _______ _______ _______ _____ _____    ______ ____
ROOT
ATOM      1  C   UNL     1      -0.019   1.527   0.010  0.00  0.00    +0.014 C 
ATOM      2  C   UNL     1       1.425   2.039  -0.001  0.00  0.00    +0.049 C 
ATOM      3  C   UNL     1       2.144   1.490  -1.203  0.00  0.00    -0.009 C 
ATOM      4  C   UNL     1       1.816   0.315  -1.735  0.00  0.00    +0.021 C 
ATOM      5  C   UNL     1       0.771  -0.480  -1.203  0.00  0.00    -0.043 C 
ATOM      6  C   UNL     1       0.472  -1.671  -1.786  0.00  0.00    +0.009 C 
ATOM      7  C   UNL     1      -0.559  -2.485  -1.312  0.00  0.00    -0.019 C 
ATOM      8  C   UNL     1      -0.822  -3.693  -1.938  0.00  0.00    +0.131 C 
ATOM      9  C   UNL     1      -1.389  -2.065  -0.126  0.00  0.00    +0.038 C 
ATOM     10  C   UNL     1      -1.432  -0.535  -0.063  0.00  0.00    +0.013 C 
ATOM     11  C   UNL     1       0.002  -0.004   0.002  0.00  0.00    +0.020 C 
ENDROOT
BRANCH   3  12
ATOM     12  N   UNL     1       3.182   2.231  -1.774  0.00  0.00    -0.393 NA
ATOM     13  C   UNL     1       4.241   2.440  -0.777  0.00  0.00    +0.113 C 
ATOM     14  C   UNL     1       5.377   3.252  -1.405  0.00  0.00    +0.177 C 
ATOM     15  O   UNL     1       4.858   4.494  -1.888  0.00  0.00    -0.377 OA
ATOM     16  C   UNL     1       3.806   4.343  -2.845  0.00  0.00    +0.177 C 
ATOM     17  C   UNL     1       2.667   3.533  -2.220  0.00  0.00    +0.113 C 
ATOM     18  H   UNL     1       3.558   1.730  -2.565  0.00  0.00    +0.126 HD
ENDBRANCH   3  12
BRANCH   8  19
ATOM     19  C   UNL     1      -0.038  -4.100  -3.065  0.00  0.00    +0.110 C 
ATOM     20  N   UNL     1       0.584  -4.423  -3.959  0.00  0.00    -0.190 NA
ENDBRANCH   8  19
BRANCH   8  21
ATOM     21  C   UNL     1      -1.877  -4.534  -1.458  0.00  0.00    +0.110 C 
ATOM     22  N   UNL     1      -2.714  -5.201  -1.078  0.00  0.00    -0.190 NA
ENDBRANCH   8  21
TORSDOF 3
