REMARK  Name = ZINC59446764
REMARK  3 active torsions:
REMARK  status: ('A' for Active; 'I' for Inactive)
REMARK    1  A    between atoms: C_4  and  C_7
REMARK    2  A    between atoms: C_7  and  O_8
REMARK    3  A    between atoms: O_8  and  N_9
REMARK                            x       y       z     vdW  Elec       q    Type
REMARK                         _______ _______ _______ _____ _____    ______ ____
ROOT
ATOM      1  N   UNL     1       5.251  -1.842   1.413  0.00  0.00    -0.151 N 
ATOM      2  C   UNL     1       5.157  -3.304   1.409  0.00  0.00    +0.229 C 
ATOM      3  C   UNL     1       4.270  -3.720   0.268  0.00  0.00    +0.035 A 
ATOM      4  C   UNL     1       3.168  -2.938  -0.039  0.00  0.00    +0.011 A 
ATOM      5  C   UNL     1       2.323  -3.293  -1.071  0.00  0.00    +0.001 A 
ATOM      6  C   UNL     1       2.575  -4.438  -1.805  0.00  0.00    +0.004 A 
ATOM      7  C   UNL     1       3.672  -5.219  -1.508  0.00  0.00    +0.046 A 
ATOM      8  C   UNL     1       4.531  -4.862  -0.472  0.00  0.00    +0.129 A 
ATOM      9  O   UNL     1       5.613  -5.649  -0.240  0.00  0.00    -0.473 OA
ATOM     10  C   UNL     1       6.284  -5.524   1.017  0.00  0.00    +0.341 C 
ATOM     11  N   UNL     1       6.388  -4.095   1.319  0.00  0.00    -0.272 N 
ATOM     12  C   UNL     1       7.616  -3.479   1.497  0.00  0.00    +0.046 A 
ATOM     13  C   UNL     1       8.778  -4.235   1.579  0.00  0.00    +0.024 A 
ATOM     14  C   UNL     1       9.996  -3.612   1.759  0.00  0.00    +0.002 A 
ATOM     15  C   UNL     1      10.069  -2.232   1.860  0.00  0.00    +0.001 A 
ATOM     16  C   UNL     1       8.927  -1.466   1.781  0.00  0.00    +0.015 A 
ATOM     17  C   UNL     1       7.686  -2.080   1.598  0.00  0.00    +0.060 A 
ATOM     18  C   UNL     1       6.465  -1.260   1.510  0.00  0.00    +0.273 C 
ATOM     19  O   UNL     1       6.552  -0.048   1.522  0.00  0.00    -0.268 OA
ENDROOT
BRANCH   1  20
ATOM     20  O   UNL     1       4.083  -1.048   1.309  0.00  0.00    -0.270 OA
BRANCH  20  21
ATOM     21  C   UNL     1       3.562  -0.615   2.567  0.00  0.00    +0.225 C 
BRANCH  21  25
ATOM     22  C   UNL     1      -0.122   1.457   1.946  0.00  0.00    +0.000 A 
ATOM     23  C   UNL     1      -0.114   0.079   2.054  0.00  0.00    +0.000 A 
ATOM     24  C   UNL     1       1.079  -0.591   2.255  0.00  0.00    +0.006 A 
ATOM     25  C   UNL     1       2.263   0.116   2.347  0.00  0.00    -0.020 A 
ATOM     26  C   UNL     1       2.254   1.494   2.238  0.00  0.00    +0.006 A 
ATOM     27  C   UNL     1       1.062   2.165   2.039  0.00  0.00    +0.000 A 
ENDBRANCH  21  25
ENDBRANCH  20  21
ENDBRANCH   1  20
TORSDOF 3
