REMARK  Name = ZINC37840353
REMARK  4 active torsions:
REMARK  status: ('A' for Active; 'I' for Inactive)
REMARK    1  A    between atoms: C_1  and  C_2
REMARK    2  A    between atoms: C_3  and  S_8
REMARK    3  A    between atoms: S_8  and  N_11
REMARK    4  A    between atoms: C_14  and  C_24
REMARK                            x       y       z     vdW  Elec       q    Type
REMARK                         _______ _______ _______ _____ _____    ______ ____
ROOT
ATOM      1  N   UNL     1      -1.557   0.680  -3.226  0.00  0.00    -0.173 NA
ATOM      2  C   UNL     1      -2.736  -0.127  -3.576  0.00  0.00    +0.110 C 
ATOM      3  C   UNL     1      -3.249   0.304  -4.953  0.00  0.00    +0.020 C 
ATOM      4  C   UNL     1      -3.488   1.817  -4.964  0.00  0.00    -0.008 C 
ATOM      5  C   UNL     1      -2.171   2.536  -4.677  0.00  0.00    +0.011 C 
ATOM      6  C   UNL     1      -1.678   2.141  -3.277  0.00  0.00    +0.083 C 
ATOM      7  C   UNL     1      -0.324   2.800  -3.017  0.00  0.00    +0.021 C 
ATOM      8  C   UNL     1      -0.492   4.322  -3.072  0.00  0.00    +0.002 C 
ATOM      9  C   UNL     1      -1.017   4.738  -4.446  0.00  0.00    +0.000 C 
ATOM     10  C   UNL     1      -2.362   4.052  -4.721  0.00  0.00    +0.005 C 
ATOM     11  C   UNL     1      -4.016   2.241  -6.336  0.00  0.00    +0.008 C 
ENDROOT
BRANCH   1  12
ATOM     12  S   UNL     1      -0.135  -0.042  -2.781  0.00  0.00    +0.064 S 
ATOM     13  O   UNL     1      -0.404  -1.432  -2.663  0.00  0.00    -0.153 OA
ATOM     14  O   UNL     1       0.391   0.726  -1.707  0.00  0.00    -0.153 OA
BRANCH  12  17
ATOM     15  C   UNL     1      -0.254  -1.333  -5.799  0.00  0.00    +0.067 C 
ATOM     16  C   UNL     1       0.864  -0.428  -5.349  0.00  0.00    +0.059 A 
ATOM     17  C   UNL     1       0.987   0.142  -4.128  0.00  0.00    +0.145 A 
ATOM     18  C   UNL     1       2.160   0.903  -4.123  0.00  0.00    +0.163 A 
ATOM     19  N   UNL     1       2.722   0.794  -5.300  0.00  0.00    -0.180 NA
ATOM     20  N   UNL     1       1.926  -0.046  -6.089  0.00  0.00    -0.280 N 
ATOM     21  H   UNL     1       2.104  -0.305  -7.007  0.00  0.00    +0.189 HD
ENDBRANCH  12  17
ENDBRANCH   1  12
TORSDOF 2
