REMARK  Name = ZINC10121486
REMARK  4 active torsions:
REMARK  status: ('A' for Active; 'I' for Inactive)
REMARK    1  A    between atoms: C_1  and  C_2
REMARK    2  A    between atoms: C_2  and  C_19
REMARK    3  A    between atoms: C_7  and  N_8
REMARK    4  A    between atoms: N_8  and  C_9
REMARK                            x       y       z     vdW  Elec       q    Type
REMARK                         _______ _______ _______ _____ _____    ______ ____
ROOT
ATOM      1  C   UNL     1       1.991   1.710  -1.329  0.00  0.00    +0.104 C 
ATOM      2  C   UNL     1       1.291   1.999   0.001  0.00  0.00    +0.255 C 
ATOM      3  O   UNL     1      -0.016   1.358   0.009  0.00  0.00    -0.419 OA
ATOM      4  C   UNL     1       0.002  -0.004   0.002  0.00  0.00    +0.350 C 
ATOM      5  O   UNL     1      -0.712  -0.661  -0.731  0.00  0.00    -0.245 OA
ATOM      6  C   UNL     1       0.956  -0.629   0.953  0.00  0.00    +0.157 C 
ATOM      7  C   UNL     1       0.690  -1.817   1.607  0.00  0.00    +0.094 C 
ATOM      8  C   UNL     1       2.220   0.127   1.142  0.00  0.00    +0.350 C 
ATOM      9  O   UNL     1       3.288  -0.425   1.325  0.00  0.00    -0.245 OA
ATOM     10  O   UNL     1       2.098   1.483   1.096  0.00  0.00    -0.419 OA
ATOM     11  C   UNL     1       1.117   3.511   0.165  0.00  0.00    +0.104 C 
ENDROOT
BRANCH   7  12
ATOM     12  N   UNL     1       1.598  -2.335   2.461  0.00  0.00    -0.319 N 
ATOM     13  H   UNL     1       2.437  -1.874   2.615  0.00  0.00    +0.152 HD
BRANCH  12  14
ATOM     14  C   UNL     1       1.328  -3.537   3.123  0.00  0.00    +0.045 A 
ATOM     15  C   UNL     1       0.124  -4.195   2.908  0.00  0.00    +0.024 A 
ATOM     16  C   UNL     1      -0.137  -5.384   3.560  0.00  0.00    +0.002 A 
ATOM     17  C   UNL     1       0.794  -5.914   4.434  0.00  0.00    +0.001 A 
ATOM     18  C   UNL     1       1.992  -5.260   4.655  0.00  0.00    +0.017 A 
ATOM     19  C   UNL     1       2.262  -4.072   4.002  0.00  0.00    +0.039 A 
ATOM     20 BR   UNL     1       3.900  -3.176   4.305  0.00  0.00    -0.048 Br
ENDBRANCH  12  14
ENDBRANCH   7  12
TORSDOF 2
