REMARK  Name = ZINC39780167
REMARK  7 active torsions:
REMARK  status: ('A' for Active; 'I' for Inactive)
REMARK    1  A    between atoms: C_1  and  O_2
REMARK    2  A    between atoms: O_2  and  C_3
REMARK    3  A    between atoms: C_8  and  N_9
REMARK    4  A    between atoms: C_13  and  C_14
REMARK    5  A    between atoms: N_25  and  C_28
REMARK    6  A    between atoms: C_33  and  O_34
REMARK    7  A    between atoms: O_34  and  C_35
REMARK                            x       y       z     vdW  Elec       q    Type
REMARK                         _______ _______ _______ _____ _____    ______ ____
ROOT
ATOM      1  N   UNL     1      -0.729  -4.053   0.287  0.00  0.00    -0.186 N 
ATOM      2  C   UNL     1       0.050  -4.146   1.385  0.00  0.00    +0.264 C 
ATOM      3  O   UNL     1      -0.438  -4.148   2.499  0.00  0.00    -0.269 OA
ATOM      4  C   UNL     1       1.511  -4.248   1.196  0.00  0.00    +0.101 C 
ATOM      5  C   UNL     1       2.377  -4.348   2.277  0.00  0.00    +0.024 C 
ATOM      6  C   UNL     1       2.010  -4.238  -0.194  0.00  0.00    +0.264 C 
ATOM      7  O   UNL     1       3.200  -4.318  -0.431  0.00  0.00    -0.269 OA
ATOM      8  N   UNL     1       1.109  -4.139  -1.193  0.00  0.00    -0.186 N 
ATOM      9  C   UNL     1      -0.206  -4.056  -0.947  0.00  0.00    +0.327 C 
ATOM     10  O   UNL     1      -0.964  -3.974  -1.893  0.00  0.00    -0.251 OA
ENDROOT
BRANCH   5  11
ATOM     11  C   UNL     1       3.496  -5.183   2.202  0.00  0.00    -0.018 C 
ATOM     12  C   UNL     1       4.189  -5.760   3.261  0.00  0.00    +0.003 A 
ATOM     13  C   UNL     1       4.019  -5.708   4.661  0.00  0.00    +0.010 A 
ATOM     14  C   UNL     1       4.862  -6.384   5.476  0.00  0.00    +0.001 A 
ATOM     15  C   UNL     1       5.926  -7.155   4.986  0.00  0.00    +0.002 A 
ATOM     16  C   UNL     1       6.174  -7.270   3.662  0.00  0.00    +0.026 A 
ATOM     17  C   UNL     1       5.303  -6.565   2.708  0.00  0.00    +0.043 A 
ATOM     18  N   UNL     1       5.312  -6.501   1.405  0.00  0.00    -0.380 N 
ATOM     19  C   UNL     1       4.205  -5.654   0.951  0.00  0.00    +0.149 C 
ATOM     20  H   UNL     1       5.950  -6.947   0.827  0.00  0.00    +0.160 HD
ENDBRANCH   5  11
BRANCH   1  26
ATOM     21  C   UNL     1      -2.725  -2.707   0.552  0.00  0.00    +0.142 A 
ATOM     22  C   UNL     1      -4.100  -2.617   0.698  0.00  0.00    +0.047 A 
ATOM     23  C   UNL     1      -4.867  -3.766   0.739  0.00  0.00    +0.004 A 
ATOM     24  C   UNL     1      -4.267  -5.007   0.635  0.00  0.00    +0.002 A 
ATOM     25  C   UNL     1      -2.896  -5.105   0.489  0.00  0.00    +0.028 A 
ATOM     26  C   UNL     1      -2.120  -3.956   0.441  0.00  0.00    +0.087 A 
BRANCH  21  28
ATOM     27  C   UNL     1      -2.658  -0.331   0.631  0.00  0.00    +0.277 C 
ATOM     28  O   UNL     1      -1.969  -1.577   0.511  0.00  0.00    -0.493 OA
ENDBRANCH  21  28
ENDBRANCH   1  26
BRANCH   8  29
ATOM     29  C   UNL     1       1.558  -4.128  -2.522  0.00  0.00    +0.087 A 
ATOM     30  C   UNL     1       1.688  -5.319  -3.222  0.00  0.00    +0.028 A 
ATOM     31  C   UNL     1       2.131  -5.305  -4.531  0.00  0.00    +0.002 A 
ATOM     32  C   UNL     1       2.446  -4.107  -5.146  0.00  0.00    +0.004 A 
ATOM     33  C   UNL     1       2.319  -2.917  -4.455  0.00  0.00    +0.047 A 
ATOM     34  C   UNL     1       1.871  -2.921  -3.144  0.00  0.00    +0.142 A 
BRANCH  34  35
ATOM     35  O   UNL     1       1.740  -1.751  -2.464  0.00  0.00    -0.493 OA
ATOM     36  C   UNL     1       2.079  -0.553  -3.165  0.00  0.00    +0.277 C 
ENDBRANCH  34  35
ENDBRANCH   8  29
TORSDOF 5
