REMARK  Name = ZINC35651974
REMARK  3 active torsions:
REMARK  status: ('A' for Active; 'I' for Inactive)
REMARK    1  A    between atoms: C_3  and  N_14
REMARK    2  A    between atoms: C_6  and  N_7
REMARK    3  A    between atoms: N_7  and  C_8
REMARK                            x       y       z     vdW  Elec       q    Type
REMARK                         _______ _______ _______ _____ _____    ______ ____
ROOT
ATOM      1  C   UNL     1      -0.017   1.385   0.010  0.00  0.00    +0.025 A 
ATOM      2  C   UNL     1       1.169   2.091   0.002  0.00  0.00    +0.030 A 
ATOM      3  C   UNL     1       2.381   1.413  -0.013  0.00  0.00    +0.069 A 
ATOM      4  C   UNL     1       2.400   0.025  -0.022  0.00  0.00    +0.030 A 
ATOM      5  C   UNL     1       1.215  -0.682  -0.014  0.00  0.00    +0.025 A 
ATOM      6  C   UNL     1       0.002  -0.004   0.002  0.00  0.00    +0.027 A 
ENDROOT
BRANCH   3   7
ATOM      7  N   UNL     1       3.587   2.132  -0.022  0.00  0.00    -0.200 N 
ATOM      8  C   UNL     1       4.840   1.630  -0.042  0.00  0.00    +0.250 A 
ATOM      9  N   UNL     1       5.665   2.645  -0.043  0.00  0.00    -0.116 NA
ATOM     10  N   UNL     1       5.018   3.754  -0.025  0.00  0.00    -0.023 NA
ATOM     11  N   UNL     1       3.748   3.529  -0.016  0.00  0.00    -0.039 NA
ENDBRANCH   3   7
BRANCH   6  12
ATOM     12  N   UNL     1      -1.198  -0.720   0.010  0.00  0.00    -0.341 N 
ATOM     13  H   UNL     1      -2.045  -0.246   0.021  0.00  0.00    +0.146 HD
BRANCH  12  14
ATOM     14  C   UNL     1      -1.178  -2.184   0.002  0.00  0.00    +0.072 C 
ATOM     15  C   UNL     1      -0.999  -2.692   1.430  0.00  0.00    +0.033 C 
ATOM     16  C   UNL     1      -0.686  -4.191   1.415  0.00  0.00    +0.071 C 
ATOM     17  S   UNL     1      -2.101  -5.074   0.691  0.00  0.00    -0.161 S 
ATOM     18  C   UNL     1      -2.369  -4.202  -0.881  0.00  0.00    +0.071 C 
ATOM     19  C   UNL     1      -2.483  -2.701  -0.597  0.00  0.00    +0.033 C 
ENDBRANCH  12  14
ENDBRANCH   6  12
TORSDOF 3
