REMARK  Name = ZINC04646727
REMARK  2 active torsions:
REMARK  status: ('A' for Active; 'I' for Inactive)
REMARK    1  A    between atoms: C_5  and  C_6
REMARK    2  A    between atoms: N_8  and  N_9
REMARK                            x       y       z     vdW  Elec       q    Type
REMARK                         _______ _______ _______ _____ _____    ______ ____
ROOT
ATOM      1  C   UNL     1       3.600   6.192   0.727  0.00  0.00    +0.299 C 
ATOM      2  O   UNL     1       3.180   7.317   0.927  0.00  0.00    -0.265 OA
ATOM      3  N   UNL     1       2.767   5.232   0.279  0.00  0.00    -0.200 N 
ATOM      4  H   UNL     1       3.101   4.336   0.119  0.00  0.00    +0.178 HD
ENDROOT
BRANCH   3   5
ATOM      5  N   UNL     1       1.418   5.529   0.045  0.00  0.00    -0.189 NA
ATOM      6  C   UNL     1       0.626   4.617  -0.380  0.00  0.00    +0.041 C 
ATOM      7  C   UNL     1      -0.857   4.440  -0.771  0.00  0.00    +0.061 C 
ATOM      8  C   UNL     1      -0.682   3.251   0.102  0.00  0.00    +0.026 C 
ATOM      9  C   UNL     1       0.658   3.192  -0.750  0.00  0.00    +0.046 C 
ATOM     10  C   UNL     1       1.218   1.995   0.001  0.00  0.00    +0.037 C 
ATOM     11  C   UNL     1      -0.013   1.076   0.008  0.00  0.00    -0.030 C 
ATOM     12  C   UNL     1      -1.102   1.844   0.017  0.00  0.00    -0.027 C 
ENDBRANCH   3   5
BRANCH   1  17
ATOM     13  C   UNL     1       5.960   6.758   1.418  0.00  0.00    +0.056 A 
ATOM     14  C   UNL     1       7.160   6.039   1.513  0.00  0.00    +0.058 A 
ATOM     15  C   UNL     1       6.898   4.773   1.116  0.00  0.00    +0.171 A 
ATOM     16  O   UNL     1       5.602   4.683   0.791  0.00  0.00    -0.444 OA
ATOM     17  C   UNL     1       5.011   5.882   0.972  0.00  0.00    +0.192 A 
ATOM     18 BR   UNL     1       8.155   3.362   1.034  0.00  0.00    -0.008 Br
ENDBRANCH   1  17
TORSDOF 2
