REMARK  Name = ZINC13007388
REMARK  8 active torsions:
REMARK  status: ('A' for Active; 'I' for Inactive)
REMARK    1  A    between atoms: C_1  and  N_2
REMARK    2  A    between atoms: C_4  and  S_10
REMARK    3  A    between atoms: C_6  and  C_7
REMARK    4  A    between atoms: S_10  and  N_13
REMARK    5  A    between atoms: N_13  and  C_14
REMARK    6  A    between atoms: C_17  and  C_21
REMARK    7  A    between atoms: C_21  and  C_23
REMARK    8  A    between atoms: C_21  and  C_25
REMARK                            x       y       z     vdW  Elec       q    Type
REMARK                         _______ _______ _______ _____ _____    ______ ____
ROOT
ATOM      1  N   UNL     1      -3.424   3.429   1.993  0.00  0.00    -0.216 N 
ATOM      2  H   UNL     1      -4.202   2.887   2.196  0.00  0.00    +0.174 HD
ENDROOT
BRANCH   1   3
ATOM      3  C   UNL     1      -2.267   2.828   1.490  0.00  0.00    +0.049 A 
ATOM      4  C   UNL     1      -1.594   3.403   0.419  0.00  0.00    +0.025 A 
ATOM      5  C   UNL     1      -0.448   2.810  -0.073  0.00  0.00    +0.008 A 
ATOM      6  C   UNL     1       0.025   1.640   0.492  0.00  0.00    -0.008 A 
ATOM      7  C   UNL     1      -0.642   1.065   1.560  0.00  0.00    +0.047 A 
ATOM      8  C   UNL     1      -1.787   1.656   2.060  0.00  0.00    +0.044 A 
ATOM      9 CL   UNL     1      -0.041  -0.400   2.271  0.00  0.00    -0.083 Cl
BRANCH   6  10
ATOM     10  C   UNL     1       1.274   0.994  -0.051  0.00  0.00    +0.153 C 
BRANCH  10  11
ATOM     11  C   UNL     1       2.457   1.891   0.206  0.00  0.00    -0.026 A 
ATOM     12  C   UNL     1       2.565   3.098  -0.459  0.00  0.00    +0.005 A 
ATOM     13  C   UNL     1       3.648   3.924  -0.220  0.00  0.00    +0.000 A 
ATOM     14  C   UNL     1       4.627   3.537   0.676  0.00  0.00    +0.000 A 
ATOM     15  C   UNL     1       4.521   2.328   1.337  0.00  0.00    +0.000 A 
ATOM     16  C   UNL     1       3.436   1.505   1.102  0.00  0.00    +0.005 A 
ENDBRANCH  10  11
BRANCH  10  17
ATOM     17  C   UNL     1       1.125   0.780  -1.499  0.00  0.00    +0.075 C 
ATOM     18  N   UNL     1       1.010   0.615  -2.617  0.00  0.00    -0.196 NA
ENDBRANCH  10  17
ENDBRANCH   6  10
ENDBRANCH   1   3
BRANCH   1  19
ATOM     19  S   UNL     1      -3.466   5.065   2.241  0.00  0.00    +0.074 S 
ATOM     20  O   UNL     1      -3.045   5.671   1.027  0.00  0.00    -0.150 OA
ATOM     21  O   UNL     1      -4.722   5.353   2.841  0.00  0.00    -0.150 OA
BRANCH  19  25
ATOM     22  C   UNL     1      -0.980   5.793   6.824  0.00  0.00    +0.149 C 
ATOM     23  N   UNL     1      -1.223   5.737   5.380  0.00  0.00    -0.344 N 
ATOM     24  C   UNL     1      -2.388   5.377   4.789  0.00  0.00    +0.114 A 
ATOM     25  C   UNL     1      -2.235   5.442   3.445  0.00  0.00    +0.127 A 
ATOM     26  C   UNL     1      -0.929   5.866   3.181  0.00  0.00    +0.061 A 
ATOM     27  C   UNL     1      -0.309   6.046   4.399  0.00  0.00    +0.106 A 
BRANCH  27  28
ATOM     28  C   UNL     1       1.074   6.487   4.611  0.00  0.00    +0.258 C 
ATOM     29  O   UNL     1       1.535   6.525   5.737  0.00  0.00    -0.269 OA
ATOM     30  N   UNL     1       1.834   6.852   3.559  0.00  0.00    -0.324 N 
ATOM     31  H   UNL     1       1.446   6.888   2.671  0.00  0.00    +0.145 HD
ATOM     32  H   UNL     1       2.768   7.077   3.691  0.00  0.00    +0.145 HD
ENDBRANCH  27  28
ENDBRANCH  19  25
ENDBRANCH   1  19
TORSDOF 7
