REMARK  Name = ZINC34955994
REMARK  2 active torsions:
REMARK  status: ('A' for Active; 'I' for Inactive)
REMARK    1  A    between atoms: C_5  and  C_6
REMARK    2  A    between atoms: C_8  and  C_11
REMARK                            x       y       z     vdW  Elec       q    Type
REMARK                         _______ _______ _______ _____ _____    ______ ____
ROOT
ATOM      1  C   UNL     1      -1.174  -0.882   0.009  0.00  0.00    +0.294 A 
ATOM      2  N   UNL     1      -1.158  -2.200   0.007  0.00  0.00    -0.188 NA
ATOM      3  C   UNL     1      -2.406  -2.671   0.014  0.00  0.00    +0.187 A 
ATOM      4  N   UNL     1      -3.240  -1.670   0.021  0.00  0.00    -0.060 NA
ATOM      5  O   UNL     1      -2.460  -0.484   0.023  0.00  0.00    -0.330 OA
ENDROOT
BRANCH   1  10
ATOM      6  C   UNL     1      -0.016   1.361   0.009  0.00  0.00    +0.056 A 
ATOM      7  C   UNL     1       1.323   1.783  -0.001  0.00  0.00    +0.058 A 
ATOM      8  C   UNL     1       2.091   0.671  -0.014  0.00  0.00    +0.171 A 
ATOM      9  O   UNL     1       1.290  -0.405  -0.012  0.00  0.00    -0.443 OA
ATOM     10  C   UNL     1       0.002  -0.004   0.002  0.00  0.00    +0.193 A 
ATOM     11 BR   UNL     1       3.982   0.637  -0.033  0.00  0.00    -0.008 Br
ENDBRANCH   1  10
BRANCH   3  12
ATOM     12  C   UNL     1      -2.790  -4.128   0.014  0.00  0.00    +0.188 C 
ATOM     13 CL   UNL     1      -2.931  -4.712   1.714  0.00  0.00    -0.117 Cl
ENDBRANCH   3  12
TORSDOF 2
