REMARK  Name = ZINC26493464
REMARK  8 active torsions:
REMARK  status: ('A' for Active; 'I' for Inactive)
REMARK    1  A    between atoms: C_1  and  C_2
REMARK    2  A    between atoms: C_2  and  C_4
REMARK    3  A    between atoms: C_2  and  S_17
REMARK    4  A    between atoms: N_6  and  C_7
REMARK    5  A    between atoms: C_8  and  C_15
REMARK    6  A    between atoms: S_17  and  C_18
REMARK    7  A    between atoms: C_21  and  C_25
REMARK    8  A    between atoms: C_22  and  N_24
REMARK                            x       y       z     vdW  Elec       q    Type
REMARK                         _______ _______ _______ _____ _____    ______ ____
ROOT
ATOM      1  C   UNL     1      -1.646   2.404   1.444  0.00  0.00    +0.029 C 
ATOM      2  C   UNL     1      -1.330   1.944   0.019  0.00  0.00    +0.137 C 
ENDROOT
BRANCH   2   3
ATOM      3  C   UNL     1      -0.014   1.209   0.009  0.00  0.00    +0.231 C 
ATOM      4  O   UNL     1       0.002  -0.004   0.002  0.00  0.00    -0.274 OA
ATOM      5  N   UNL     1       1.143   1.898   0.001  0.00  0.00    -0.278 N 
ATOM      6  H   UNL     1       1.129   2.998   0.007  0.00  0.00    +0.155 HD
BRANCH   5   7
ATOM      7  C   UNL     1       2.355   1.221  -0.014  0.00  0.00    +0.090 A 
ATOM      8  C   UNL     1       3.634   1.747  -0.023  0.00  0.00    +0.084 A 
ATOM      9  C   UNL     1       4.754   0.807  -0.038  0.00  0.00    -0.018 A 
ATOM     10  C   UNL     1       4.407  -0.493  -0.043  0.00  0.00    -0.004 A 
ATOM     11  S   UNL     1       2.631  -0.488  -0.018  0.00  0.00    -0.077 S 
ATOM     12  C   UNL     1       5.610  -1.397  -0.061  0.00  0.00    +0.043 C 
ATOM     13  C   UNL     1       6.776  -0.485  -0.503  0.00  0.00    +0.010 C 
ATOM     14  C   UNL     1       6.280   0.902  -0.047  0.00  0.00    +0.037 C 
BRANCH   8  15
ATOM     15  C   UNL     1       3.854   3.162  -0.019  0.00  0.00    +0.102 C 
ATOM     16  N   UNL     1       4.028   4.285  -0.016  0.00  0.00    -0.191 NA
ENDBRANCH   8  15
ENDBRANCH   5   7
ENDBRANCH   2   3
BRANCH   2  17
ATOM     17  S   UNL     1      -2.642   0.843  -0.565  0.00  0.00    -0.074 S 
BRANCH  17  18
ATOM     18  C   UNL     1      -3.996   1.969  -0.596  0.00  0.00    +0.191 A 
ATOM     19  N   UNL     1      -3.794   3.228  -0.225  0.00  0.00    -0.229 NA
ATOM     20  C   UNL     1      -4.778   4.109  -0.238  0.00  0.00    +0.136 A 
ATOM     21  C   UNL     1      -6.054   3.699  -0.639  0.00  0.00    +0.109 A 
ATOM     22  C   UNL     1      -6.231   2.351  -1.020  0.00  0.00    +0.138 A 
ATOM     23  N   UNL     1      -5.186   1.533  -0.983  0.00  0.00    -0.206 NA
BRANCH  22  24
ATOM     24  N   UNL     1      -7.468   1.892  -1.424  0.00  0.00    -0.342 N 
ATOM     25  H   UNL     1      -7.595   0.840  -1.719  0.00  0.00    +0.144 HD
ATOM     26  H   UNL     1      -8.327   2.578  -1.451  0.00  0.00    +0.144 HD
ENDBRANCH  22  24
BRANCH  21  27
ATOM     27  C   UNL     1      -7.150   4.620  -0.661  0.00  0.00    +0.104 C 
ATOM     28  N   UNL     1      -8.019   5.351  -0.679  0.00  0.00    -0.191 NA
ENDBRANCH  21  27
ENDBRANCH  17  18
ENDBRANCH   2  17
TORSDOF 7
