REMARK  Name = ZINC27908532
REMARK  12 active torsions:
REMARK  status: ('A' for Active; 'I' for Inactive)
REMARK    1  A    between atoms: C_1  and  C_2
REMARK    2  A    between atoms: C_2  and  N_3
REMARK    3  A    between atoms: N_3  and  C_4
REMARK    4  A    between atoms: N_3  and  C_6
REMARK    5  A    between atoms: C_4  and  C_5
REMARK    6  A    between atoms: C_9  and  C_13
REMARK    7  A    between atoms: C_10  and  O_12
REMARK    8  A    between atoms: C_13  and  N_14
REMARK    9  A    between atoms: C_15  and  C_29
REMARK   10  A    between atoms: C_19  and  C_21
REMARK   11  A    between atoms: C_24  and  O_28
REMARK   12  A    between atoms: C_25  and  O_27
REMARK                            x       y       z     vdW  Elec       q    Type
REMARK                         _______ _______ _______ _____ _____    ______ ____
ROOT
ATOM      1  N   UNL     1       1.335   6.289  -0.800  0.00  0.00    +0.403 N 
ATOM      2  C   UNL     1       2.302   5.357  -0.191  0.00  0.00    +0.059 C 
ATOM      3  C   UNL     1       2.103   5.374   1.354  0.00  0.00    +0.064 C 
ATOM      4  S   UNL     1       1.820   7.181   1.599  0.00  0.00    -0.173 S 
ATOM      5  C   UNL     1       1.337   7.613  -0.125  0.00  0.00    +0.024 C 
ATOM      6  H   UNL     1       0.336   5.848  -0.670  0.00  0.00    -0.078 HD
ENDROOT
BRANCH   5   7
ATOM      7  C   UNL     1      -0.036   8.233  -0.157  0.00  0.00    -0.048 A 
ATOM      8  C   UNL     1      -1.153   7.428  -0.277  0.00  0.00    +0.006 A 
ATOM      9  C   UNL     1      -2.415   7.992  -0.307  0.00  0.00    +0.049 A 
ATOM     10  C   UNL     1      -2.562   9.367  -0.217  0.00  0.00    +0.158 A 
ATOM     11  C   UNL     1      -1.437  10.178  -0.101  0.00  0.00    +0.158 A 
ATOM     12  C   UNL     1      -0.175   9.606  -0.066  0.00  0.00    +0.052 A 
BRANCH  11  13
ATOM     13  O   UNL     1      -1.576  11.528  -0.017  0.00  0.00    -0.503 OA
ATOM     14  H   UNL     1      -0.685  12.168   0.074  0.00  0.00    +0.292 HD
ENDBRANCH  11  13
BRANCH  10  15
ATOM     15  O   UNL     1      -3.803   9.923  -0.246  0.00  0.00    -0.503 OA
ATOM     16  H   UNL     1      -3.918  11.015  -0.174  0.00  0.00    +0.292 HD
ENDBRANCH  10  15
ENDBRANCH   5   7
BRANCH   2  17
ATOM     17  C   UNL     1       2.063   3.966  -0.718  0.00  0.00    +0.344 C 
ATOM     18  O   UNL     1       1.008   3.690  -1.238  0.00  0.00    -0.248 OA
ATOM     19  O   UNL     1       3.022   3.033  -0.610  0.00  0.00    -0.248 OA
ENDBRANCH   2  17
BRANCH   1  20
ATOM     20  C   UNL     1       1.578   6.433  -2.241  0.00  0.00    -0.036 C 
BRANCH  20  24
ATOM     21  C   UNL     1       5.479   8.070  -2.874  0.00  0.00    +0.033 A 
ATOM     22  C   UNL     1       4.370   8.906  -2.820  0.00  0.00    +0.023 A 
ATOM     23  C   UNL     1       3.111   8.373  -2.622  0.00  0.00    +0.007 A 
ATOM     24  C   UNL     1       2.952   7.009  -2.464  0.00  0.00    -0.022 A 
ATOM     25  C   UNL     1       4.056   6.170  -2.517  0.00  0.00    +0.120 A 
ATOM     26  C   UNL     1       5.320   6.700  -2.721  0.00  0.00    +0.068 A 
BRANCH  25  27
ATOM     27  O   UNL     1       3.897   4.828  -2.368  0.00  0.00    -0.507 OA
ATOM     28  H   UNL     1       4.772   4.163  -2.409  0.00  0.00    +0.292 HD
ENDBRANCH  25  27
BRANCH  21  29
ATOM     29  N   UNL     1       6.751   8.608  -3.081  0.00  0.00    -0.330 N 
BRANCH  29  31
ATOM     30  C   UNL     1       7.149  10.697  -1.872  0.00  0.00    +0.024 C 
ATOM     31  C   UNL     1       6.917  10.055  -3.241  0.00  0.00    +0.102 C 
ENDBRANCH  29  31
BRANCH  29  32
ATOM     32  C   UNL     1       7.919   7.726  -3.137  0.00  0.00    +0.102 C 
ATOM     33  C   UNL     1       8.152   7.280  -4.582  0.00  0.00    +0.024 C 
ENDBRANCH  29  32
ENDBRANCH  21  29
ENDBRANCH  20  24
ENDBRANCH   1  20
TORSDOF 10
