REMARK  Name = ZINC67298685
REMARK  5 active torsions:
REMARK  status: ('A' for Active; 'I' for Inactive)
REMARK    1  A    between atoms: C_3  and  O_30
REMARK    2  A    between atoms: C_8  and  C_20
REMARK    3  A    between atoms: N_10  and  C_11
REMARK    4  A    between atoms: N_22  and  C_23
REMARK    5  A    between atoms: C_23  and  C_24
REMARK                            x       y       z     vdW  Elec       q    Type
REMARK                         _______ _______ _______ _____ _____    ______ ____
ROOT
ATOM      1  C   UNL     1      -0.692   1.290  -0.137  0.00  0.00    +0.015 A 
ATOM      2  C   UNL     1       0.307   2.212  -0.024  0.00  0.00    +0.046 A 
ATOM      3  C   UNL     1       1.631   1.804   0.126  0.00  0.00    +0.120 A 
ATOM      4  C   UNL     1       1.953   0.455   0.148  0.00  0.00    +0.092 A 
ATOM      5  C   UNL     1       0.952  -0.493   0.028  0.00  0.00    +0.141 A 
ATOM      6  C   UNL     1      -0.389  -0.079  -0.093  0.00  0.00    +0.018 A 
ATOM      7  C   UNL     1      -1.423  -1.046  -0.174  0.00  0.00    +0.030 A 
ATOM      8  C   UNL     1      -1.100  -2.372   0.078  0.00  0.00    +0.097 A 
ATOM      9  C   UNL     1       0.297  -2.672   0.446  0.00  0.00    +0.212 A 
ATOM     10  N   UNL     1       0.601  -3.733   1.163  0.00  0.00    -0.325 N 
ATOM     11  O   UNL     1       1.260  -1.814   0.017  0.00  0.00    -0.438 OA
ATOM     12  H   UNL     1      -0.105  -4.284   1.536  0.00  0.00    +0.169 HD
ENDROOT
BRANCH  10  13
ATOM     13  C   UNL     1       1.911  -4.059   1.382  0.00  0.00    +0.043 A 
ATOM     14  C   UNL     1       2.829  -4.020   0.329  0.00  0.00    +0.028 A 
ATOM     15  C   UNL     1       4.149  -4.350   0.555  0.00  0.00    +0.042 A 
ATOM     16  C   UNL     1       4.566  -4.718   1.824  0.00  0.00    +0.142 A 
ATOM     17  C   UNL     1       3.661  -4.758   2.873  0.00  0.00    +0.078 A 
ATOM     18  C   UNL     1       2.338  -4.425   2.660  0.00  0.00    +0.048 A 
ATOM     19 CL   UNL     1       4.192  -5.221   4.460  0.00  0.00    -0.081 Cl
ATOM     20  F   UNL     1       5.860  -5.040   2.039  0.00  0.00    -0.204 F 
ENDBRANCH  10  13
BRANCH   8  21
ATOM     21  C   UNL     1      -2.112  -3.437  -0.018  0.00  0.00    +0.249 C 
ATOM     22  O   UNL     1      -1.779  -4.603   0.082  0.00  0.00    -0.270 OA
ATOM     23  N   UNL     1      -3.407  -3.121  -0.216  0.00  0.00    -0.309 N 
ATOM     24  H   UNL     1      -3.664  -2.196  -0.355  0.00  0.00    +0.149 HD
BRANCH  23  25
ATOM     25  C   UNL     1      -4.426  -4.173  -0.220  0.00  0.00    +0.136 C 
BRANCH  25  26
ATOM     26  C   UNL     1      -5.802  -3.550  -0.464  0.00  0.00    +0.135 C 
ATOM     27  C   UNL     1      -6.895  -4.634  -0.351  0.00  0.00    +0.035 C 
ATOM     28  C   UNL     1      -7.870  -4.240  -1.494  0.00  0.00    +0.031 C 
ATOM     29  C   UNL     1      -6.878  -3.687  -2.548  0.00  0.00    +0.160 C 
ATOM     30  O   UNL     1      -5.862  -3.009  -1.789  0.00  0.00    -0.375 OA
ENDBRANCH  25  26
ENDBRANCH  23  25
ENDBRANCH   8  21
BRANCH   3  31
ATOM     31  O   UNL     1       2.612   2.734   0.251  0.00  0.00    -0.507 OA
ATOM     32  H   UNL     1       2.794   2.993   1.164  0.00  0.00    +0.292 HD
ENDBRANCH   3  31
TORSDOF 5
