REMARK  Name = ZINC32100491
REMARK  8 active torsions:
REMARK  status: ('A' for Active; 'I' for Inactive)
REMARK    1  A    between atoms: C_1  and  C_2
REMARK    2  A    between atoms: C_2  and  N_13
REMARK    3  A    between atoms: C_3  and  C_4
REMARK    4  A    between atoms: C_4  and  C_6
REMARK    5  A    between atoms: N_13  and  C_14
REMARK    6  A    between atoms: C_17  and  N_22
REMARK    7  A    between atoms: C_19  and  O_20
REMARK    8  A    between atoms: O_20  and  C_21
REMARK                            x       y       z     vdW  Elec       q    Type
REMARK                         _______ _______ _______ _____ _____    ______ ____
ROOT
ATOM      1  N   UNL     1       2.338   0.971   0.052  0.00  0.00    -0.315 N 
ATOM      2  H   UNL     1       2.444   0.256   0.882  0.00  0.00    +0.152 HD
ENDROOT
BRANCH   1   3
ATOM      3  C   UNL     1       3.210   0.908  -1.040  0.00  0.00    +0.073 A 
ATOM      4  C   UNL     1       2.999   1.718  -2.147  0.00  0.00    +0.029 A 
ATOM      5  C   UNL     1       3.862   1.655  -3.224  0.00  0.00    +0.035 A 
ATOM      6  C   UNL     1       4.937   0.785  -3.203  0.00  0.00    +0.130 A 
ATOM      7  C   UNL     1       5.154  -0.026  -2.104  0.00  0.00    +0.080 A 
ATOM      8  C   UNL     1       4.297   0.035  -1.017  0.00  0.00    +0.143 A 
BRANCH   6   9
ATOM      9  N   UNL     1       5.859   0.721  -4.360  0.00  0.00    +0.057 N 
ATOM     10  O   UNL     1       5.669   1.435  -5.329  0.00  0.00    -0.126 OA
ATOM     11  O   UNL     1       6.806  -0.044  -4.343  0.00  0.00    -0.126 OA
ENDBRANCH   6   9
BRANCH   8  12
ATOM     12  O   UNL     1       4.512  -0.757   0.066  0.00  0.00    -0.493 OA
ATOM     13  C   UNL     1       5.645  -1.627   0.019  0.00  0.00    +0.277 C 
ENDBRANCH   8  12
ENDBRANCH   1   3
BRANCH   1  15
ATOM     14  C   UNL     1       1.718   3.381   0.061  0.00  0.00    +0.061 C 
ATOM     15  C   UNL     1       1.356   1.918   0.087  0.00  0.00    +0.009 C 
ATOM     16  C   UNL     1       0.057   1.544   0.146  0.00  0.00    +0.070 C 
BRANCH  16  17
ATOM     17  C   UNL     1      -0.953   2.519   0.294  0.00  0.00    +0.187 C 
ATOM     18  O   UNL     1      -0.667   3.703   0.255  0.00  0.00    -0.287 OA
BRANCH  17  19
ATOM     19  C   UNL     1      -2.358   2.105   0.497  0.00  0.00    +0.022 A 
ATOM     20  C   UNL     1      -2.690   0.749   0.537  0.00  0.00    +0.013 A 
ATOM     21  C   UNL     1      -4.001   0.369   0.733  0.00  0.00    +0.016 A 
ATOM     22  C   UNL     1      -4.989   1.328   0.878  0.00  0.00    +0.018 A 
ATOM     23  C   UNL     1      -4.667   2.674   0.833  0.00  0.00    +0.016 A 
ATOM     24  C   UNL     1      -3.359   3.067   0.644  0.00  0.00    +0.013 A 
ATOM     25 BR   UNL     1      -6.786   0.798   1.138  0.00  0.00    -0.050 Br
ENDBRANCH  17  19
ENDBRANCH  16  17
ENDBRANCH   1  15
TORSDOF 6
