REMARK  Name = ZINC39361821
REMARK  8 active torsions:
REMARK  status: ('A' for Active; 'I' for Inactive)
REMARK    1  A    between atoms: C_1  and  C_2
REMARK    2  A    between atoms: C_2  and  S_3
REMARK    3  A    between atoms: S_3  and  C_4
REMARK    4  A    between atoms: C_7  and  C_18
REMARK    5  A    between atoms: N_9  and  C_10
REMARK    6  A    between atoms: C_12  and  C_17
REMARK    7  A    between atoms: C_15  and  C_16
REMARK    8  A    between atoms: C_18  and  C_19
REMARK                            x       y       z     vdW  Elec       q    Type
REMARK                         _______ _______ _______ _____ _____    ______ ____
ROOT
ATOM      1  C   UNL     1      -1.508  -2.383   0.004  0.00  0.00    +0.179 C 
ATOM      2  N   UNL     1      -0.367  -2.986  -0.005  0.00  0.00    -0.162 NA
ATOM      3  N   UNL     1      -0.521  -4.377  -0.012  0.00  0.00    -0.246 N 
ATOM      4  C   UNL     1      -1.973  -4.629  -0.007  0.00  0.00    +0.187 C 
ATOM      5  N   UNL     1      -2.566  -3.281   0.009  0.00  0.00    -0.258 N 
ATOM      6  H   UNL     1       0.185  -5.042  -0.019  0.00  0.00    +0.170 HD
ENDROOT
BRANCH   5   7
ATOM      7  C   UNL     1      -3.928  -2.968   0.024  0.00  0.00    +0.041 A 
ATOM      8  C   UNL     1      -4.619  -2.812  -1.171  0.00  0.00    +0.027 A 
ATOM      9  C   UNL     1      -5.965  -2.502  -1.153  0.00  0.00    -0.049 A 
ATOM     10  C   UNL     1      -6.624  -2.348   0.052  0.00  0.00    +0.004 A 
ATOM     11  C   UNL     1      -5.939  -2.503   1.244  0.00  0.00    +0.005 A 
ATOM     12  C   UNL     1      -4.594  -2.818   1.233  0.00  0.00    -0.029 A 
ATOM     13  C   UNL     1      -3.850  -2.993   2.531  0.00  0.00    +0.045 C 
ATOM     14  C   UNL     1      -6.715  -2.333  -2.449  0.00  0.00    +0.044 C 
ENDBRANCH   5   7
BRANCH   1  15
ATOM     15  S   UNL     1      -1.700  -0.632   0.015  0.00  0.00    -0.089 S 
BRANCH  15  17
ATOM     16  C   UNL     1      -0.019   1.526   0.010  0.00  0.00    +0.016 C 
ATOM     17  C   UNL     1       0.002  -0.004   0.002  0.00  0.00    +0.074 C 
ENDBRANCH  15  17
ENDBRANCH   1  15
BRANCH   4  18
ATOM     18  C   UNL     1      -2.389  -5.393  -1.265  0.00  0.00    +0.097 C 
BRANCH  18  19
ATOM     19  C   UNL     1      -1.789  -6.775  -1.236  0.00  0.00    +0.029 A 
ATOM     20  N   UNL     1      -0.514  -6.980  -1.688  0.00  0.00    -0.311 N 
ATOM     21  C   UNL     1       0.032  -8.209  -1.666  0.00  0.00    +0.327 A 
ATOM     22  O   UNL     1       1.167  -8.369  -2.072  0.00  0.00    -0.247 OA
ATOM     23  N   UNL     1      -0.661  -9.265  -1.200  0.00  0.00    -0.275 N 
ATOM     24  C   UNL     1      -1.920  -9.105  -0.746  0.00  0.00    +0.254 A 
ATOM     25  O   UNL     1      -2.547 -10.060  -0.324  0.00  0.00    -0.268 OA
ATOM     26  C   UNL     1      -2.505  -7.816  -0.759  0.00  0.00    +0.091 A 
ATOM     27  H   UNL     1      -0.252 -10.145  -1.192  0.00  0.00    +0.173 HD
ATOM     28  H   UNL     1       0.002  -6.231  -2.028  0.00  0.00    +0.170 HD
ENDBRANCH  18  19
ENDBRANCH   4  18
TORSDOF 5
