REMARK  Name = ZINC14744988
REMARK  10 active torsions:
REMARK  status: ('A' for Active; 'I' for Inactive)
REMARK    1  A    between atoms: C_1  and  C_2
REMARK    2  A    between atoms: C_2  and  C_3
REMARK    3  A    between atoms: C_2  and  C_4
REMARK    4  A    between atoms: C_4  and  C_5
REMARK    5  A    between atoms: C_5  and  N_6
REMARK    6  A    between atoms: N_9  and  C_23
REMARK    7  A    between atoms: C_17  and  N_67
REMARK    8  A    between atoms: C_23  and  C_24
REMARK    9  A    between atoms: C_24  and  C_25
REMARK   10  A    between atoms: C_25  and  C_26
REMARK                            x       y       z     vdW  Elec       q    Type
REMARK                         _______ _______ _______ _____ _____    ______ ____
ROOT
ATOM      1  N   UNL     1      -0.463   1.736   1.028  0.00  0.00    -0.271 N 
ATOM      2  C   UNL     1      -1.594   2.368   0.662  0.00  0.00    +0.312 C 
ATOM      3  O   UNL     1      -2.419   2.787   1.450  0.00  0.00    -0.252 OA
ATOM      4  N   UNL     1      -1.709   2.481  -0.667  0.00  0.00    -0.224 N 
ATOM      5  C   UNL     1      -0.656   1.930  -1.306  0.00  0.00    +0.247 C 
ATOM      6  O   UNL     1      -0.470   1.874  -2.502  0.00  0.00    -0.273 OA
ATOM      7  C   UNL     1       0.243   1.398  -0.214  0.00  0.00    +0.112 C 
ATOM      8  C   UNL     1       1.604   2.085  -0.261  0.00  0.00    +0.017 C 
ATOM      9  C   UNL     1       2.502   1.507   0.837  0.00  0.00    -0.076 C 
ATOM     10  C   UNL     1       1.340  -0.620   0.756  0.00  0.00    -0.076 C 
ATOM     11  C   UNL     1       0.404  -0.114  -0.344  0.00  0.00    +0.017 C 
ATOM     12  N   UNL     1       2.650   0.052   0.617  0.00  0.00    +0.382 N 
ATOM     13  H   UNL     1       3.006  -0.105  -0.333  0.00  0.00    -0.081 HD
ENDROOT
BRANCH  12  14
ATOM     14  C   UNL     1       3.611  -0.509   1.588  0.00  0.00    -0.058 C 
ATOM     15  C   UNL     1       4.982   0.075   1.281  0.00  0.00    -0.004 C 
ATOM     16  C   UNL     1       5.620   0.831   2.468  0.00  0.00    +0.067 C 
ATOM     17  S   UNL     1       4.719   0.086   3.896  0.00  0.00    -0.162 S 
ATOM     18  C   UNL     1       3.122  -0.233   3.027  0.00  0.00    +0.054 C 
ENDBRANCH  12  14
BRANCH   1  19
ATOM     19  C   UNL     1      -0.023   1.444   2.394  0.00  0.00    +0.110 C 
BRANCH  19  20
ATOM     20  C   UNL     1       0.303   2.753   3.116  0.00  0.00    +0.022 C 
BRANCH  20  22
ATOM     21  C   UNL     1       1.321   3.745   5.171  0.00  0.00    +0.007 C 
ATOM     22  C   UNL     1       0.873   2.444   4.502  0.00  0.00    -0.016 C 
ATOM     23  C   UNL     1      -0.203   1.774   5.358  0.00  0.00    +0.007 C 
ENDBRANCH  20  22
ENDBRANCH  19  20
ENDBRANCH   1  19
BRANCH   4  24
ATOM     24  C   UNL     1      -2.838   3.123  -1.344  0.00  0.00    +0.118 C 
BRANCH  24  25
ATOM     25  C   UNL     1      -3.922   2.082  -1.629  0.00  0.00    +0.024 C 
BRANCH  25  26
ATOM     26  C   UNL     1      -5.101   2.753  -2.336  0.00  0.00    +0.037 C 
BRANCH  26  27
ATOM     27  C   UNL     1      -6.169   1.727  -2.616  0.00  0.00    -0.044 A 
ATOM     28  C   UNL     1      -6.175   1.015  -3.806  0.00  0.00    +0.023 A 
ATOM     29  C   UNL     1      -7.167   0.079  -4.026  0.00  0.00    +0.111 A 
ATOM     30  N   UNL     1      -8.106  -0.133  -3.124  0.00  0.00    -0.263 NA
ATOM     31  C   UNL     1      -8.135   0.528  -1.984  0.00  0.00    +0.111 A 
ATOM     32  C   UNL     1      -7.172   1.476  -1.692  0.00  0.00    +0.023 A 
ENDBRANCH  26  27
ENDBRANCH  25  26
ENDBRANCH  24  25
ENDBRANCH   4  24
TORSDOF 8
