REMARK  Name = ZINC15036176
REMARK  9 active torsions:
REMARK  status: ('A' for Active; 'I' for Inactive)
REMARK    1  A    between atoms: C_1  and  C_2
REMARK    2  A    between atoms: C_2  and  O_3
REMARK    3  A    between atoms: O_3  and  C_4
REMARK    4  A    between atoms: C_7  and  N_10
REMARK    5  A    between atoms: C_11  and  C_13
REMARK    6  A    between atoms: C_13  and  N_14
REMARK    7  A    between atoms: C_18  and  C_19
REMARK    8  A    between atoms: C_22  and  O_26
REMARK    9  A    between atoms: C_24  and  O_25
REMARK                            x       y       z     vdW  Elec       q    Type
REMARK                         _______ _______ _______ _____ _____    ______ ____
ROOT
ATOM      1  N   UNL     1      -0.631   3.441  -0.163  0.00  0.00    -0.246 N 
ATOM      2  C   UNL     1      -0.670   4.167  -1.268  0.00  0.00    +0.259 C 
ATOM      3  O   UNL     1      -0.817   3.656  -2.363  0.00  0.00    -0.269 OA
ATOM      4  C   UNL     1      -0.528   5.626  -1.107  0.00  0.00    +0.077 C 
ATOM      5  C   UNL     1      -0.530   6.605  -2.049  0.00  0.00    +0.031 C 
ATOM      6  S   UNL     1      -0.352   5.751   0.667  0.00  0.00    -0.061 S 
ATOM      7  C   UNL     1      -0.473   4.011   1.049  0.00  0.00    +0.121 C 
ATOM      8  S   UNL     1      -0.404   3.251   2.581  0.00  0.00    -0.027 S 
ENDROOT
BRANCH   5   9
ATOM      9  C   UNL     1      -0.162   7.976  -1.681  0.00  0.00    +0.018 A 
ATOM     10  C   UNL     1       0.553   8.221  -0.502  0.00  0.00    +0.015 A 
ATOM     11  C   UNL     1       0.901   9.508  -0.165  0.00  0.00    +0.046 A 
ATOM     12  C   UNL     1       0.536  10.571  -0.985  0.00  0.00    +0.120 A 
ATOM     13  C   UNL     1      -0.178  10.342  -2.153  0.00  0.00    +0.091 A 
ATOM     14  C   UNL     1      -0.530   9.052  -2.508  0.00  0.00    +0.127 A 
BRANCH  14  15
ATOM     15  O   UNL     1      -1.227   8.826  -3.650  0.00  0.00    -0.506 OA
ATOM     16  H   UNL     1      -2.187   8.844  -3.535  0.00  0.00    +0.292 HD
ENDBRANCH  14  15
BRANCH  12  17
ATOM     17  O   UNL     1       0.879  11.839  -0.642  0.00  0.00    -0.507 OA
ATOM     18  H   UNL     1       0.221  12.290  -0.096  0.00  0.00    +0.292 HD
ENDBRANCH  12  17
ENDBRANCH   5   9
BRANCH   1  19
ATOM     19  C   UNL     1      -0.767   1.985  -0.258  0.00  0.00    +0.211 C 
BRANCH  19  21
ATOM     20  N   UNL     1       0.717   0.025  -0.530  0.00  0.00    -0.284 N 
ATOM     21  C   UNL     1       0.596   1.363  -0.422  0.00  0.00    +0.235 C 
ATOM     22  O   UNL     1       1.583   2.066  -0.461  0.00  0.00    -0.274 OA
ATOM     23  H   UNL     1      -0.062  -0.543  -0.422  0.00  0.00    +0.155 HD
BRANCH  20  27
ATOM     24  C   UNL     1       4.440  -1.674  -1.329  0.00  0.00    +0.121 A 
ATOM     25  C   UNL     1       4.350  -0.547  -0.525  0.00  0.00    +0.047 A 
ATOM     26  C   UNL     1       3.117   0.016  -0.260  0.00  0.00    +0.027 A 
ATOM     27  C   UNL     1       1.968  -0.546  -0.798  0.00  0.00    +0.034 A 
ATOM     28  C   UNL     1       2.058  -1.677  -1.599  0.00  0.00    +0.027 A 
ATOM     29  C   UNL     1       3.291  -2.236  -1.868  0.00  0.00    +0.047 A 
BRANCH  24  30
ATOM     30  O   UNL     1       5.654  -2.228  -1.590  0.00  0.00    -0.492 OA
BRANCH  30  32
ATOM     31  C   UNL     1       7.115  -3.865  -2.604  0.00  0.00    +0.048 C 
ATOM     32  C   UNL     1       5.672  -3.387  -2.425  0.00  0.00    +0.225 C 
ENDBRANCH  30  32
ENDBRANCH  24  30
ENDBRANCH  20  27
ENDBRANCH  19  21
ENDBRANCH   1  19
TORSDOF 8
