REMARK  Name = ZINC50080824
REMARK  9 active torsions:
REMARK  status: ('A' for Active; 'I' for Inactive)
REMARK    1  A    between atoms: C_1  and  C_2
REMARK    2  A    between atoms: C_5  and  C_8
REMARK    3  A    between atoms: C_8  and  C_10
REMARK    4  A    between atoms: C_8  and  N_11
REMARK    5  A    between atoms: N_11  and  C_12
REMARK    6  A    between atoms: N_15  and  C_16
REMARK    7  A    between atoms: C_19  and  N_22
REMARK    8  A    between atoms: C_24  and  C_31
REMARK    9  A    between atoms: C_27  and  C_30
REMARK                            x       y       z     vdW  Elec       q    Type
REMARK                         _______ _______ _______ _____ _____    ______ ____
ROOT
ATOM      1  N   UNL     1       1.913  -4.472   3.129  0.00  0.00    -0.282 N 
ATOM      2  C   UNL     1       0.857  -4.708   2.142  0.00  0.00    +0.134 C 
ATOM      3  C   UNL     1       3.059  -5.180   3.072  0.00  0.00    +0.307 C 
ATOM      4  O   UNL     1       3.936  -4.984   3.891  0.00  0.00    -0.252 OA
ATOM      5  N   UNL     1       3.232  -6.105   2.107  0.00  0.00    -0.269 N 
ATOM      6  H   UNL     1       2.509  -6.307   1.493  0.00  0.00    +0.156 HD
ENDROOT
BRANCH   5   7
ATOM      7  C   UNL     1       4.458  -6.775   1.991  0.00  0.00    +0.035 A 
ATOM      8  C   UNL     1       4.945  -7.118   0.737  0.00  0.00    +0.025 A 
ATOM      9  C   UNL     1       6.153  -7.778   0.622  0.00  0.00    +0.025 A 
ATOM     10  C   UNL     1       6.880  -8.098   1.761  0.00  0.00    +0.030 A 
ATOM     11  C   UNL     1       6.393  -7.755   3.015  0.00  0.00    +0.025 A 
ATOM     12  C   UNL     1       5.188  -7.091   3.129  0.00  0.00    +0.025 A 
BRANCH  10  13
ATOM     13  N   UNL     1       8.103  -8.767   1.644  0.00  0.00    -0.325 N 
ATOM     14  C   UNL     1       8.831  -9.228   2.837  0.00  0.00    +0.136 C 
ATOM     15  C   UNL     1      10.281  -8.739   2.738  0.00  0.00    +0.133 C 
ATOM     16  O   UNL     1      10.823  -9.128   1.474  0.00  0.00    -0.371 OA
ATOM     17  C   UNL     1      10.156  -8.552   0.348  0.00  0.00    +0.133 C 
ATOM     18  C   UNL     1       8.697  -9.036   0.325  0.00  0.00    +0.136 C 
ATOM     19  C   UNL     1      10.859  -8.986  -0.939  0.00  0.00    +0.039 C 
ATOM     20  C   UNL     1      11.108  -9.362   3.864  0.00  0.00    +0.039 C 
ENDBRANCH  10  13
ENDBRANCH   5   7
BRANCH   1  21
ATOM     21  C   UNL     1       1.725  -3.467   4.178  0.00  0.00    +0.104 C 
ATOM     22  C   UNL     1       1.381  -2.120   3.538  0.00  0.00    +0.033 C 
BRANCH  21  27
ATOM     23  C   UNL     1      -2.584  -5.101   7.664  0.00  0.00    +0.044 C 
ATOM     24  C   UNL     1      -1.460  -4.675   6.755  0.00  0.00    -0.050 A 
ATOM     25  C   UNL     1      -0.684  -5.628   6.121  0.00  0.00    +0.004 A 
ATOM     26  C   UNL     1       0.346  -5.237   5.287  0.00  0.00    +0.006 A 
ATOM     27  C   UNL     1       0.601  -3.893   5.086  0.00  0.00    -0.027 A 
ATOM     28  C   UNL     1      -0.175  -2.940   5.719  0.00  0.00    +0.006 A 
ATOM     29  C   UNL     1      -1.209  -3.331   6.550  0.00  0.00    +0.004 A 
ENDBRANCH  21  27
ENDBRANCH   1  21
TORSDOF 4
