REMARK  Name = ZINC10430818
REMARK  9 active torsions:
REMARK  status: ('A' for Active; 'I' for Inactive)
REMARK    1  A    between atoms: C_1  and  C_2
REMARK    2  A    between atoms: C_2  and  N_3
REMARK    3  A    between atoms: N_3  and  C_4
REMARK    4  A    between atoms: N_3  and  C_19
REMARK    5  A    between atoms: C_4  and  C_5
REMARK    6  A    between atoms: N_7  and  C_8
REMARK    7  A    between atoms: C_20  and  N_35
REMARK    8  A    between atoms: N_21  and  C_28
REMARK    9  A    between atoms: C_28  and  C_29
REMARK                            x       y       z     vdW  Elec       q    Type
REMARK                         _______ _______ _______ _____ _____    ______ ____
ROOT
ATOM      1  C   UNL     1      -3.036   5.601   3.424  0.00  0.00    +0.134 A 
ATOM      2  C   UNL     1      -2.509   6.776   3.885  0.00  0.00    +0.127 A 
ATOM      3  N   UNL     1      -2.988   7.317   5.057  0.00  0.00    -0.276 N 
ATOM      4  C   UNL     1      -3.966   6.697   5.742  0.00  0.00    +0.331 A 
ATOM      5  O   UNL     1      -4.378   7.189   6.775  0.00  0.00    -0.246 OA
ATOM      6  N   UNL     1      -4.496   5.541   5.302  0.00  0.00    -0.273 N 
ATOM      7  H   UNL     1      -5.219   5.095   5.830  0.00  0.00    +0.173 HD
ATOM      8  C   UNL     1      -4.061   4.978   4.158  0.00  0.00    +0.277 A 
ATOM      9  O   UNL     1      -4.549   3.932   3.764  0.00  0.00    -0.266 OA
ENDROOT
BRANCH   2  10
ATOM     10  N   UNL     1      -1.509   7.412   3.185  0.00  0.00    -0.343 N 
ATOM     11  H   UNL     1      -1.175   7.027   2.360  0.00  0.00    +0.144 HD
ATOM     12  H   UNL     1      -1.139   8.245   3.517  0.00  0.00    +0.144 HD
ENDBRANCH   2  10
BRANCH   1  13
ATOM     13  N   UNL     1      -2.561   5.024   2.223  0.00  0.00    -0.315 N 
BRANCH  13  15
ATOM     14  C   UNL     1      -3.993   6.411   0.800  0.00  0.00    +0.024 C 
ATOM     15  C   UNL     1      -3.619   4.984   1.204  0.00  0.00    +0.102 C 
ENDBRANCH  13  15
BRANCH  13  16
ATOM     16  C   UNL     1      -2.011   3.684   2.463  0.00  0.00    +0.201 C 
BRANCH  16  17
ATOM     17  C   UNL     1      -1.298   3.203   1.225  0.00  0.00    +0.231 C 
ATOM     18  O   UNL     1      -1.254   3.908   0.239  0.00  0.00    -0.274 OA
ATOM     19  N   UNL     1      -0.711   1.990   1.214  0.00  0.00    -0.307 N 
ATOM     20  H   UNL     1      -0.747   1.427   2.002  0.00  0.00    +0.149 HD
BRANCH  19  21
ATOM     21  C   UNL     1      -0.019   1.523   0.010  0.00  0.00    +0.103 C 
ATOM     22  C   UNL     1       0.002  -0.004   0.002  0.00  0.00    +0.027 C 
ATOM     23  C   UNL     1       0.911  -0.469  -1.142  0.00  0.00    +0.007 C 
ATOM     24  C   UNL     1       2.355  -0.131  -0.777  0.00  0.00    +0.035 C 
ATOM     25  C   UNL     1       2.474   1.313  -0.365  0.00  0.00    -0.042 A 
ATOM     26  C   UNL     1       1.384   2.072   0.000  0.00  0.00    -0.024 A 
ATOM     27  C   UNL     1       1.563   3.396   0.376  0.00  0.00    +0.006 A 
ATOM     28  C   UNL     1       2.823   3.959   0.383  0.00  0.00    +0.000 A 
ATOM     29  C   UNL     1       3.916   3.199   0.012  0.00  0.00    +0.000 A 
ATOM     30  C   UNL     1       3.741   1.882  -0.360  0.00  0.00    +0.004 A 
ENDBRANCH  19  21
ENDBRANCH  16  17
ENDBRANCH  13  16
ENDBRANCH   1  13
BRANCH   3  31
ATOM     31  C   UNL     1      -2.431   8.575   5.560  0.00  0.00    +0.163 C 
BRANCH  31  32
ATOM     32  C   UNL     1      -3.216   9.732   4.998  0.00  0.00    -0.028 A 
ATOM     33  C   UNL     1      -2.830  10.314   3.805  0.00  0.00    +0.005 A 
ATOM     34  C   UNL     1      -3.553  11.372   3.287  0.00  0.00    +0.000 A 
ATOM     35  C   UNL     1      -4.655  11.856   3.968  0.00  0.00    +0.000 A 
ATOM     36  C   UNL     1      -5.037  11.278   5.164  0.00  0.00    +0.000 A 
ATOM     37  C   UNL     1      -4.317  10.216   5.679  0.00  0.00    +0.005 A 
ENDBRANCH  31  32
ENDBRANCH   3  31
TORSDOF 8
