REMARK  Name = ZINC02701389
REMARK  5 active torsions:
REMARK  status: ('A' for Active; 'I' for Inactive)
REMARK    1  A    between atoms: C_3  and  C_8
REMARK    2  A    between atoms: C_10  and  C_22
REMARK    3  A    between atoms: C_12  and  C_17
REMARK    4  A    between atoms: C_12  and  O_21
REMARK    5  A    between atoms: C_22  and  C_24
REMARK                            x       y       z     vdW  Elec       q    Type
REMARK                         _______ _______ _______ _____ _____    ______ ____
ROOT
ATOM      1  C   UNL     1       2.442   4.594   0.004  0.00  0.00    +0.120 C 
ATOM      2  C   UNL     1       2.762   5.071   1.425  0.00  0.00    +0.145 C 
ATOM      3  C   UNL     1       4.017   5.948   1.373  0.00  0.00    +0.243 C 
ATOM      4  N   UNL     1       3.803   7.038   0.419  0.00  0.00    -0.264 N 
ATOM      5  C   UNL     1       2.987   6.891  -0.635  0.00  0.00    +0.302 C 
ATOM      6  O   UNL     1       2.852   7.824  -1.403  0.00  0.00    -0.253 OA
ATOM      7  N   UNL     1       2.313   5.757  -0.875  0.00  0.00    -0.292 N 
ATOM      8  H   UNL     1       4.260   7.883   0.552  0.00  0.00    +0.153 HD
ATOM      9  H   UNL     1       1.728   5.706  -1.648  0.00  0.00    +0.151 HD
ENDROOT
BRANCH   1  12
ATOM     10  C   UNL     1      -1.247   3.789   0.035  0.00  0.00    +0.002 A 
ATOM     11  C   UNL     1      -0.059   4.497   0.027  0.00  0.00    +0.005 A 
ATOM     12  C   UNL     1       1.147   3.822   0.012  0.00  0.00    -0.025 A 
ATOM     13  C   UNL     1       1.167   2.440   0.004  0.00  0.00    +0.025 A 
ATOM     14  C   UNL     1      -0.021   1.732   0.012  0.00  0.00    +0.041 A 
ATOM     15  C   UNL     1      -1.229   2.408   0.021  0.00  0.00    +0.020 A 
ATOM     16 CL   UNL     1       0.002  -0.004   0.002  0.00  0.00    -0.084 Cl
ENDBRANCH   1  12
BRANCH   3  17
ATOM     17  C   UNL     1       4.293   6.531   2.761  0.00  0.00    +0.436 C 
ATOM     18  F   UNL     1       3.197   7.299   3.170  0.00  0.00    -0.166 F 
ATOM     19  F   UNL     1       4.497   5.489   3.672  0.00  0.00    -0.166 F 
ATOM     20  F   UNL     1       5.435   7.337   2.710  0.00  0.00    -0.166 F 
ENDBRANCH   3  17
BRANCH   3  21
ATOM     21  O   UNL     1       5.134   5.161   0.956  0.00  0.00    -0.364 OA
ATOM     22  H   UNL     1       5.963   5.654   0.896  0.00  0.00    +0.212 HD
ENDBRANCH   3  21
BRANCH   2  23
ATOM     23  C   UNL     1       3.013   3.880   2.313  0.00  0.00    +0.179 C 
ATOM     24  O   UNL     1       3.478   2.860   1.846  0.00  0.00    -0.291 OA
BRANCH  23  25
ATOM     25  C   UNL     1       2.709   3.950   3.691  0.00  0.00    +0.055 A 
ATOM     26  C   UNL     1       2.862   2.977   4.674  0.00  0.00    +0.019 A 
ATOM     27  C   UNL     1       2.482   3.313   5.946  0.00  0.00    +0.008 A 
ATOM     28  C   UNL     1       1.983   4.557   6.185  0.00  0.00    +0.046 A 
ATOM     29  S   UNL     1       2.034   5.312   4.626  0.00  0.00    -0.094 S 
ENDBRANCH  23  25
ENDBRANCH   2  23
TORSDOF 5
