REMARK  Name = ZINC15673839
REMARK  3 active torsions:
REMARK  status: ('A' for Active; 'I' for Inactive)
REMARK    1  A    between atoms: C_1  and  C_2
REMARK    2  A    between atoms: C_10  and  S_16
REMARK    3  A    between atoms: S_16  and  N_19
REMARK                            x       y       z     vdW  Elec       q    Type
REMARK                         _______ _______ _______ _____ _____    ______ ____
ROOT
ATOM      1  C   UNL     1      -0.019   1.526   0.010  0.00  0.00    +0.027 C 
ATOM      2  C   UNL     1       0.002  -0.004   0.002  0.00  0.00    +0.158 C 
ATOM      3  C   UNL     1      -1.409  -0.531   0.027  0.00  0.00    +0.229 C 
ATOM      4  O   UNL     1      -1.787  -1.263  -0.864  0.00  0.00    -0.275 OA
ATOM      5  N   UNL     1      -2.249  -0.209   1.011  0.00  0.00    -0.283 N 
ATOM      6  C   UNL     1      -1.966   0.650   2.068  0.00  0.00    +0.055 A 
ATOM      7  C   UNL     1      -2.974   1.541   2.444  0.00  0.00    +0.027 A 
ATOM      8  C   UNL     1      -2.780   2.426   3.482  0.00  0.00    +0.030 A 
ATOM      9  C   UNL     1      -1.576   2.438   4.162  0.00  0.00    +0.107 A 
ATOM     10  C   UNL     1      -0.574   1.564   3.799  0.00  0.00    +0.053 A 
ATOM     11  C   UNL     1      -0.759   0.662   2.749  0.00  0.00    +0.057 A 
ATOM     12  N   UNL     1       0.306  -0.183   2.451  0.00  0.00    -0.283 N 
ATOM     13  C   UNL     1       0.718  -0.509   1.228  0.00  0.00    +0.229 C 
ATOM     14  O   UNL     1       1.687  -1.226   1.098  0.00  0.00    -0.275 OA
ATOM     15  H   UNL     1      -3.133  -0.608   0.987  0.00  0.00    +0.155 HD
ATOM     16  H   UNL     1       0.789  -0.567   3.199  0.00  0.00    +0.155 HD
ENDROOT
BRANCH   9  17
ATOM     17  S   UNL     1      -1.323   3.568   5.490  0.00  0.00    +0.061 S 
ATOM     18  O   UNL     1      -2.611   3.906   5.987  0.00  0.00    -0.153 OA
ATOM     19  O   UNL     1      -0.312   3.006   6.315  0.00  0.00    -0.153 OA
BRANCH  17  20
ATOM     20  N   UNL     1      -0.688   4.953   4.840  0.00  0.00    -0.177 NA
ATOM     21  C   UNL     1       0.744   5.240   4.668  0.00  0.00    +0.109 C 
ATOM     22  C   UNL     1       0.857   6.649   4.049  0.00  0.00    +0.018 C 
ATOM     23  C   UNL     1      -0.493   7.307   4.440  0.00  0.00    +0.018 C 
ATOM     24  C   UNL     1      -1.464   6.104   4.345  0.00  0.00    +0.109 C 
ENDBRANCH  17  20
ENDBRANCH   9  17
TORSDOF 2
