REMARK  Name = ZINC22160213
REMARK  7 active torsions:
REMARK  status: ('A' for Active; 'I' for Inactive)
REMARK    1  A    between atoms: C_1  and  C_2
REMARK    2  A    between atoms: C_5  and  O_12
REMARK    3  A    between atoms: C_8  and  C_10
REMARK    4  A    between atoms: C_8  and  C_11
REMARK    5  A    between atoms: O_12  and  C_13
REMARK    6  A    between atoms: C_14  and  C_21
REMARK    7  A    between atoms: C_21  and  O_22
REMARK                            x       y       z     vdW  Elec       q    Type
REMARK                         _______ _______ _______ _____ _____    ______ ____
ROOT
ATOM      1  C   UNL     1       1.063   3.860  -1.075  0.00  0.00    +0.240 A 
ATOM      2  C   UNL     1       1.147   3.062   0.008  0.00  0.00    +0.112 A 
ATOM      3  N   UNL     1       1.076   3.877   1.140  0.00  0.00    -0.292 N 
ATOM      4  C   UNL     1       1.107   3.737   2.510  0.00  0.00    +0.101 A 
ATOM      5  C   UNL     1       1.014   4.801   3.307  0.00  0.00    +0.067 A 
ATOM      6  S   UNL     1       0.879   6.135   2.126  0.00  0.00    -0.058 S 
ATOM      7  C   UNL     1       0.958   5.149   0.648  0.00  0.00    +0.181 A 
ATOM      8  N   UNL     1       0.948   5.131  -0.655  0.00  0.00    -0.187 NA
ENDROOT
BRANCH   1   9
ATOM      9  O   UNL     1       1.090   3.449  -2.372  0.00  0.00    -0.472 OA
BRANCH   9  13
ATOM     10  C   UNL     1       3.673   6.537  -5.192  0.00  0.00    +0.007 C 
ATOM     11  C   UNL     1       2.274   6.041  -4.821  0.00  0.00    -0.010 C 
ATOM     12  C   UNL     1       2.385   4.957  -3.746  0.00  0.00    +0.048 C 
ATOM     13  C   UNL     1       0.986   4.461  -3.375  0.00  0.00    +0.176 C 
ATOM     14  C   UNL     1       0.305   3.881  -4.617  0.00  0.00    +0.051 C 
ATOM     15  C   UNL     1       0.194   4.965  -5.691  0.00  0.00    -0.031 C 
ATOM     16  C   UNL     1       1.593   5.461  -6.062  0.00  0.00    +0.010 C 
ATOM     17  C   UNL     1      -0.635   6.133  -5.153  0.00  0.00    +0.011 C 
ATOM     18  C   UNL     1      -0.487   4.385  -6.932  0.00  0.00    +0.011 C 
ENDBRANCH   9  13
ENDBRANCH   1   9
BRANCH   2  19
ATOM     19  C   UNL     1       1.286   1.562  -0.002  0.00  0.00    +0.215 C 
BRANCH  19  20
ATOM     20  O   UNL     1      -0.011   0.963   0.007  0.00  0.00    -0.389 OA
ATOM     21  H   UNL     1      -0.111  -0.133   0.002  0.00  0.00    +0.210 HD
ENDBRANCH  19  20
ENDBRANCH   2  19
TORSDOF 4
