REMARK  Name = ZINC60403234
REMARK  7 active torsions:
REMARK  status: ('A' for Active; 'I' for Inactive)
REMARK    1  A    between atoms: C_1  and  C_2
REMARK    2  A    between atoms: C_7  and  C_11
REMARK    3  A    between atoms: C_11  and  N_12
REMARK    4  A    between atoms: C_13  and  C_15
REMARK    5  A    between atoms: C_16  and  C_17
REMARK    6  A    between atoms: C_18  and  C_24
REMARK    7  A    between atoms: N_20  and  C_23
REMARK                            x       y       z     vdW  Elec       q    Type
REMARK                         _______ _______ _______ _____ _____    ______ ____
ROOT
ATOM      1  N   UNL     1       1.471  -5.968   2.492  0.00  0.00    -0.306 N 
ATOM      2  C   UNL     1       1.735  -7.130   3.123  0.00  0.00    +0.237 C 
ATOM      3  O   UNL     1       0.824  -7.793   3.585  0.00  0.00    -0.271 OA
ATOM      4  H   UNL     1       2.197  -5.441   2.124  0.00  0.00    +0.149 HD
ENDROOT
BRANCH   2   5
ATOM      5  C   UNL     1       3.073  -7.581   3.247  0.00  0.00    +0.068 C 
ATOM      6  C   UNL     1       3.337  -8.746   3.879  0.00  0.00    +0.018 C 
BRANCH   6   7
ATOM      7  C   UNL     1       4.724  -9.213   4.008  0.00  0.00    +0.034 A 
ATOM      8  C   UNL     1       5.356  -9.652   5.195  0.00  0.00    +0.069 A 
ATOM      9  N   UNL     1       6.582  -9.983   4.901  0.00  0.00    -0.175 NA
ATOM     10  N   UNL     1       6.796  -9.776   3.534  0.00  0.00    -0.255 N 
ATOM     11  C   UNL     1       5.657  -9.311   2.990  0.00  0.00    +0.134 A 
ATOM     12 CL   UNL     1       5.406  -8.906   1.320  0.00  0.00    -0.062 Cl
ATOM     13  C   UNL     1       8.047 -10.030   2.815  0.00  0.00    +0.174 C 
ATOM     14  C   UNL     1       4.722  -9.724   6.560  0.00  0.00    +0.068 C 
ENDBRANCH   6   7
ENDBRANCH   2   5
BRANCH   1  15
ATOM     15  C   UNL     1       0.088  -5.503   2.364  0.00  0.00    +0.159 C 
BRANCH  15  22
ATOM     16  C   UNL     1      -0.018   1.503   0.010  0.00  0.00    +0.045 C 
ATOM     17  C   UNL     1       0.002  -0.004   0.002  0.00  0.00    -0.034 A 
ATOM     18  C   UNL     1       0.006  -0.697  -1.220  0.00  0.00    +0.008 A 
ATOM     19  C   UNL     1       0.025  -2.057  -1.224  0.00  0.00    +0.045 A 
ATOM     20  C   UNL     1       0.040  -2.750   0.003  0.00  0.00    +0.115 A 
ATOM     21  N   UNL     1       0.059  -4.043   0.297  0.00  0.00    -0.342 N 
ATOM     22  C   UNL     1       0.067  -4.189   1.625  0.00  0.00    +0.051 A 
ATOM     23  C   UNL     1       0.053  -2.964   2.194  0.00  0.00    +0.115 A 
ATOM     24  N   UNL     1       0.036  -2.047   1.179  0.00  0.00    -0.308 N 
ATOM     25  C   UNL     1       0.022  -0.682   1.169  0.00  0.00    +0.096 A 
ATOM     26  H   UNL     1       0.066  -4.766  -0.348  0.00  0.00    +0.167 HD
ENDBRANCH  15  22
ENDBRANCH   1  15
TORSDOF 4
