REMARK  Name = ZINC63339869
REMARK  7 active torsions:
REMARK  status: ('A' for Active; 'I' for Inactive)
REMARK    1  A    between atoms: C_1  and  C_2
REMARK    2  A    between atoms: C_2  and  N_3
REMARK    3  A    between atoms: C_19  and  C_24
REMARK    4  A    between atoms: C_27  and  O_32
REMARK    5  A    between atoms: C_28  and  O_30
REMARK    6  A    between atoms: O_30  and  C_31
REMARK    7  A    between atoms: O_32  and  C_33
REMARK                            x       y       z     vdW  Elec       q    Type
REMARK                         _______ _______ _______ _____ _____    ______ ____
ROOT
ATOM      1  N   UNL     1      -1.372  -0.511   0.012  0.00  0.00    -0.252 N 
ATOM      2  C   UNL     1      -2.074  -0.774   1.134  0.00  0.00    +0.242 C 
ATOM      3  O   UNL     1      -1.691  -0.668   2.280  0.00  0.00    -0.273 OA
ATOM      4  C   UNL     1      -3.440  -1.229   0.665  0.00  0.00    +0.166 C 
ATOM      5  C   UNL     1      -3.721  -2.652   1.179  0.00  0.00    +0.065 C 
ATOM      6  C   UNL     1      -4.730  -3.257   0.231  0.00  0.00    -0.034 C 
ATOM      7  C   UNL     1      -5.202  -4.497   0.144  0.00  0.00    -0.001 A 
ATOM      8  C   UNL     1      -4.986  -5.687   0.982  0.00  0.00    +0.010 A 
ATOM      9  C   UNL     1      -5.624  -6.820   0.589  0.00  0.00    +0.001 A 
ATOM     10  C   UNL     1      -6.445  -6.888  -0.542  0.00  0.00    +0.002 A 
ATOM     11  C   UNL     1      -6.705  -5.841  -1.365  0.00  0.00    +0.026 A 
ATOM     12  C   UNL     1      -6.094  -4.592  -1.051  0.00  0.00    +0.043 A 
ATOM     13  N   UNL     1      -6.181  -3.440  -1.647  0.00  0.00    -0.375 N 
ATOM     14  C   UNL     1      -5.404  -2.463  -0.880  0.00  0.00    +0.131 C 
ATOM     15  C   UNL     1      -4.288  -1.840  -1.730  0.00  0.00    +0.133 C 
ATOM     16  N   UNL     1      -3.295  -1.271  -0.804  0.00  0.00    -0.291 N 
ATOM     17  C   UNL     1      -2.089  -0.765  -1.091  0.00  0.00    +0.143 C 
ATOM     18  S   UNL     1      -1.526  -0.480  -2.682  0.00  0.00    -0.018 S 
ATOM     19  H   UNL     1      -6.676  -3.258  -2.461  0.00  0.00    +0.160 HD
ENDROOT
BRANCH  15  20
ATOM     20  C   UNL     1      -4.852  -0.737  -2.588  0.00  0.00    -0.021 A 
ATOM     21  C   UNL     1      -5.074   0.514  -2.044  0.00  0.00    +0.009 A 
ATOM     22  C   UNL     1      -5.591   1.530  -2.826  0.00  0.00    +0.050 A 
ATOM     23  C   UNL     1      -5.887   1.295  -4.160  0.00  0.00    +0.162 A 
ATOM     24  C   UNL     1      -5.662   0.036  -4.708  0.00  0.00    +0.162 A 
ATOM     25  C   UNL     1      -5.139  -0.977  -3.919  0.00  0.00    +0.055 A 
BRANCH  24  26
ATOM     26  O   UNL     1      -5.951  -0.200  -6.016  0.00  0.00    -0.491 OA
ATOM     27  C   UNL     1      -5.695  -1.516  -6.510  0.00  0.00    +0.277 C 
ENDBRANCH  24  26
BRANCH  23  28
ATOM     28  O   UNL     1      -6.396   2.293  -4.931  0.00  0.00    -0.491 OA
ATOM     29  C   UNL     1      -6.600   3.559  -4.301  0.00  0.00    +0.277 C 
ENDBRANCH  23  28
ENDBRANCH  15  20
BRANCH   1  31
ATOM     30  C   UNL     1      -0.019   1.526   0.010  0.00  0.00    +0.025 C 
ATOM     31  C   UNL     1       0.002  -0.004   0.002  0.00  0.00    +0.112 C 
ENDBRANCH   1  31
TORSDOF 4
