REMARK  Name = ZINC13114673
REMARK  6 active torsions:
REMARK  status: ('A' for Active; 'I' for Inactive)
REMARK    1  A    between atoms: C_8  and  C_10
REMARK    2  A    between atoms: C_10  and  N_11
REMARK    3  A    between atoms: C_17  and  C_19
REMARK    4  A    between atoms: C_19  and  C_20
REMARK    5  A    between atoms: C_20  and  C_21
REMARK    6  A    between atoms: C_21  and  N_22
REMARK                            x       y       z     vdW  Elec       q    Type
REMARK                         _______ _______ _______ _____ _____    ______ ____
ROOT
ATOM      1  N   UNL     1      -0.913   3.056  -1.135  0.00  0.00    -0.293 NA
ATOM      2  C   UNL     1      -0.762   1.597  -1.227  0.00  0.00    +0.104 C 
ATOM      3  C   UNL     1      -0.013   1.086   0.008  0.00  0.00    +0.123 C 
ATOM      4  N   UNL     1      -0.709   1.564   1.212  0.00  0.00    -0.299 N 
ATOM      5  C   UNL     1      -1.023   2.998   1.310  0.00  0.00    +0.123 C 
ATOM      6  C   UNL     1      -1.732   3.434   0.024  0.00  0.00    +0.104 C 
ATOM      7  C   UNL     1      -1.054   0.710   2.197  0.00  0.00    +0.216 C 
ATOM      8  O   UNL     1      -0.790  -0.469   2.096  0.00  0.00    -0.276 OA
ENDROOT
BRANCH   1   9
ATOM      9  C   UNL     1      -1.472   3.606  -2.377  0.00  0.00    +0.147 C 
BRANCH   9  17
ATOM     10  C   UNL     1       0.273   9.503  -2.905  0.00  0.00    +0.002 A 
ATOM     11  C   UNL     1      -0.900   9.974  -2.332  0.00  0.00    +0.001 A 
ATOM     12  C   UNL     1      -1.865   9.073  -1.924  0.00  0.00    +0.017 A 
ATOM     13  C   UNL     1      -1.646   7.728  -2.093  0.00  0.00    +0.039 A 
ATOM     14  C   UNL     1      -0.462   7.219  -2.673  0.00  0.00    +0.079 A 
ATOM     15  C   UNL     1       0.500   8.172  -3.076  0.00  0.00    +0.029 A 
ATOM     16  N   UNL     1      -0.414   5.874  -2.761  0.00  0.00    -0.243 NA
ATOM     17  C   UNL     1      -1.385   5.110  -2.344  0.00  0.00    +0.093 A 
ATOM     18  S   UNL     1      -2.557   6.244  -1.747  0.00  0.00    -0.071 S 
ENDBRANCH   9  17
ENDBRANCH   1   9
BRANCH   7  19
ATOM     19  C   UNL     1      -1.766   1.222   3.422  0.00  0.00    +0.098 C 
BRANCH  19  20
ATOM     20  C   UNL     1      -2.040   0.057   4.376  0.00  0.00    +0.031 C 
BRANCH  20  21
ATOM     21  C   UNL     1      -2.763   0.577   5.620  0.00  0.00    +0.129 C 
BRANCH  21  22
ATOM     22  N   UNL     1      -3.025  -0.538   6.534  0.00  0.00    -0.274 N 
ATOM     23  C   UNL     1      -2.182  -0.988   7.550  0.00  0.00    +0.090 A 
ATOM     24  C   UNL     1      -0.936  -0.582   8.002  0.00  0.00    +0.030 A 
ATOM     25  C   UNL     1      -0.339  -1.244   9.057  0.00  0.00    +0.002 A 
ATOM     26  C   UNL     1      -0.981  -2.309   9.663  0.00  0.00    +0.004 A 
ATOM     27  C   UNL     1      -2.223  -2.719   9.218  0.00  0.00    +0.048 A 
ATOM     28  C   UNL     1      -2.830  -2.061   8.160  0.00  0.00    +0.157 A 
ATOM     29  O   UNL     1      -4.013  -2.233   7.521  0.00  0.00    -0.407 OA
ATOM     30  C   UNL     1      -4.127  -1.314   6.550  0.00  0.00    +0.421 A 
ATOM     31  O   UNL     1      -5.077  -1.200   5.799  0.00  0.00    -0.223 OA
ENDBRANCH  21  22
ENDBRANCH  20  21
ENDBRANCH  19  20
ENDBRANCH   7  19
TORSDOF 6
