REMARK  Name = ZINC66176576
REMARK  4 active torsions:
REMARK  status: ('A' for Active; 'I' for Inactive)
REMARK    1  A    between atoms: C_7  and  C_11
REMARK    2  A    between atoms: C_11  and  C_12
REMARK    3  A    between atoms: C_12  and  N_13
REMARK    4  A    between atoms: C_19  and  N_22
REMARK                            x       y       z     vdW  Elec       q    Type
REMARK                         _______ _______ _______ _____ _____    ______ ____
ROOT
ATOM      1  N   UNL     1       2.510  -2.889   5.045  0.00  0.00    -0.299 N 
ATOM      2  C   UNL     1       2.566  -2.559   6.351  0.00  0.00    +0.302 C 
ATOM      3  O   UNL     1       2.879  -1.431   6.679  0.00  0.00    -0.253 OA
ATOM      4  N   UNL     1       2.275  -3.478   7.292  0.00  0.00    -0.287 N 
ATOM      5  C   UNL     1       1.889  -4.874   7.036  0.00  0.00    +0.108 C 
ATOM      6  C   UNL     1       1.629  -5.536   8.405  0.00  0.00    +0.005 C 
ATOM      7  C   UNL     1       1.332  -4.324   9.326  0.00  0.00    -0.049 C 
ATOM      8  C   UNL     1       2.295  -3.253   8.749  0.00  0.00    +0.094 C 
ATOM      9  H   UNL     1       2.261  -3.789   4.783  0.00  0.00    +0.150 HD
ENDROOT
BRANCH   7  10
ATOM     10  N   UNL     1       1.665  -4.630  10.724  0.00  0.00    +0.383 N 
ATOM     11  C   UNL     1       1.294  -3.490  11.601  0.00  0.00    -0.078 C 
ATOM     12  C   UNL     1       1.165  -4.146  12.999  0.00  0.00    -0.020 C 
ATOM     13  C   UNL     1       0.535  -5.521  12.679  0.00  0.00    -0.020 C 
ATOM     14  C   UNL     1       0.867  -5.781  11.198  0.00  0.00    -0.078 C 
ATOM     15  H   UNL     1       2.650  -4.831  10.811  0.00  0.00    -0.081 HD
ENDBRANCH   7  10
BRANCH   1  16
ATOM     16  C   UNL     1       2.827  -1.889   4.022  0.00  0.00    +0.113 C 
BRANCH  16  17
ATOM     17  C   UNL     1       2.689  -2.518   2.635  0.00  0.00    +0.095 C 
BRANCH  17  24
ATOM     18  C   UNL     1      -0.019   1.524   0.010  0.00  0.00    +0.002 C 
ATOM     19  C   UNL     1       1.403   2.078  -0.000  0.00  0.00    +0.008 C 
ATOM     20  C   UNL     1       2.311   1.146  -0.809  0.00  0.00    +0.076 C 
ATOM     21  C   UNL     1       2.864   0.083   0.104  0.00  0.00    +0.133 A 
ATOM     22  N   UNL     1       4.102  -0.311   0.193  0.00  0.00    -0.134 NA
ATOM     23  N   UNL     1       4.193  -1.250   1.070  0.00  0.00    -0.134 NA
ATOM     24  C   UNL     1       3.015  -1.490   1.582  0.00  0.00    +0.135 A 
ATOM     25  N   UNL     1       2.144  -0.643   0.991  0.00  0.00    -0.315 N 
ATOM     26  C   UNL     1       0.711  -0.518   1.258  0.00  0.00    +0.125 C 
ATOM     27  C   UNL     1       0.002  -0.004   0.002  0.00  0.00    +0.022 C 
ENDBRANCH  17  24
ENDBRANCH  16  17
ENDBRANCH   1  16
TORSDOF 4
