REMARK  Name = ZINC40020953
REMARK  8 active torsions:
REMARK  status: ('A' for Active; 'I' for Inactive)
REMARK    1  A    between atoms: C_1  and  C_2
REMARK    2  A    between atoms: C_2  and  O_3
REMARK    3  A    between atoms: O_3  and  C_4
REMARK    4  A    between atoms: C_6  and  C_11
REMARK    5  A    between atoms: C_9  and  O_10
REMARK    6  A    between atoms: N_26  and  C_27
REMARK    7  A    between atoms: C_27  and  C_28
REMARK    8  A    between atoms: C_28  and  O_29
REMARK                            x       y       z     vdW  Elec       q    Type
REMARK                         _______ _______ _______ _____ _____    ______ ____
ROOT
ATOM      1  C   UNL     1      -0.229  -4.969   0.477  0.00  0.00    +0.145 C 
ATOM      2  C   UNL     1      -1.522  -5.536  -0.009  0.00  0.00    +0.072 A 
ATOM      3  C   UNL     1      -2.786  -4.887  -0.372  0.00  0.00    +0.199 A 
ATOM      4  O   UNL     1      -2.908  -3.680  -0.486  0.00  0.00    -0.287 OA
ATOM      5  C   UNL     1      -3.903  -5.841  -0.587  0.00  0.00    +0.066 A 
ATOM      6  C   UNL     1      -5.209  -5.376  -0.741  0.00  0.00    +0.035 A 
ATOM      7  C   UNL     1      -6.234  -6.276  -0.935  0.00  0.00    +0.042 A 
ATOM      8  C   UNL     1      -5.966  -7.638  -0.976  0.00  0.00    +0.023 A 
ATOM      9  C   UNL     1      -4.681  -8.108  -0.827  0.00  0.00    +0.048 A 
ATOM     10  C   UNL     1      -3.626  -7.217  -0.632  0.00  0.00    +0.140 A 
ATOM     11  O   UNL     1      -2.371  -7.706  -0.498  0.00  0.00    -0.450 OA
ATOM     12  C   UNL     1      -1.380  -6.893  -0.084  0.00  0.00    +0.199 A 
ATOM     13  C   UNL     1      -0.016  -7.239   0.352  0.00  0.00    +0.283 C 
ATOM     14  O   UNL     1       0.432  -8.367   0.407  0.00  0.00    -0.267 OA
ATOM     15  N   UNL     1       0.665  -6.120   0.682  0.00  0.00    -0.281 N 
ATOM     16 CL   UNL     1      -7.863  -5.707  -1.128  0.00  0.00    -0.084 Cl
ENDROOT
BRANCH   1  19
ATOM     17  C   UNL     1       0.777  -1.811  -1.336  0.00  0.00    +0.162 A 
ATOM     18  C   UNL     1       0.243  -2.669  -0.388  0.00  0.00    +0.055 A 
ATOM     19  C   UNL     1       0.352  -4.037  -0.555  0.00  0.00    -0.019 A 
ATOM     20  C   UNL     1       0.992  -4.552  -1.667  0.00  0.00    +0.009 A 
ATOM     21  C   UNL     1       1.526  -3.702  -2.616  0.00  0.00    +0.049 A 
ATOM     22  C   UNL     1       1.416  -2.330  -2.458  0.00  0.00    +0.158 A 
BRANCH  22  23
ATOM     23  O   UNL     1       1.936  -1.492  -3.394  0.00  0.00    -0.503 OA
ATOM     24  H   UNL     1       2.856  -1.241  -3.231  0.00  0.00    +0.292 HD
ENDBRANCH  22  23
BRANCH  17  25
ATOM     25  O   UNL     1       0.671  -0.465  -1.174  0.00  0.00    -0.489 OA
BRANCH  25  27
ATOM     26  C   UNL     1      -0.019   1.526   0.010  0.00  0.00    +0.048 C 
ATOM     27  C   UNL     1       0.002  -0.004   0.002  0.00  0.00    +0.226 C 
ENDBRANCH  25  27
ENDBRANCH  17  25
ENDBRANCH   1  19
BRANCH  15  28
ATOM     28  C   UNL     1       2.049  -6.062   1.159  0.00  0.00    +0.137 C 
BRANCH  28  29
ATOM     29  C   UNL     1       2.067  -6.159   2.686  0.00  0.00    +0.175 C 
BRANCH  29  30
ATOM     30  O   UNL     1       1.583  -7.442   3.087  0.00  0.00    -0.393 OA
ATOM     31  H   UNL     1       1.567  -7.575   4.045  0.00  0.00    +0.209 HD
ENDBRANCH  29  30
ENDBRANCH  28  29
ENDBRANCH  15  28
TORSDOF 7
