REMARK  Name = ZINC16246280
REMARK  6 active torsions:
REMARK  status: ('A' for Active; 'I' for Inactive)
REMARK    1  A    between atoms: C_11  and  C_13
REMARK    2  A    between atoms: C_13  and  S_14
REMARK    3  A    between atoms: S_14  and  C_15
REMARK    4  A    between atoms: C_18  and  C_26
REMARK    5  A    between atoms: N_19  and  C_20
REMARK    6  A    between atoms: C_20  and  C_21
REMARK                            x       y       z     vdW  Elec       q    Type
REMARK                         _______ _______ _______ _____ _____    ______ ____
ROOT
ATOM      1  C   UNL     1      -3.981  -0.613   0.097  0.00  0.00    +0.193 A 
ATOM      2  N   UNL     1      -3.902  -1.922   0.182  0.00  0.00    -0.122 NA
ATOM      3  N   UNL     1      -5.079  -2.438   0.160  0.00  0.00    -0.128 NA
ATOM      4  C   UNL     1      -5.981  -1.491   0.051  0.00  0.00    +0.165 A 
ATOM      5  N   UNL     1      -5.306  -0.293   0.008  0.00  0.00    -0.295 N 
ENDROOT
BRANCH   4   6
ATOM      6  C   UNL     1      -7.446  -1.676  -0.012  0.00  0.00    +0.019 A 
ATOM      7  C   UNL     1      -8.017  -2.886   0.385  0.00  0.00    +0.013 A 
ATOM      8  C   UNL     1      -9.385  -3.051   0.329  0.00  0.00    +0.021 A 
ATOM      9  C   UNL     1     -10.191  -2.024  -0.131  0.00  0.00    +0.041 A 
ATOM     10  C   UNL     1      -9.630  -0.823  -0.532  0.00  0.00    +0.021 A 
ATOM     11  C   UNL     1      -8.264  -0.644  -0.475  0.00  0.00    +0.013 A 
ATOM     12 CL   UNL     1     -11.912  -2.242  -0.207  0.00  0.00    -0.084 Cl
ENDBRANCH   4   6
BRANCH   1  13
ATOM     13  S   UNL     1      -2.630   0.518   0.092  0.00  0.00    -0.078 S 
BRANCH  13  14
ATOM     14  C   UNL     1      -1.248  -0.642   0.240  0.00  0.00    +0.151 C 
BRANCH  14  25
ATOM     15  C   UNL     1       3.483   3.654   0.201  0.00  0.00    +0.001 A 
ATOM     16  C   UNL     1       2.252   4.289   0.095  0.00  0.00    +0.002 A 
ATOM     17  C   UNL     1       1.083   3.563   0.083  0.00  0.00    +0.028 A 
ATOM     18  C   UNL     1       1.132   2.171   0.178  0.00  0.00    +0.078 A 
ATOM     19  C   UNL     1       2.385   1.528   0.284  0.00  0.00    +0.065 A 
ATOM     20  C   UNL     1       3.557   2.281   0.295  0.00  0.00    +0.015 A 
ATOM     21  C   UNL     1       2.402   0.061   0.383  0.00  0.00    +0.259 A 
ATOM     22  O   UNL     1       3.448  -0.554   0.477  0.00  0.00    -0.267 OA
ATOM     23  N   UNL     1       1.209  -0.579   0.364  0.00  0.00    -0.310 N 
ATOM     24  H   UNL     1       1.182  -1.546   0.426  0.00  0.00    +0.170 HD
ATOM     25  C   UNL     1       0.050   0.122   0.257  0.00  0.00    +0.121 A 
ATOM     26  N   UNL     1       0.004   1.417   0.169  0.00  0.00    -0.233 NA
ENDBRANCH  14  25
ENDBRANCH  13  14
ENDBRANCH   1  13
BRANCH   5  27
ATOM     27  C   UNL     1      -5.886   1.047  -0.110  0.00  0.00    +0.200 C 
BRANCH  27  28
ATOM     28  C   UNL     1      -5.860   1.480  -1.553  0.00  0.00    +0.125 A 
ATOM     29  C   UNL     1      -6.881   1.380  -2.423  0.00  0.00    +0.046 A 
ATOM     30  C   UNL     1      -6.424   1.905  -3.654  0.00  0.00    +0.041 A 
ATOM     31  C   UNL     1      -5.148   2.286  -3.465  0.00  0.00    +0.195 A 
ATOM     32  O   UNL     1      -4.812   2.027  -2.191  0.00  0.00    -0.466 OA
ENDBRANCH  27  28
ENDBRANCH   5  27
TORSDOF 6
