REMARK  Name = ZINC40634719
REMARK  5 active torsions:
REMARK  status: ('A' for Active; 'I' for Inactive)
REMARK    1  A    between atoms: C_1  and  C_2
REMARK    2  A    between atoms: C_7  and  C_25
REMARK    3  A    between atoms: C_10  and  C_12
REMARK    4  A    between atoms: C_12  and  C_13
REMARK    5  A    between atoms: C_13  and  N_14
REMARK                            x       y       z     vdW  Elec       q    Type
REMARK                         _______ _______ _______ _____ _____    ______ ____
ROOT
ATOM      1  C   UNL     1      -0.505  -2.022   4.313  0.00  0.00    +0.126 C 
ENDROOT
BRANCH   1   2
ATOM      2  N   UNL     1       0.119  -2.370   5.592  0.00  0.00    -0.234 N 
ATOM      3  C   UNL     1       0.770  -3.522   5.832  0.00  0.00    +0.254 C 
ATOM      4  O   UNL     1       0.931  -4.425   5.037  0.00  0.00    -0.270 OA
ATOM      5  C   UNL     1       1.258  -3.505   7.228  0.00  0.00    +0.049 A 
ATOM      6  C   UNL     1       1.974  -4.394   8.014  0.00  0.00    +0.014 A 
ATOM      7  C   UNL     1       2.276  -4.061   9.325  0.00  0.00    +0.001 A 
ATOM      8  C   UNL     1       1.869  -2.851   9.853  0.00  0.00    +0.001 A 
ATOM      9  C   UNL     1       1.153  -1.952   9.079  0.00  0.00    +0.014 A 
ATOM     10  C   UNL     1       0.843  -2.270   7.766  0.00  0.00    +0.049 A 
ATOM     11  C   UNL     1       0.121  -1.577   6.678  0.00  0.00    +0.254 C 
ATOM     12  O   UNL     1      -0.386  -0.476   6.753  0.00  0.00    -0.270 OA
ENDBRANCH   1   2
BRANCH   1  13
ATOM     13  C   UNL     1       0.513  -1.302   3.427  0.00  0.00    +0.115 C 
BRANCH  13  21
ATOM     14  C   UNL     1       2.845  -0.630   0.428  0.00  0.00    +0.030 C 
ATOM     15  C   UNL     1       1.966   0.133   1.422  0.00  0.00    +0.099 C 
ATOM     16  C   UNL     1       2.129   1.641   1.204  0.00  0.00    +0.182 C 
ATOM     17  O   UNL     1       1.576   1.996  -0.066  0.00  0.00    -0.376 OA
ATOM     18  C   UNL     1       0.172   1.751  -0.182  0.00  0.00    +0.182 C 
ATOM     19  C   UNL     1      -0.091   0.248  -0.035  0.00  0.00    +0.099 C 
ATOM     20  N   UNL     1       0.554  -0.218   1.204  0.00  0.00    -0.291 N 
ATOM     21  C   UNL     1      -0.129  -0.944   2.112  0.00  0.00    +0.218 C 
ATOM     22  O   UNL     1      -1.260  -1.309   1.870  0.00  0.00    -0.276 OA
ATOM     23  C   UNL     1      -1.598  -0.006   0.041  0.00  0.00    +0.030 C 
ENDBRANCH  13  21
ENDBRANCH   1  13
TORSDOF 3
