REMARK  Name = ZINC37669548
REMARK  3 active torsions:
REMARK  status: ('A' for Active; 'I' for Inactive)
REMARK    1  A    between atoms: C_3  and  N_19
REMARK    2  A    between atoms: C_4  and  C_8
REMARK    3  A    between atoms: N_10  and  C_11
REMARK                            x       y       z     vdW  Elec       q    Type
REMARK                         _______ _______ _______ _____ _____    ______ ____
ROOT
ATOM      1  C   UNL     1       3.896  -0.291  -0.021  0.00  0.00    +0.251 C 
ATOM      2  O   UNL     1       4.843   0.453  -0.183  0.00  0.00    -0.270 OA
ATOM      3  N   UNL     1       4.102  -1.599   0.231  0.00  0.00    -0.281 N 
ATOM      4  H   UNL     1       3.349  -2.208   0.285  0.00  0.00    +0.155 HD
ENDROOT
BRANCH   3   5
ATOM      5  C   UNL     1       5.403  -2.080   0.412  0.00  0.00    +0.036 A 
ATOM      6  C   UNL     1       5.739  -3.357  -0.019  0.00  0.00    +0.043 A 
ATOM      7  C   UNL     1       7.026  -3.829   0.161  0.00  0.00    +0.044 A 
ATOM      8  C   UNL     1       7.978  -3.030   0.770  0.00  0.00    +0.040 A 
ATOM      9  C   UNL     1       7.646  -1.758   1.200  0.00  0.00    +0.044 A 
ATOM     10  C   UNL     1       6.362  -1.278   1.017  0.00  0.00    +0.043 A 
ATOM     11 CL   UNL     1       8.844  -0.760   1.963  0.00  0.00    -0.083 Cl
ATOM     12 CL   UNL     1       7.447  -5.425  -0.376  0.00  0.00    -0.083 Cl
ENDBRANCH   3   5
BRANCH   1  16
ATOM     13  C   UNL     1      -0.065   1.230  -0.247  0.00  0.00    +0.040 A 
ATOM     14  C   UNL     1       0.811   1.428  -1.299  0.00  0.00    +0.036 A 
ATOM     15  C   UNL     1       2.098   0.936  -1.232  0.00  0.00    +0.138 A 
ATOM     16  C   UNL     1       2.518   0.238  -0.098  0.00  0.00    +0.070 A 
ATOM     17  C   UNL     1       1.631   0.041   0.961  0.00  0.00    +0.053 A 
ATOM     18  C   UNL     1       0.344   0.538   0.881  0.00  0.00    +0.124 A 
ATOM     19  F   UNL     1      -0.517   0.348   1.905  0.00  0.00    -0.205 F 
BRANCH  15  20
ATOM     20  N   UNL     1       3.033   1.149  -2.360  0.00  0.00    +0.057 N 
ATOM     21  O   UNL     1       2.709   1.852  -3.288  0.00  0.00    -0.126 OA
ATOM     22  O   UNL     1       4.119   0.620  -2.352  0.00  0.00    -0.126 OA
ENDBRANCH  15  20
ENDBRANCH   1  16
TORSDOF 3
