REMARK  Name = ZINC39920290
REMARK  7 active torsions:
REMARK  status: ('A' for Active; 'I' for Inactive)
REMARK    1  A    between atoms: C_1  and  C_2
REMARK    2  A    between atoms: C_2  and  C_4
REMARK    3  A    between atoms: C_2  and  O_26
REMARK    4  A    between atoms: N_6  and  N_7
REMARK    5  A    between atoms: C_8  and  C_19
REMARK    6  A    between atoms: C_22  and  O_25
REMARK    7  A    between atoms: O_26  and  C_27
REMARK                            x       y       z     vdW  Elec       q    Type
REMARK                         _______ _______ _______ _____ _____    ______ ____
ROOT
ATOM      1  N   UNL     1       2.615  -1.135   2.610  0.00  0.00    -0.191 N 
ATOM      2  C   UNL     1       3.101  -0.170   3.596  0.00  0.00    +0.212 C 
ATOM      3  N   UNL     1       2.979  -0.722   4.951  0.00  0.00    -0.320 N 
ATOM      4  C   UNL     1       3.372  -2.038   5.170  0.00  0.00    +0.041 A 
ATOM      5  C   UNL     1       3.866  -2.462   6.391  0.00  0.00    +0.024 A 
ATOM      6  C   UNL     1       4.246  -3.780   6.554  0.00  0.00    +0.002 A 
ATOM      7  C   UNL     1       4.137  -4.680   5.506  0.00  0.00    +0.001 A 
ATOM      8  C   UNL     1       3.646  -4.274   4.282  0.00  0.00    +0.015 A 
ATOM      9  C   UNL     1       3.257  -2.949   4.104  0.00  0.00    +0.059 A 
ATOM     10  C   UNL     1       2.713  -2.463   2.824  0.00  0.00    +0.266 C 
ATOM     11  O   UNL     1       2.361  -3.252   1.967  0.00  0.00    -0.268 OA
ATOM     12  H   UNL     1       2.632  -0.181   5.677  0.00  0.00    +0.148 HD
ENDROOT
BRANCH   2  13
ATOM     13  C   UNL     1       4.548   0.142   3.317  0.00  0.00    -0.008 A 
ATOM     14  C   UNL     1       5.027   0.092   2.021  0.00  0.00    +0.011 A 
ATOM     15  C   UNL     1       6.354   0.378   1.762  0.00  0.00    +0.046 A 
ATOM     16  C   UNL     1       7.205   0.716   2.804  0.00  0.00    +0.117 A 
ATOM     17  C   UNL     1       6.722   0.766   4.103  0.00  0.00    +0.046 A 
ATOM     18  C   UNL     1       5.394   0.485   4.356  0.00  0.00    +0.011 A 
BRANCH  16  19
ATOM     19  O   UNL     1       8.511   0.997   2.551  0.00  0.00    -0.507 OA
ATOM     20  H   UNL     1       8.684   1.931   2.369  0.00  0.00    +0.292 HD
ENDBRANCH  16  19
ENDBRANCH   2  13
BRANCH   1  23
ATOM     21  C   UNL     1       0.693  -0.727   1.265  0.00  0.00    +0.270 C 
ATOM     22  O   UNL     1      -0.004  -1.180   2.148  0.00  0.00    -0.270 OA
ATOM     23  N   UNL     1       2.030  -0.670   1.424  0.00  0.00    -0.227 N 
ATOM     24  H   UNL     1       2.588  -0.308   0.718  0.00  0.00    +0.173 HD
BRANCH  21  26
ATOM     25  C   UNL     1       0.290   1.280  -0.134  0.00  0.00    +0.062 C 
ATOM     26  C   UNL     1       0.064  -0.228  -0.010  0.00  0.00    +0.257 C 
BRANCH  26  27
ATOM     27  O   UNL     1      -1.339  -0.499   0.012  0.00  0.00    -0.480 OA
BRANCH  27  28
ATOM     28  C   UNL     1      -1.965  -0.607  -1.189  0.00  0.00    +0.122 A 
ATOM     29  C   UNL     1      -1.270  -0.349  -2.361  0.00  0.00    +0.045 A 
ATOM     30  C   UNL     1      -1.909  -0.460  -3.581  0.00  0.00    +0.004 A 
ATOM     31  C   UNL     1      -3.241  -0.827  -3.634  0.00  0.00    +0.000 A 
ATOM     32  C   UNL     1      -3.937  -1.084  -2.466  0.00  0.00    +0.004 A 
ATOM     33  C   UNL     1      -3.300  -0.981  -1.245  0.00  0.00    +0.045 A 
ENDBRANCH  27  28
ENDBRANCH  26  27
ENDBRANCH  21  26
ENDBRANCH   1  23
TORSDOF 6
