REMARK  Name = ZINC04664101
REMARK  9 active torsions:
REMARK  status: ('A' for Active; 'I' for Inactive)
REMARK    1  A    between atoms: C_1  and  C_2
REMARK    2  A    between atoms: C_2  and  O_3
REMARK    3  A    between atoms: O_3  and  C_4
REMARK    4  A    between atoms: C_4  and  C_6
REMARK    5  A    between atoms: C_8  and  C_22
REMARK    6  A    between atoms: C_13  and  C_17
REMARK    7  A    between atoms: C_13  and  C_18
REMARK    8  A    between atoms: C_20  and  C_21
REMARK    9  A    between atoms: C_28  and  C_33
REMARK                            x       y       z     vdW  Elec       q    Type
REMARK                         _______ _______ _______ _____ _____    ______ ____
ROOT
ATOM      1  C   UNL     1      -0.248   4.726   7.608  0.00  0.00    +0.066 C 
ATOM      2  C   UNL     1       0.439   3.711   8.525  0.00  0.00    +0.080 C 
ATOM      3  C   UNL     1       0.111   4.049   9.962  0.00  0.00    +0.112 C 
ATOM      4  C   UNL     1      -1.100   4.572  10.265  0.00  0.00    +0.031 C 
ATOM      5  C   UNL     1      -1.466   4.883  11.696  0.00  0.00    +0.058 C 
ATOM      6  C   UNL     1      -0.209   5.282  12.471  0.00  0.00    -0.023 C 
ATOM      7  C   UNL     1       0.799   4.131  12.399  0.00  0.00    +0.081 C 
ATOM      8  C   UNL     1       1.078   3.812  10.955  0.00  0.00    +0.143 C 
ATOM      9  O   UNL     1       2.154   3.343  10.642  0.00  0.00    -0.297 OA
ATOM     10  C   UNL     1       0.402   6.538  11.846  0.00  0.00    +0.011 C 
ATOM     11  C   UNL     1      -0.572   5.556  13.932  0.00  0.00    +0.011 C 
ATOM     12  N   UNL     1      -2.002   4.824   9.296  0.00  0.00    -0.260 NA
ATOM     13  C   UNL     1      -1.679   4.898   8.049  0.00  0.00    +0.049 C 
ATOM     14  C   UNL     1      -2.395   6.191   7.756  0.00  0.00    +0.066 C 
ENDROOT
BRANCH   2  15
ATOM     15  C   UNL     1      -0.059   2.325   8.206  0.00  0.00    +0.043 A 
ATOM     16  C   UNL     1      -1.368   2.035   8.313  0.00  0.00    +0.203 A 
ATOM     17  O   UNL     1      -1.867   0.824   8.043  0.00  0.00    -0.462 OA
ATOM     18  C   UNL     1      -1.093  -0.204   7.641  0.00  0.00    +0.138 A 
ATOM     19  C   UNL     1      -1.643  -1.451   7.368  0.00  0.00    +0.047 A 
ATOM     20  C   UNL     1      -0.830  -2.485   6.955  0.00  0.00    +0.007 A 
ATOM     21  C   UNL     1       0.538  -2.299   6.816  0.00  0.00    -0.050 A 
ATOM     22  C   UNL     1       1.103  -1.071   7.081  0.00  0.00    +0.018 A 
ATOM     23  C   UNL     1       0.291  -0.016   7.495  0.00  0.00    +0.064 A 
ATOM     24  C   UNL     1       0.851   1.317   7.790  0.00  0.00    +0.196 A 
ATOM     25  O   UNL     1       2.044   1.543   7.683  0.00  0.00    -0.287 OA
ATOM     26  C   UNL     1       1.409  -3.445   6.367  0.00  0.00    +0.044 C 
ENDBRANCH   2  15
BRANCH   1  27
ATOM     27  C   UNL     1       0.022   5.609   6.417  0.00  0.00    +0.337 C 
ATOM     28  O   UNL     1       0.364   5.120   5.367  0.00  0.00    -0.245 OA
BRANCH  27  29
ATOM     29  O   UNL     1      -0.118   6.940   6.522  0.00  0.00    -0.462 OA
BRANCH  29  31
ATOM     30  C   UNL     1      -0.054   9.211   5.646  0.00  0.00    +0.048 C 
ATOM     31  C   UNL     1       0.158   7.728   5.335  0.00  0.00    +0.229 C 
ENDBRANCH  29  31
ENDBRANCH  27  29
ENDBRANCH   1  27
TORSDOF 4
