REMARK  Name = ZINC40024006
REMARK  7 active torsions:
REMARK  status: ('A' for Active; 'I' for Inactive)
REMARK    1  A    between atoms: C_1  and  C_2
REMARK    2  A    between atoms: C_9  and  N_14
REMARK    3  A    between atoms: N_17  and  C_18
REMARK    4  A    between atoms: C_18  and  C_20
REMARK    5  A    between atoms: C_18  and  C_25
REMARK    6  A    between atoms: C_25  and  C_26
REMARK    7  A    between atoms: C_25  and  C_27
REMARK                            x       y       z     vdW  Elec       q    Type
REMARK                         _______ _______ _______ _____ _____    ______ ____
ROOT
ATOM      1  N   UNL     1       0.118  -5.854   2.337  0.00  0.00    -0.269 N 
ATOM      2  C   UNL     1       1.166  -6.555   2.813  0.00  0.00    +0.304 C 
ATOM      3  O   UNL     1       2.210  -5.989   3.071  0.00  0.00    -0.252 OA
ATOM      4  N   UNL     1       1.056  -7.885   3.004  0.00  0.00    -0.292 N 
ATOM      5  H   UNL     1      -0.738  -6.290   2.204  0.00  0.00    +0.156 HD
ATOM      6  H   UNL     1       0.223  -8.337   2.798  0.00  0.00    +0.151 HD
ENDROOT
BRANCH   1  14
ATOM      7  C   UNL     1       2.083   1.444   0.671  0.00  0.00    +0.062 C 
ATOM      8  C   UNL     1       1.998   0.078   1.356  0.00  0.00    +0.256 C 
ATOM      9  C   UNL     1       3.046  -0.839   0.780  0.00  0.00    +0.258 C 
ATOM     10  O   UNL     1       4.078  -0.381   0.334  0.00  0.00    -0.271 OA
ATOM     11  N   UNL     1       2.833  -2.173   0.762  0.00  0.00    -0.279 N 
ATOM     12  C   UNL     1       1.618  -2.673   1.252  0.00  0.00    +0.077 A 
ATOM     13  C   UNL     1       1.478  -4.018   1.551  0.00  0.00    +0.050 A 
ATOM     14  C   UNL     1       0.266  -4.494   2.033  0.00  0.00    +0.037 A 
ATOM     15  C   UNL     1      -0.801  -3.623   2.214  0.00  0.00    +0.027 A 
ATOM     16  C   UNL     1      -0.660  -2.280   1.917  0.00  0.00    +0.049 A 
ATOM     17  C   UNL     1       0.546  -1.801   1.436  0.00  0.00    +0.143 A 
ATOM     18  O   UNL     1       0.700  -0.482   1.141  0.00  0.00    -0.478 OA
ATOM     19  H   UNL     1       3.510  -2.775   0.416  0.00  0.00    +0.155 HD
ENDBRANCH   1  14
BRANCH   4  20
ATOM     20  C   UNL     1       2.195  -8.647   3.522  0.00  0.00    +0.114 C 
BRANCH  20  21
ATOM     21  C   UNL     1       2.077 -10.085   3.086  0.00  0.00    +0.010 A 
ATOM     22  C   UNL     1       3.048 -10.933   2.667  0.00  0.00    +0.013 A 
ATOM     23  C   UNL     1       2.704 -12.224   2.313  0.00  0.00    +0.008 A 
ATOM     24  C   UNL     1       1.406 -12.604   2.395  0.00  0.00    +0.045 A 
ATOM     25  S   UNL     1       0.622 -11.116   2.994  0.00  0.00    -0.100 S 
ENDBRANCH  20  21
BRANCH  20  26
ATOM     26  C   UNL     1       2.203  -8.577   5.050  0.00  0.00    +0.008 C 
ATOM     27  C   UNL     1       3.392  -9.373   5.591  0.00  0.00    +0.009 C 
ATOM     28  C   UNL     1       2.323  -7.117   5.493  0.00  0.00    +0.009 C 
ENDBRANCH  20  26
ENDBRANCH   4  20
TORSDOF 4
