REMARK  Name = ZINC24252335
REMARK  7 active torsions:
REMARK  status: ('A' for Active; 'I' for Inactive)
REMARK    1  A    between atoms: C_1  and  N_2
REMARK    2  A    between atoms: C_6  and  N_7
REMARK    3  A    between atoms: N_7  and  C_8
REMARK    4  A    between atoms: C_8  and  C_9
REMARK    5  A    between atoms: C_9  and  C_11
REMARK    6  A    between atoms: C_9  and  C_18
REMARK    7  A    between atoms: N_30  and  C_33
REMARK                            x       y       z     vdW  Elec       q    Type
REMARK                         _______ _______ _______ _____ _____    ______ ____
ROOT
ATOM      1  C   UNL     1       3.684   4.020   0.015  0.00  0.00    +0.069 C 
ENDROOT
BRANCH   1   2
ATOM      2  C   UNL     1       2.195   4.251   0.032  0.00  0.00    -0.013 A 
ATOM      3  C   UNL     1       1.571   5.439   0.024  0.00  0.00    +0.088 A 
ATOM      4  N   UNL     1       0.216   5.255   0.045  0.00  0.00    -0.360 N 
ATOM      5  H   UNL     1      -0.458   6.125   0.042  0.00  0.00    +0.165 HD
ATOM      6  C   UNL     1      -0.073   3.909   0.068  0.00  0.00    +0.047 A 
ATOM      7  C   UNL     1       1.154   3.221   0.060  0.00  0.00    +0.003 A 
ATOM      8  C   UNL     1       1.170   1.825   0.080  0.00  0.00    +0.010 A 
ATOM      9  C   UNL     1      -0.009   1.134   0.105  0.00  0.00    +0.001 A 
ATOM     10  C   UNL     1      -1.222   1.808   0.107  0.00  0.00    +0.002 A 
ATOM     11  C   UNL     1      -1.260   3.185   0.094  0.00  0.00    +0.026 A 
ENDBRANCH   1   2
BRANCH   1  12
ATOM     12  C   UNL     1       4.306   4.662   1.228  0.00  0.00    -0.020 A 
ATOM     13  C   UNL     1       4.182   6.024   1.429  0.00  0.00    +0.006 A 
ATOM     14  C   UNL     1       4.752   6.614   2.542  0.00  0.00    +0.000 A 
ATOM     15  C   UNL     1       5.447   5.841   3.454  0.00  0.00    +0.001 A 
ATOM     16  C   UNL     1       5.572   4.480   3.254  0.00  0.00    +0.020 A 
ATOM     17  C   UNL     1       4.996   3.888   2.143  0.00  0.00    +0.045 A 
ATOM     18 CL   UNL     1       5.146   2.177   1.895  0.00  0.00    -0.083 Cl
ENDBRANCH   1  12
BRANCH   1  19
ATOM     19  C   UNL     1       4.282   4.636  -1.251  0.00  0.00    +0.114 C 
BRANCH  19  20
ATOM     20  N   UNL     1       5.708   4.309  -1.328  0.00  0.00    -0.348 N 
ATOM     21  H   UNL     1       6.176   3.704  -0.538  0.00  0.00    +0.146 HD
BRANCH  20  27
ATOM     22  C   UNL     1      10.865   5.430  -4.420  0.00  0.00    +0.143 C 
ATOM     23  N   UNL     1       9.992   4.862  -3.389  0.00  0.00    -0.224 N 
ATOM     24  C   UNL     1       8.668   5.116  -3.434  0.00  0.00    +0.260 C 
ATOM     25  O   UNL     1       8.194   5.808  -4.315  0.00  0.00    -0.269 OA
ATOM     26  C   UNL     1       7.811   4.533  -2.385  0.00  0.00    +0.113 C 
ATOM     27  C   UNL     1       6.446   4.750  -2.366  0.00  0.00    +0.086 C 
ATOM     28  C   UNL     1       8.474   3.715  -1.355  0.00  0.00    +0.260 C 
ATOM     29  O   UNL     1       7.834   3.205  -0.455  0.00  0.00    -0.269 OA
ATOM     30  N   UNL     1       9.809   3.541  -1.440  0.00  0.00    -0.224 N 
ATOM     31  C   UNL     1      10.527   4.102  -2.424  0.00  0.00    +0.317 C 
ATOM     32  O   UNL     1      11.727   3.911  -2.441  0.00  0.00    -0.252 OA
ATOM     33  C   UNL     1      10.491   2.727  -0.431  0.00  0.00    +0.143 C 
ENDBRANCH  20  27
ENDBRANCH  19  20
ENDBRANCH   1  19
TORSDOF 5
