REMARK  Name = ZINC62552103
REMARK  3 active torsions:
REMARK  status: ('A' for Active; 'I' for Inactive)
REMARK    1  A    between atoms: C_8  and  O_28
REMARK    2  A    between atoms: N_12  and  S_13
REMARK    3  A    between atoms: S_13  and  C_16
REMARK                            x       y       z     vdW  Elec       q    Type
REMARK                         _______ _______ _______ _____ _____    ______ ____
ROOT
ATOM      1  S   UNL     1       3.569   3.758   0.330  0.00  0.00    +0.075 S 
ATOM      2  O   UNL     1       2.348   4.023   1.006  0.00  0.00    -0.150 OA
ATOM      3  O   UNL     1       4.836   4.056   0.901  0.00  0.00    -0.150 OA
ENDROOT
BRANCH   1   4
ATOM      4  C   UNL     1       3.493   4.621  -1.204  0.00  0.00    +0.111 A 
ATOM      5  C   UNL     1       4.663   4.969  -1.858  0.00  0.00    +0.031 A 
ATOM      6  C   UNL     1       4.614   5.646  -3.061  0.00  0.00    +0.030 A 
ATOM      7  C   UNL     1       3.387   5.977  -3.617  0.00  0.00    +0.067 A 
ATOM      8  C   UNL     1       2.207   5.625  -2.958  0.00  0.00    +0.069 A 
ATOM      9  C   UNL     1       2.267   4.941  -1.753  0.00  0.00    +0.056 A 
ATOM     10  N   UNL     1       1.154   6.083  -3.745  0.00  0.00    -0.306 N 
ATOM     11  H   UNL     1       0.210   5.985  -3.544  0.00  0.00    +0.170 HD
ATOM     12  C   UNL     1       1.669   6.686  -4.834  0.00  0.00    +0.325 A 
ATOM     13  O   UNL     1       1.019   7.197  -5.726  0.00  0.00    -0.247 OA
ATOM     14  N   UNL     1       3.014   6.638  -4.785  0.00  0.00    -0.306 N 
ATOM     15  H   UNL     1       3.620   7.001  -5.449  0.00  0.00    +0.170 HD
ENDBRANCH   1   4
BRANCH   1  26
ATOM     16  C   UNL     1       0.004   1.510  -0.593  0.00  0.00    +0.040 A 
ATOM     17  C   UNL     1       1.201   2.171  -0.400  0.00  0.00    +0.028 A 
ATOM     18  C   UNL     1       2.374   1.448  -0.217  0.00  0.00    +0.057 A 
ATOM     19  C   UNL     1       2.345   0.062  -0.230  0.00  0.00    +0.006 A 
ATOM     20  C   UNL     1       1.141  -0.595  -0.421  0.00  0.00    +0.046 A 
ATOM     21  C   UNL     1      -0.026   0.126  -0.603  0.00  0.00    +0.124 A 
ATOM     22  F   UNL     1      -1.196  -0.522  -0.790  0.00  0.00    -0.205 F 
ATOM     23  C   UNL     1       3.598  -0.753  -0.045  0.00  0.00    +0.148 C 
ATOM     24  C   UNL     1       4.683   0.081   0.636  0.00  0.00    +0.057 C 
ATOM     25  C   UNL     1       4.844   1.403  -0.125  0.00  0.00    +0.134 C 
ATOM     26  N   UNL     1       3.576   2.139  -0.018  0.00  0.00    -0.203 N 
BRANCH  23  27
ATOM     27  O   UNL     1       3.304  -1.894   0.763  0.00  0.00    -0.387 OA
ATOM     28  H   UNL     1       2.633  -2.480   0.387  0.00  0.00    +0.210 HD
ENDBRANCH  23  27
ENDBRANCH   1  26
TORSDOF 3
