REMARK  Name = ZINC03843172
REMARK  7 active torsions:
REMARK  status: ('A' for Active; 'I' for Inactive)
REMARK    1  A    between atoms: C_1  and  N_2
REMARK    2  A    between atoms: N_2  and  C_3
REMARK    3  A    between atoms: N_2  and  C_4
REMARK    4  A    between atoms: C_7  and  C_10
REMARK    5  A    between atoms: C_14  and  C_19
REMARK    6  A    between atoms: C_24  and  O_25
REMARK    7  A    between atoms: O_25  and  C_26
REMARK                            x       y       z     vdW  Elec       q    Type
REMARK                         _______ _______ _______ _____ _____    ______ ____
ROOT
ATOM      1  C   UNL     1      -2.513   0.977   0.024  0.00  0.00    +0.183 C 
ATOM      2  N   UNL     1      -3.631   1.802  -0.477  0.00  0.00    -0.263 N 
ATOM      3  N   UNL     1      -4.653   2.054   0.380  0.00  0.00    -0.220 N 
ATOM      4  C   UNL     1      -5.860   2.752   0.343  0.00  0.00    +0.185 A 
ATOM      5  N   UNL     1      -6.429   2.626   1.515  0.00  0.00    -0.127 NA
ATOM      6  N   UNL     1      -5.690   1.911   2.288  0.00  0.00    -0.120 NA
ATOM      7  C   UNL     1      -4.617   1.547   1.650  0.00  0.00    +0.211 A 
ATOM      8  S   UNL     1      -3.086   0.646   1.736  0.00  0.00    -0.056 S 
ATOM      9  H   UNL     1      -3.292   2.656  -0.895  0.00  0.00    +0.168 HD
ENDROOT
BRANCH   1  13
ATOM     10  C   UNL     1       1.155   3.171   0.009  0.00  0.00    +0.029 A 
ATOM     11  C   UNL     1       1.174   1.782  -0.012  0.00  0.00    +0.023 A 
ATOM     12  C   UNL     1      -0.013   1.076  -0.003  0.00  0.00    +0.008 A 
ATOM     13  C   UNL     1      -1.220   1.750   0.021  0.00  0.00    -0.015 A 
ATOM     14  C   UNL     1      -1.243   3.133   0.048  0.00  0.00    +0.008 A 
ATOM     15  C   UNL     1      -0.060   3.845   0.040  0.00  0.00    +0.023 A 
BRANCH  10  17
ATOM     16  C   UNL     1       3.632   3.179   0.094  0.00  0.00    +0.129 C 
ATOM     17  N   UNL     1       2.353   3.888   0.000  0.00  0.00    -0.336 N 
ATOM     18  C   UNL     1       2.332   5.349  -0.104  0.00  0.00    +0.129 C 
ENDBRANCH  10  17
ENDBRANCH   1  13
BRANCH   4  19
ATOM     19  C   UNL     1      -6.399   3.499  -0.812  0.00  0.00    +0.062 A 
ATOM     20  C   UNL     1      -5.681   3.556  -2.008  0.00  0.00    +0.015 A 
ATOM     21  C   UNL     1      -6.192   4.251  -3.084  0.00  0.00    +0.001 A 
ATOM     22  C   UNL     1      -7.410   4.901  -2.981  0.00  0.00    +0.004 A 
ATOM     23  C   UNL     1      -8.127   4.856  -1.800  0.00  0.00    +0.046 A 
ATOM     24  C   UNL     1      -7.630   4.158  -0.711  0.00  0.00    +0.131 A 
BRANCH  24  25
ATOM     25  O   UNL     1      -8.334   4.114   0.450  0.00  0.00    -0.494 OA
ATOM     26  C   UNL     1      -9.582   4.810   0.479  0.00  0.00    +0.277 C 
ENDBRANCH  24  25
ENDBRANCH   4  19
TORSDOF 4
