REMARK  Name = ZINC05795574
REMARK  6 active torsions:
REMARK  status: ('A' for Active; 'I' for Inactive)
REMARK    1  A    between atoms: C_1  and  C_2
REMARK    2  A    between atoms: C_5  and  C_7
REMARK    3  A    between atoms: C_9  and  C_21
REMARK    4  A    between atoms: C_11  and  C_16
REMARK    5  A    between atoms: C_11  and  O_20
REMARK    6  A    between atoms: C_21  and  C_23
REMARK                            x       y       z     vdW  Elec       q    Type
REMARK                         _______ _______ _______ _____ _____    ______ ____
ROOT
ATOM      1  C   UNL     1       3.503  -2.622   1.398  0.00  0.00    +0.153 C 
ATOM      2  C   UNL     1       3.004  -2.441  -0.039  0.00  0.00    +0.147 C 
ATOM      3  C   UNL     1       3.119  -3.783  -0.769  0.00  0.00    +0.241 C 
ATOM      4  N   UNL     1       2.389  -4.804  -0.015  0.00  0.00    -0.291 N 
ATOM      5  C   UNL     1       2.249  -4.721   1.317  0.00  0.00    +0.133 C 
ATOM      6  S   UNL     1       1.394  -5.960   2.132  0.00  0.00    -0.019 S 
ATOM      7  N   UNL     1       2.752  -3.705   2.034  0.00  0.00    -0.316 N 
ATOM      8  H   UNL     1       1.999  -5.556  -0.488  0.00  0.00    +0.151 HD
ATOM      9  H   UNL     1       2.615  -3.689   2.995  0.00  0.00    +0.148 HD
ENDROOT
BRANCH   1  14
ATOM     10  C   UNL     1       7.776  -5.271   0.996  0.00  0.00    +0.086 C 
ATOM     11  C   UNL     1       6.828  -4.119   1.207  0.00  0.00    +0.102 A 
ATOM     12  C   UNL     1       7.179  -2.853   1.497  0.00  0.00    +0.045 A 
ATOM     13  C   UNL     1       5.982  -2.111   1.610  0.00  0.00    +0.047 A 
ATOM     14  C   UNL     1       4.970  -2.967   1.383  0.00  0.00    +0.126 A 
ATOM     15  O   UNL     1       5.487  -4.183   1.145  0.00  0.00    -0.463 OA
ENDBRANCH   1  14
BRANCH   3  16
ATOM     16  C   UNL     1       2.522  -3.656  -2.171  0.00  0.00    +0.436 C 
ATOM     17  F   UNL     1       3.217  -2.676  -2.887  0.00  0.00    -0.166 F 
ATOM     18  F   UNL     1       2.628  -4.883  -2.836  0.00  0.00    -0.166 F 
ATOM     19  F   UNL     1       1.174  -3.295  -2.073  0.00  0.00    -0.166 F 
ENDBRANCH   3  16
BRANCH   3  20
ATOM     20  O   UNL     1       4.496  -4.156  -0.868  0.00  0.00    -0.364 OA
ATOM     21  H   UNL     1       4.644  -4.998  -1.319  0.00  0.00    +0.212 HD
ENDBRANCH   3  20
BRANCH   2  22
ATOM     22  C   UNL     1       1.564  -1.996  -0.023  0.00  0.00    +0.180 C 
ATOM     23  O   UNL     1       0.673  -2.822  -0.018  0.00  0.00    -0.291 OA
BRANCH  22  24
ATOM     24  C   UNL     1       1.250  -0.619  -0.013  0.00  0.00    +0.055 A 
ATOM     25  C   UNL     1       0.002  -0.004   0.002  0.00  0.00    +0.019 A 
ATOM     26  C   UNL     1      -0.017   1.366   0.010  0.00  0.00    +0.008 A 
ATOM     27  C   UNL     1       1.161   2.047   0.002  0.00  0.00    +0.046 A 
ATOM     28  S   UNL     1       2.350   0.785  -0.016  0.00  0.00    -0.094 S 
ENDBRANCH  22  24
ENDBRANCH   2  22
TORSDOF 5
