REMARK  Name = ZINC39928876
REMARK  11 active torsions:
REMARK  status: ('A' for Active; 'I' for Inactive)
REMARK    1  A    between atoms: C_1  and  C_2
REMARK    2  A    between atoms: C_2  and  C_3
REMARK    3  A    between atoms: C_2  and  C_4
REMARK    4  A    between atoms: C_4  and  C_5
REMARK    5  A    between atoms: N_7  and  C_8
REMARK    6  A    between atoms: N_7  and  C_23
REMARK    7  A    between atoms: C_8  and  C_9
REMARK    8  A    between atoms: C_15  and  O_21
REMARK    9  A    between atoms: O_21  and  C_22
REMARK   10  A    between atoms: C_28  and  O_29
REMARK   11  A    between atoms: O_29  and  C_30
REMARK                            x       y       z     vdW  Elec       q    Type
REMARK                         _______ _______ _______ _____ _____    ______ ____
ROOT
ATOM      1  C   UNL     1      -0.071  -0.090   2.452  0.00  0.00    +0.220 C 
ATOM      2  O   UNL     1      -1.163   0.426   2.348  0.00  0.00    -0.275 OA
ATOM      3  N   UNL     1       0.408  -0.414   3.670  0.00  0.00    -0.267 N 
ENDROOT
BRANCH   3   4
ATOM      4  C   UNL     1       1.670  -1.010   3.791  0.00  0.00    +0.078 A 
ATOM      5  C   UNL     1       2.795  -0.223   3.987  0.00  0.00    +0.027 A 
ATOM      6  C   UNL     1       4.039  -0.813   4.107  0.00  0.00    +0.002 A 
ATOM      7  C   UNL     1       4.165  -2.188   4.031  0.00  0.00    +0.004 A 
ATOM      8  C   UNL     1       3.049  -2.979   3.835  0.00  0.00    +0.047 A 
ATOM      9  C   UNL     1       1.797  -2.395   3.720  0.00  0.00    +0.141 A 
BRANCH   9  10
ATOM     10  O   UNL     1       0.697  -3.172   3.534  0.00  0.00    -0.493 OA
ATOM     11  C   UNL     1       0.916  -4.572   3.348  0.00  0.00    +0.277 C 
ENDBRANCH   9  10
ENDBRANCH   3   4
BRANCH   1  12
ATOM     12  C   UNL     1       0.752  -0.369   1.221  0.00  0.00    +0.099 C 
BRANCH  12  14
ATOM     13  C   UNL     1      -0.184   1.611   0.018  0.00  0.00    +0.008 C 
ATOM     14  C   UNL     1      -0.016   0.091  -0.020  0.00  0.00    -0.008 C 
ATOM     15  C   UNL     1       0.762  -0.305  -1.277  0.00  0.00    +0.008 C 
ENDBRANCH  12  14
ENDBRANCH   1  12
BRANCH   3  16
ATOM     16  C   UNL     1      -0.392  -0.142   4.867  0.00  0.00    +0.130 C 
BRANCH  16  17
ATOM     17  C   UNL     1       0.058   1.180   5.492  0.00  0.00    +0.116 C 
ATOM     18  C   UNL     1      -0.552   1.271   6.877  0.00  0.00    -0.003 C 
ATOM     19  C   UNL     1      -1.346   2.344   7.141  0.00  0.00    -0.007 A 
ATOM     20  C   UNL     1      -1.973   2.506   8.455  0.00  0.00    +0.013 A 
ATOM     21  C   UNL     1      -2.757   3.587   8.681  0.00  0.00    +0.046 A 
ATOM     22  C   UNL     1      -2.977   4.549   7.684  0.00  0.00    +0.122 A 
ATOM     23  C   UNL     1      -2.414   4.452   6.431  0.00  0.00    +0.069 A 
ATOM     24  C   UNL     1      -1.590   3.366   6.106  0.00  0.00    +0.044 A 
ATOM     25  N   UNL     1      -1.051   3.282   4.888  0.00  0.00    -0.284 N 
ATOM     26  C   UNL     1      -0.264   2.288   4.516  0.00  0.00    +0.226 C 
ATOM     27  O   UNL     1       0.199   2.265   3.391  0.00  0.00    -0.275 OA
ATOM     28  H   UNL     1      -1.245   3.983   4.246  0.00  0.00    +0.155 HD
BRANCH  22  29
ATOM     29  O   UNL     1      -3.770   5.611   7.965  0.00  0.00    -0.495 OA
ATOM     30  C   UNL     1      -4.332   5.673   9.277  0.00  0.00    +0.277 C 
ENDBRANCH  22  29
ENDBRANCH  16  17
ENDBRANCH   3  16
TORSDOF 7
