REMARK  Name = ZINC41004296
REMARK  10 active torsions:
REMARK  status: ('A' for Active; 'I' for Inactive)
REMARK    1  A    between atoms: C_1  and  C_2
REMARK    2  A    between atoms: C_2  and  S_3
REMARK    3  A    between atoms: S_3  and  C_4
REMARK    4  A    between atoms: C_9  and  C_19
REMARK    5  A    between atoms: C_22  and  O_27
REMARK    6  A    between atoms: C_23  and  O_25
REMARK    7  A    between atoms: O_25  and  C_26
REMARK    8  A    between atoms: O_27  and  C_28
REMARK    9  A    between atoms: C_28  and  C_29
REMARK   10  A    between atoms: C_28  and  C_30
REMARK                            x       y       z     vdW  Elec       q    Type
REMARK                         _______ _______ _______ _____ _____    ______ ____
ROOT
ATOM      1  C   UNL     1       0.161  -3.436  -1.012  0.00  0.00    +0.210 A 
ATOM      2  N   UNL     1      -0.268  -4.272  -0.056  0.00  0.00    -0.187 NA
ATOM      3  C   UNL     1       0.070  -5.495  -0.361  0.00  0.00    +0.219 A 
ATOM      4  N   UNL     1       0.741  -5.465  -1.539  0.00  0.00    -0.220 N 
ATOM      5  N   UNL     1       0.780  -4.131  -1.942  0.00  0.00    -0.141 NA
ATOM      6  C   UNL     1       1.280  -6.655  -2.186  0.00  0.00    +0.176 C 
ATOM      7  C   UNL     1       0.696  -7.898  -1.551  0.00  0.00    +0.041 C 
ATOM      8  C   UNL     1       0.037  -7.861  -0.373  0.00  0.00    +0.020 C 
ATOM      9  N   UNL     1      -0.158  -6.685   0.310  0.00  0.00    -0.287 N 
ATOM     10  C   UNL     1      -0.513  -9.123   0.247  0.00  0.00    +0.052 C 
ATOM     11  C   UNL     1      -0.920 -10.103  -0.855  0.00  0.00    +0.014 C 
ATOM     12  C   UNL     1       0.314 -10.403  -1.713  0.00  0.00    +0.080 C 
ATOM     13  C   UNL     1       0.866  -9.110  -2.245  0.00  0.00    +0.163 C 
ATOM     14  O   UNL     1       1.473  -9.112  -3.298  0.00  0.00    -0.292 OA
ATOM     15  H   UNL     1      -0.448  -6.688   1.236  0.00  0.00    +0.155 HD
ENDROOT
BRANCH   6  16
ATOM     16  C   UNL     1       2.779  -6.673  -2.029  0.00  0.00    -0.015 A 
ATOM     17  C   UNL     1       3.340  -6.698  -0.765  0.00  0.00    +0.010 A 
ATOM     18  C   UNL     1       4.714  -6.715  -0.616  0.00  0.00    +0.050 A 
ATOM     19  C   UNL     1       5.533  -6.706  -1.734  0.00  0.00    +0.162 A 
ATOM     20  C   UNL     1       4.968  -6.681  -3.006  0.00  0.00    +0.162 A 
ATOM     21  C   UNL     1       3.590  -6.670  -3.148  0.00  0.00    +0.055 A 
BRANCH  20  22
ATOM     22  O   UNL     1       5.767  -6.673  -4.106  0.00  0.00    -0.491 OA
ATOM     23  C   UNL     1       5.118  -6.647  -5.379  0.00  0.00    +0.277 C 
ENDBRANCH  20  22
BRANCH  19  24
ATOM     24  O   UNL     1       6.885  -6.722  -1.589  0.00  0.00    -0.486 OA
BRANCH  24  25
ATOM     25  C   UNL     1       7.396  -6.627  -0.258  0.00  0.00    +0.167 C 
ATOM     26  C   UNL     1       7.429  -8.018   0.377  0.00  0.00    +0.051 C 
ATOM     27  C   UNL     1       8.812  -6.049  -0.295  0.00  0.00    +0.051 C 
ENDBRANCH  24  25
ENDBRANCH  19  24
ENDBRANCH   6  16
BRANCH   1  28
ATOM     28  S   UNL     1      -0.071  -1.690  -1.024  0.00  0.00    -0.085 S 
BRANCH  28  30
ATOM     29  C   UNL     1      -1.251   0.144   0.628  0.00  0.00    +0.016 C 
ATOM     30  C   UNL     1      -0.979  -1.357   0.511  0.00  0.00    +0.074 C 
ENDBRANCH  28  30
ENDBRANCH   1  28
TORSDOF 6
