REMARK  Name = ZINC64740869
REMARK  5 active torsions:
REMARK  status: ('A' for Active; 'I' for Inactive)
REMARK    1  A    between atoms: C_4  and  C_7
REMARK    2  A    between atoms: C_7  and  S_8
REMARK    3  A    between atoms: S_8  and  C_9
REMARK    4  A    between atoms: C_15  and  C_23
REMARK    5  A    between atoms: N_25  and  C_26
REMARK                            x       y       z     vdW  Elec       q    Type
REMARK                         _______ _______ _______ _____ _____    ______ ____
ROOT
ATOM      1  C   UNL     1       5.819  -1.804   1.530  0.00  0.00    +0.182 C 
ATOM      2  N   UNL     1       6.222  -2.034   0.292  0.00  0.00    -0.154 NA
ATOM      3  C   UNL     1       7.318  -2.747   0.023  0.00  0.00    +0.249 C 
ATOM      4  O   UNL     1       7.697  -2.930  -1.117  0.00  0.00    -0.273 OA
ATOM      5  C   UNL     1       8.067  -3.316   1.210  0.00  0.00    +0.153 C 
ATOM      6  C   UNL     1       9.521  -2.848   1.129  0.00  0.00    +0.103 C 
ATOM      7  C   UNL     1      10.324  -3.555   2.224  0.00  0.00    +0.110 C 
ATOM      8  C   UNL     1       9.630  -3.455   3.551  0.00  0.00    +0.219 C 
ATOM      9  O   UNL     1      10.277  -3.645   4.559  0.00  0.00    -0.275 OA
ATOM     10  N   UNL     1       8.325  -3.163   3.672  0.00  0.00    -0.273 N 
ATOM     11  C   UNL     1       7.561  -2.893   2.577  0.00  0.00    +0.117 C 
ATOM     12  N   UNL     1       6.470  -2.183   2.636  0.00  0.00    -0.212 NA
ATOM     13  H   UNL     1       7.913  -3.156   4.550  0.00  0.00    +0.156 HD
ENDROOT
BRANCH   6  14
ATOM     14  C   UNL     1      10.089  -3.193  -0.223  0.00  0.00    +0.222 C 
ATOM     15  O   UNL     1      10.218  -4.355  -0.548  0.00  0.00    -0.275 OA
ATOM     16  N   UNL     1      10.454  -2.212  -1.071  0.00  0.00    -0.284 N 
ATOM     17  H   UNL     1      10.406  -1.285  -0.790  0.00  0.00    +0.155 HD
BRANCH  16  18
ATOM     18  C   UNL     1      10.902  -2.530  -2.359  0.00  0.00    +0.052 A 
ATOM     19  C   UNL     1      11.472  -3.771  -2.610  0.00  0.00    +0.025 A 
ATOM     20  C   UNL     1      11.913  -4.083  -3.881  0.00  0.00    +0.002 A 
ATOM     21  C   UNL     1      11.789  -3.160  -4.904  0.00  0.00    +0.002 A 
ATOM     22  C   UNL     1      11.222  -1.923  -4.658  0.00  0.00    +0.022 A 
ATOM     23  C   UNL     1      10.774  -1.607  -3.389  0.00  0.00    +0.062 A 
ATOM     24 CL   UNL     1      10.056  -0.056  -3.082  0.00  0.00    -0.082 Cl
ENDBRANCH  16  18
ENDBRANCH   6  14
BRANCH   1  25
ATOM     25  S   UNL     1       4.306  -0.924   1.740  0.00  0.00    -0.084 S 
BRANCH  25  26
ATOM     26  C   UNL     1       3.748  -0.600   0.045  0.00  0.00    +0.112 C 
BRANCH  26  30
ATOM     27  C   UNL     1       0.057   1.547   0.147  0.00  0.00    +0.000 A 
ATOM     28  C   UNL     1       1.256   2.235   0.131  0.00  0.00    +0.000 A 
ATOM     29  C   UNL     1       2.450   1.540   0.098  0.00  0.00    +0.004 A 
ATOM     30  C   UNL     1       2.446   0.157   0.082  0.00  0.00    -0.037 A 
ATOM     31  C   UNL     1       1.246  -0.530   0.099  0.00  0.00    +0.004 A 
ATOM     32  C   UNL     1       0.052   0.165   0.130  0.00  0.00    +0.000 A 
ENDBRANCH  26  30
ENDBRANCH  25  26
ENDBRANCH   1  25
TORSDOF 5
