REMARK  Name = ZINC36152135
REMARK  2 active torsions:
REMARK  status: ('A' for Active; 'I' for Inactive)
REMARK    1  A    between atoms: C_3  and  C_6
REMARK    2  A    between atoms: C_6  and  C_7
REMARK                            x       y       z     vdW  Elec       q    Type
REMARK                         _______ _______ _______ _____ _____    ______ ____
ROOT
ATOM      1  C   UNL     1       4.247   2.008   1.393  0.00  0.00    +0.156 A 
ATOM      2  N   UNL     1       4.136   3.080   2.130  0.00  0.00    -0.132 NA
ATOM      3  N   UNL     1       4.669   2.881   3.287  0.00  0.00    -0.121 NA
ATOM      4  C   UNL     1       5.146   1.675   3.338  0.00  0.00    +0.209 A 
ATOM      5  N   UNL     1       4.880   1.060   2.143  0.00  0.00    -0.225 N 
ATOM      6  N   UNL     1       5.172  -0.219   1.811  0.00  0.00    -0.277 N 
ATOM      7  C   UNL     1       6.297  -0.824   2.532  0.00  0.00    +0.101 C 
ATOM      8  C   UNL     1       6.420  -2.285   2.063  0.00  0.00    +0.025 C 
ATOM      9  C   UNL     1       5.075  -2.981   2.286  0.00  0.00    +0.002 C 
ATOM     10  C   UNL     1       4.711  -2.960   3.770  0.00  0.00    +0.001 C 
ATOM     11  C   UNL     1       4.655  -1.514   4.274  0.00  0.00    +0.016 C 
ATOM     12  C   UNL     1       6.026  -0.837   4.047  0.00  0.00    +0.076 C 
ATOM     13  S   UNL     1       6.003   0.861   4.652  0.00  0.00    -0.079 S 
ATOM     14  H   UNL     1       4.351  -0.803   1.867  0.00  0.00    +0.167 HD
ENDROOT
BRANCH   1  15
ATOM     15  C   UNL     1       3.761   1.845  -0.024  0.00  0.00    +0.120 C 
BRANCH  15  18
ATOM     16  C   UNL     1      -0.016   1.351   0.009  0.00  0.00    +0.008 A 
ATOM     17  C   UNL     1       1.183   2.038   0.002  0.00  0.00    +0.011 A 
ATOM     18  C   UNL     1       2.343   1.336  -0.013  0.00  0.00    -0.003 A 
ATOM     19  S   UNL     1       1.754  -0.349  -0.017  0.00  0.00    -0.101 S 
ATOM     20  C   UNL     1       0.002  -0.004   0.002  0.00  0.00    +0.045 A 
ENDBRANCH  15  18
ENDBRANCH   1  15
TORSDOF 2
