REMARK  Name = ZINC63907693
REMARK  7 active torsions:
REMARK  status: ('A' for Active; 'I' for Inactive)
REMARK    1  A    between atoms: C_1  and  C_2
REMARK    2  A    between atoms: C_2  and  C_4
REMARK    3  A    between atoms: C_2  and  O_17
REMARK    4  A    between atoms: N_6  and  C_7
REMARK    5  A    between atoms: O_17  and  C_18
REMARK    6  A    between atoms: C_18  and  C_20
REMARK    7  A    between atoms: C_20  and  C_21
REMARK                            x       y       z     vdW  Elec       q    Type
REMARK                         _______ _______ _______ _____ _____    ______ ____
ROOT
ATOM      1  C   UNL     1      -0.065   1.648  -0.122  0.00  0.00    +0.062 C 
ATOM      2  C   UNL     1      -0.062   0.133   0.088  0.00  0.00    +0.259 C 
ENDROOT
BRANCH   2   3
ATOM      3  C   UNL     1      -1.480  -0.377   0.084  0.00  0.00    +0.258 C 
ATOM      4  O   UNL     1      -1.952  -0.865   1.089  0.00  0.00    -0.271 OA
ATOM      5  N   UNL     1      -2.225  -0.290  -1.036  0.00  0.00    -0.282 N 
ATOM      6  H   UNL     1      -1.875   0.168  -1.816  0.00  0.00    +0.155 HD
BRANCH   5   7
ATOM      7  C   UNL     1      -3.501  -0.862  -1.074  0.00  0.00    +0.034 A 
ATOM      8  C   UNL     1      -3.756  -2.036  -0.355  0.00  0.00    +0.024 A 
ATOM      9  C   UNL     1      -4.986  -2.613  -0.373  0.00  0.00    +0.010 A 
ATOM     10  C   UNL     1      -6.023  -2.029  -1.122  0.00  0.00    -0.018 A 
ATOM     11  C   UNL     1      -7.305  -2.603  -1.159  0.00  0.00    +0.008 A 
ATOM     12  C   UNL     1      -8.288  -2.012  -1.893  0.00  0.00    +0.001 A 
ATOM     13  C   UNL     1      -8.043  -0.843  -2.611  0.00  0.00    +0.001 A 
ATOM     14  C   UNL     1      -6.814  -0.259  -2.599  0.00  0.00    +0.008 A 
ATOM     15  C   UNL     1      -5.774  -0.840  -1.852  0.00  0.00    -0.016 A 
ATOM     16  C   UNL     1      -4.495  -0.261  -1.813  0.00  0.00    +0.031 A 
ENDBRANCH   5   7
ENDBRANCH   2   3
BRANCH   2  17
ATOM     17  O   UNL     1       0.551  -0.173   1.342  0.00  0.00    -0.452 OA
BRANCH  17  18
ATOM     18  C   UNL     1       1.877  -0.377   1.338  0.00  0.00    +0.312 C 
ATOM     19  O   UNL     1       2.498  -0.298   0.304  0.00  0.00    -0.250 OA
BRANCH  18  20
ATOM     20  C   UNL     1       2.593  -0.704   2.623  0.00  0.00    +0.153 C 
BRANCH  20  21
ATOM     21  C   UNL     1       4.064  -0.884   2.347  0.00  0.00    -0.031 C 
ATOM     22  C   UNL     1       5.035   0.050   2.472  0.00  0.00    -0.001 A 
ATOM     23  C   UNL     1       5.013   1.458   2.885  0.00  0.00    +0.010 A 
ATOM     24  C   UNL     1       6.173   2.152   2.911  0.00  0.00    +0.001 A 
ATOM     25  C   UNL     1       7.393   1.562   2.554  0.00  0.00    +0.002 A 
ATOM     26  C   UNL     1       7.493   0.273   2.163  0.00  0.00    +0.026 A 
ATOM     27  C   UNL     1       6.336  -0.551   2.100  0.00  0.00    +0.043 A 
ATOM     28  N   UNL     1       6.176  -1.806   1.759  0.00  0.00    -0.380 N 
ATOM     29  C   UNL     1       4.754  -2.146   1.881  0.00  0.00    +0.145 C 
ATOM     30  H   UNL     1       6.880  -2.410   1.476  0.00  0.00    +0.160 HD
ENDBRANCH  20  21
ENDBRANCH  18  20
ENDBRANCH  17  18
ENDBRANCH   2  17
TORSDOF 6
