REMARK  Name = ZINC47337341
REMARK  6 active torsions:
REMARK  status: ('A' for Active; 'I' for Inactive)
REMARK    1  A    between atoms: C_1  and  C_2
REMARK    2  A    between atoms: C_2  and  C_3
REMARK    3  A    between atoms: C_3  and  C_5
REMARK    4  A    between atoms: C_3  and  N_6
REMARK    5  A    between atoms: N_6  and  C_7
REMARK    6  A    between atoms: N_10  and  C_11
REMARK                            x       y       z     vdW  Elec       q    Type
REMARK                         _______ _______ _______ _____ _____    ______ ____
ROOT
ATOM      1  N   UNL     1      -0.050  -0.125  -2.447  0.00  0.00    -0.286 N 
ATOM      2  C   UNL     1      -1.422  -0.610  -2.614  0.00  0.00    +0.134 C 
ATOM      3  C   UNL     1       0.500   0.677  -3.381  0.00  0.00    +0.306 C 
ATOM      4  O   UNL     1       1.639   1.079  -3.242  0.00  0.00    -0.252 OA
ATOM      5  N   UNL     1      -0.213   1.033  -4.468  0.00  0.00    -0.269 N 
ATOM      6  H   UNL     1      -1.097   0.660  -4.611  0.00  0.00    +0.156 HD
ENDROOT
BRANCH   5   7
ATOM      7  C   UNL     1       0.322   1.940  -5.389  0.00  0.00    +0.038 A 
ATOM      8  C   UNL     1       1.684   1.934  -5.651  0.00  0.00    +0.023 A 
ATOM      9  C   UNL     1       2.209   2.831  -6.559  0.00  0.00    +0.002 A 
ATOM     10  C   UNL     1       1.378   3.728  -7.199  0.00  0.00    +0.004 A 
ATOM     11  C   UNL     1       0.013   3.739  -6.940  0.00  0.00    -0.042 A 
ATOM     12  C   UNL     1      -0.518   2.841  -6.044  0.00  0.00    -0.023 A 
ATOM     13  C   UNL     1      -1.990   2.781  -5.731  0.00  0.00    +0.037 C 
ATOM     14  C   UNL     1      -2.686   4.066  -6.174  0.00  0.00    +0.005 C 
ATOM     15  C   UNL     1      -2.306   4.345  -7.633  0.00  0.00    +0.005 C 
ATOM     16  C   UNL     1      -0.831   4.751  -7.670  0.00  0.00    +0.035 C 
ENDBRANCH   5   7
BRANCH   1  17
ATOM     17  C   UNL     1       0.725  -0.511  -1.266  0.00  0.00    +0.074 C 
ATOM     18  C   UNL     1       0.863  -2.035  -1.222  0.00  0.00    +0.028 C 
BRANCH  17  20
ATOM     19  C   UNL     1      -0.022   1.501   0.013  0.00  0.00    +0.005 C 
ATOM     20  C   UNL     1       0.006  -0.029  -0.004  0.00  0.00    +0.019 C 
ENDBRANCH  17  20
ENDBRANCH   1  17
TORSDOF 3
