REMARK  Name = ZINC11615727
REMARK  8 active torsions:
REMARK  status: ('A' for Active; 'I' for Inactive)
REMARK    1  A    between atoms: C_1  and  C_2
REMARK    2  A    between atoms: C_5  and  C_26
REMARK    3  A    between atoms: C_6  and  S_8
REMARK    4  A    between atoms: S_8  and  N_11
REMARK    5  A    between atoms: N_11  and  C_12
REMARK    6  A    between atoms: C_18  and  C_22
REMARK    7  A    between atoms: C_19  and  C_21
REMARK    8  A    between atoms: N_24  and  O_25
REMARK                            x       y       z     vdW  Elec       q    Type
REMARK                         _______ _______ _______ _____ _____    ______ ____
ROOT
ATOM      1  C   UNL     1      -4.089  -0.101  -3.307  0.00  0.00    +0.049 A 
ATOM      2  C   UNL     1      -5.179  -0.850  -2.869  0.00  0.00    +0.028 A 
ATOM      3  C   UNL     1      -5.415  -1.022  -1.522  0.00  0.00    +0.049 A 
ATOM      4  C   UNL     1      -4.563  -0.449  -0.587  0.00  0.00    +0.136 A 
ATOM      5  C   UNL     1      -3.465   0.305  -1.027  0.00  0.00    +0.034 A 
ATOM      6  C   UNL     1      -3.231   0.477  -2.387  0.00  0.00    +0.037 A 
ATOM      7  C   UNL     1      -2.782   0.760   0.201  0.00  0.00    +0.087 A 
ATOM      8  C   UNL     1      -3.505   0.250   1.236  0.00  0.00    +0.115 A 
ATOM      9  O   UNL     1      -4.544  -0.448   0.763  0.00  0.00    -0.459 OA
ATOM     10  C   UNL     1      -3.185   0.446   2.695  0.00  0.00    +0.087 C 
ENDROOT
BRANCH   7  11
ATOM     11  C   UNL     1      -1.569   1.587   0.288  0.00  0.00    +0.270 C 
ATOM     12  O   UNL     1      -1.661   2.799   0.332  0.00  0.00    -0.268 OA
ATOM     13  N   UNL     1      -0.356   1.002   0.319  0.00  0.00    -0.193 N 
ATOM     14  H   UNL     1      -0.282   0.035   0.284  0.00  0.00    +0.183 HD
BRANCH  13  15
ATOM     15  O   UNL     1       0.812   1.798   0.397  0.00  0.00    -0.295 OA
ATOM     16  H   UNL     1       1.635   1.289   0.410  0.00  0.00    +0.241 HD
ENDBRANCH  13  15
ENDBRANCH   7  11
BRANCH   1  17
ATOM     17  N   UNL     1      -3.861   0.067  -4.677  0.00  0.00    -0.216 N 
ATOM     18  H   UNL     1      -3.655   0.946  -5.030  0.00  0.00    +0.174 HD
BRANCH  17  19
ATOM     19  S   UNL     1      -3.945  -1.236  -5.696  0.00  0.00    +0.073 S 
ATOM     20  O   UNL     1      -5.198  -1.862  -5.453  0.00  0.00    -0.150 OA
ATOM     21  O   UNL     1      -3.563  -0.770  -6.982  0.00  0.00    -0.150 OA
BRANCH  19  27
ATOM     22  C   UNL     1      -2.485  -5.891  -3.819  0.00  0.00    +0.044 C 
ATOM     23  C   UNL     1      -2.091  -4.526  -4.322  0.00  0.00    -0.049 A 
ATOM     24  C   UNL     1      -0.757  -4.170  -4.383  0.00  0.00    +0.004 A 
ATOM     25  C   UNL     1      -0.396  -2.918  -4.845  0.00  0.00    +0.005 A 
ATOM     26  C   UNL     1      -1.370  -2.024  -5.250  0.00  0.00    -0.024 A 
ATOM     27  C   UNL     1      -2.704  -2.378  -5.184  0.00  0.00    +0.112 A 
ATOM     28  C   UNL     1      -3.065  -3.630  -4.723  0.00  0.00    +0.032 A 
ATOM     29  C   UNL     1      -0.976  -0.661  -5.760  0.00  0.00    +0.046 C 
ENDBRANCH  19  27
ENDBRANCH  17  19
ENDBRANCH   1  17
TORSDOF 5
