REMARK  Name = ZINC45918904
REMARK  4 active torsions:
REMARK  status: ('A' for Active; 'I' for Inactive)
REMARK    1  A    between atoms: C_4  and  C_7
REMARK    2  A    between atoms: C_14  and  O_20
REMARK    3  A    between atoms: C_15  and  C_18
REMARK    4  A    between atoms: C_18  and  O_19
REMARK                            x       y       z     vdW  Elec       q    Type
REMARK                         _______ _______ _______ _____ _____    ______ ____
ROOT
ATOM      1  C   UNL     1       3.690  -0.678  -0.037  0.00  0.00    +0.058 C 
ATOM      2  C   UNL     1       3.716  -2.030   0.058  0.00  0.00    +0.176 C 
ATOM      3  C   UNL     1       4.919  -2.872   0.165  0.00  0.00    +0.231 C 
ATOM      4  O   UNL     1       6.083  -2.511   0.186  0.00  0.00    -0.283 OA
ATOM      5  C   UNL     1       4.400  -4.250   0.240  0.00  0.00    +0.068 A 
ATOM      6  C   UNL     1       5.016  -5.497   0.351  0.00  0.00    +0.019 A 
ATOM      7  C   UNL     1       4.255  -6.631   0.400  0.00  0.00    +0.047 A 
ATOM      8  C   UNL     1       2.867  -6.544   0.339  0.00  0.00    +0.126 A 
ATOM      9  C   UNL     1       2.242  -5.312   0.228  0.00  0.00    +0.062 A 
ATOM     10  C   UNL     1       3.001  -4.150   0.177  0.00  0.00    +0.148 A 
ATOM     11  O   UNL     1       2.640  -2.852   0.077  0.00  0.00    -0.451 OA
ENDROOT
BRANCH   1  15
ATOM     12  C   UNL     1      -0.016   1.381   0.025  0.00  0.00    +0.000 A 
ATOM     13  C   UNL     1       0.002  -0.003  -0.006  0.00  0.00    +0.001 A 
ATOM     14  C   UNL     1       1.203  -0.680  -0.027  0.00  0.00    +0.008 A 
ATOM     15  C   UNL     1       2.405   0.036  -0.016  0.00  0.00    -0.021 A 
ATOM     16  C   UNL     1       2.378   1.435   0.016  0.00  0.00    +0.008 A 
ATOM     17  C   UNL     1       1.169   2.096   0.036  0.00  0.00    +0.001 A 
ENDBRANCH   1  15
BRANCH   8  18
ATOM     18  O   UNL     1       2.119  -7.676   0.387  0.00  0.00    -0.506 OA
ATOM     19  H   UNL     1       1.868  -7.943   1.282  0.00  0.00    +0.292 HD
ENDBRANCH   8  18
BRANCH   9  20
ATOM     20  C   UNL     1       0.738  -5.234   0.162  0.00  0.00    +0.198 C 
BRANCH  20  21
ATOM     21  O   UNL     1       0.209  -5.116   1.484  0.00  0.00    -0.390 OA
ATOM     22  H   UNL     1      -0.756  -5.060   1.518  0.00  0.00    +0.210 HD
ENDBRANCH  20  21
ENDBRANCH   9  20
TORSDOF 4
