REMARK  Name = ZINC13792573
REMARK  5 active torsions:
REMARK  status: ('A' for Active; 'I' for Inactive)
REMARK    1  A    between atoms: C_1  and  S_2
REMARK    2  A    between atoms: S_2  and  N_5
REMARK    3  A    between atoms: C_10  and  C_12
REMARK    4  A    between atoms: N_14  and  C_15
REMARK    5  A    between atoms: C_16  and  C_25
REMARK                            x       y       z     vdW  Elec       q    Type
REMARK                         _______ _______ _______ _____ _____    ______ ____
ROOT
ATOM      1  C   UNL     1       1.430   1.512  -0.001  0.00  0.00    +0.236 C 
ATOM      2  O   UNL     1       1.851   2.150  -0.942  0.00  0.00    -0.274 OA
ATOM      3  N   UNL     1       2.240   1.229   1.038  0.00  0.00    -0.278 N 
ATOM      4  H   UNL     1       1.904   0.718   1.791  0.00  0.00    +0.155 HD
ENDROOT
BRANCH   3   5
ATOM      5  C   UNL     1       3.557   1.669   1.031  0.00  0.00    +0.090 A 
ATOM      6  C   UNL     1       4.531   1.486   1.998  0.00  0.00    +0.084 A 
ATOM      7  C   UNL     1       5.851   2.047   1.747  0.00  0.00    -0.018 A 
ATOM      8  C   UNL     1       5.973   2.713   0.577  0.00  0.00    -0.004 A 
ATOM      9  S   UNL     1       4.378   2.588  -0.186  0.00  0.00    -0.077 S 
ATOM     10  C   UNL     1       7.182   3.417   0.047  0.00  0.00    +0.043 C 
ATOM     11  C   UNL     1       8.399   2.488   0.160  0.00  0.00    +0.005 C 
ATOM     12  C   UNL     1       9.049   2.709   1.523  0.00  0.00    +0.001 C 
ATOM     13  C   UNL     1       7.985   3.053   2.563  0.00  0.00    +0.005 C 
ATOM     14  C   UNL     1       7.007   1.894   2.727  0.00  0.00    +0.037 C 
BRANCH   6  15
ATOM     15  C   UNL     1       4.251   0.765   3.204  0.00  0.00    +0.102 C 
ATOM     16  N   UNL     1       4.029   0.194   4.160  0.00  0.00    -0.191 NA
ENDBRANCH   6  15
ENDBRANCH   3   5
BRANCH   1  22
ATOM     17  N   UNL     1      -0.280   0.300  -1.235  0.00  0.00    -0.170 NA
ATOM     18  C   UNL     1      -1.663  -0.129  -1.502  0.00  0.00    +0.110 C 
ATOM     19  C   UNL     1      -2.588   1.088  -1.396  0.00  0.00    +0.017 C 
ATOM     20  C   UNL     1      -2.390   1.757  -0.034  0.00  0.00    +0.003 C 
ATOM     21  C   UNL     1      -0.943   2.237   0.096  0.00  0.00    +0.030 C 
ATOM     22  C   UNL     1       0.001   1.034   0.007  0.00  0.00    +0.165 C 
BRANCH  17  24
ATOM     23  C   UNL     1       1.021   1.428  -3.382  0.00  0.00    +0.215 C 
ATOM     24  S   UNL     1       0.934  -0.033  -2.311  0.00  0.00    +0.030 S 
ATOM     25  O   UNL     1       2.107  -0.128  -1.516  0.00  0.00    -0.158 OA
ATOM     26  O   UNL     1       0.467  -1.154  -3.049  0.00  0.00    -0.158 OA
ENDBRANCH  17  24
ENDBRANCH   1  22
TORSDOF 4
