REMARK  Name = ZINC39701110
REMARK  9 active torsions:
REMARK  status: ('A' for Active; 'I' for Inactive)
REMARK    1  A    between atoms: C_1  and  C_2
REMARK    2  A    between atoms: C_4  and  C_12
REMARK    3  A    between atoms: C_5  and  C_11
REMARK    4  A    between atoms: CA_7  and  C_8
REMARK    5  A    between atoms: C_12  and  C_14
REMARK    6  A    between atoms: C_15  and  C_16
REMARK    7  A    between atoms: C_17  and  C_30
REMARK    8  A    between atoms: N_19  and  C_23
REMARK    9  A    between atoms: C_23  and  C_24
REMARK                            x       y       z     vdW  Elec       q    Type
REMARK                         _______ _______ _______ _____ _____    ______ ____
ROOT
ATOM      1  C   UNL     1      -2.287   0.406  -2.047  0.00  0.00    +0.051 C 
ATOM      2  C   UNL     1      -3.300   0.583  -2.945  0.00  0.00    +0.012 C 
ENDROOT
BRANCH   2   3
ATOM      3  C   UNL     1      -3.090   1.358  -4.096  0.00  0.00    +0.004 C 
ATOM      4  C   UNL     1      -3.992   1.629  -5.072  0.00  0.00    +0.022 C 
ATOM      5  N   UNL     1      -3.453   2.411  -6.040  0.00  0.00    -0.280 N 
ATOM      6  N   UNL     1      -2.150   2.716  -5.778  0.00  0.00    -0.203 NA
ATOM      7  C   UNL     1      -1.812   2.066  -4.496  0.00  0.00    +0.198 C 
ATOM      8 CL   UNL     1      -0.477   0.876  -4.728  0.00  0.00    -0.098 Cl
ATOM      9  C   UNL     1      -5.413   1.126  -5.080  0.00  0.00    +0.062 C 
ATOM     10  H   UNL     1      -3.935   2.715  -6.825  0.00  0.00    +0.166 HD
BRANCH   6  11
ATOM     11  C   UNL     1      -1.271   2.249  -6.859  0.00  0.00    +0.142 C 
BRANCH  11  12
ATOM     12  C   UNL     1      -1.593   2.998  -8.126  0.00  0.00    -0.032 A 
ATOM     13  C   UNL     1      -2.548   2.507  -8.996  0.00  0.00    +0.005 A 
ATOM     14  C   UNL     1      -2.843   3.194 -10.159  0.00  0.00    +0.000 A 
ATOM     15  C   UNL     1      -2.183   4.373 -10.451  0.00  0.00    +0.000 A 
ATOM     16  C   UNL     1      -1.228   4.865  -9.581  0.00  0.00    +0.000 A 
ATOM     17  C   UNL     1      -0.936   4.180  -8.416  0.00  0.00    +0.005 A 
ENDBRANCH  11  12
ENDBRANCH   6  11
ENDBRANCH   2   3
BRANCH   1  18
ATOM     18  C   UNL     1      -2.498  -0.372  -0.891  0.00  0.00    +0.184 C 
ATOM     19  O   UNL     1      -3.586  -0.888  -0.694  0.00  0.00    -0.288 OA
BRANCH  18  22
ATOM     20  C   UNL     1      -0.019   1.526   0.010  0.00  0.00    +0.019 C 
ATOM     21  C   UNL     1       0.002  -0.004   0.002  0.00  0.00    +0.075 C 
ATOM     22  C   UNL     1      -1.408  -0.562   0.076  0.00  0.00    +0.027 C 
ATOM     23  C   UNL     1      -1.442  -1.273   1.229  0.00  0.00    +0.021 C 
ATOM     24  N   UNL     1      -0.277  -1.240   1.875  0.00  0.00    -0.355 N 
ATOM     25  CA  UNL     1       0.644  -0.540   1.267  0.00  0.00    +0.113 C 
ATOM     26  C   UNL     1      -2.656  -2.015   1.724  0.00  0.00    +0.064 C 
ATOM     27  H   UNL     1      -0.125  -1.696   2.717  0.00  0.00    +0.165 HD
BRANCH  25  28
ATOM     28  C   UNL     1       2.028  -0.313   1.718  0.00  0.00    +0.399 C 
ATOM     29  O   UNL     1       2.418  -0.809   2.767  0.00  0.00    -0.239 OA
ATOM     30  OXT UNL     1       2.787   0.370   1.045  0.00  0.00    -0.239 OA
ENDBRANCH  25  28
ENDBRANCH  18  22
ENDBRANCH   1  18
TORSDOF 6
