REMARK  Name = ZINC02707417
REMARK  6 active torsions:
REMARK  status: ('A' for Active; 'I' for Inactive)
REMARK    1  A    between atoms: C_1  and  O_2
REMARK    2  A    between atoms: O_2  and  C_3
REMARK    3  A    between atoms: C_6  and  O_33
REMARK    4  A    between atoms: C_7  and  C_9
REMARK    5  A    between atoms: C_20  and  C_22
REMARK    6  A    between atoms: O_33  and  C_34
REMARK                            x       y       z     vdW  Elec       q    Type
REMARK                         _______ _______ _______ _____ _____    ______ ____
ROOT
ATOM      1  C   UNL     1       1.301  -3.958  -2.563  0.00  0.00    +0.163 C 
ATOM      2  C   UNL     1       2.621  -4.455  -2.016  0.00  0.00    +0.028 C 
ATOM      3  C   UNL     1       2.597  -5.261  -0.935  0.00  0.00    +0.083 C 
ATOM      4  C   UNL     1       3.900  -5.748  -0.415  0.00  0.00    +0.042 A 
ATOM      5  C   UNL     1       4.013  -6.305   0.851  0.00  0.00    +0.013 A 
ATOM      6  C   UNL     1       5.246  -6.745   1.295  0.00  0.00    +0.001 A 
ATOM      7  C   UNL     1       6.360  -6.633   0.482  0.00  0.00    +0.004 A 
ATOM      8  C   UNL     1       6.255  -6.080  -0.781  0.00  0.00    +0.046 A 
ATOM      9  C   UNL     1       5.028  -5.636  -1.239  0.00  0.00    +0.131 A 
ATOM     10  O   UNL     1       4.894  -5.097  -2.478  0.00  0.00    -0.479 OA
ATOM     11  C   UNL     1       3.924  -4.061  -2.648  0.00  0.00    +0.241 C 
ATOM     12  N   UNL     1       1.432  -5.615  -0.340  0.00  0.00    -0.213 NA
ATOM     13  C   UNL     1       0.245  -5.229  -0.748  0.00  0.00    +0.237 C 
ATOM     14  N   UNL     1       0.102  -4.406  -1.843  0.00  0.00    -0.208 N 
ATOM     15  N   UNL     1      -1.268  -4.191  -2.002  0.00  0.00    -0.251 N 
ATOM     16  C   UNL     1      -1.886  -4.882  -1.004  0.00  0.00    +0.203 C 
ATOM     17  N   UNL     1      -0.997  -5.486  -0.281  0.00  0.00    -0.205 NA
ATOM     18  H   UNL     1      -1.696  -3.655  -2.688  0.00  0.00    +0.171 HD
ENDROOT
BRANCH   1  23
ATOM     19  C   UNL     1       0.933  -0.379  -1.407  0.00  0.00    +0.121 A 
ATOM     20  C   UNL     1       1.366   0.319  -2.524  0.00  0.00    +0.049 A 
ATOM     21  C   UNL     1       1.776  -0.366  -3.651  0.00  0.00    +0.049 A 
ATOM     22  C   UNL     1       1.755  -1.753  -3.665  0.00  0.00    +0.126 A 
ATOM     23  C   UNL     1       1.323  -2.452  -2.547  0.00  0.00    +0.024 A 
ATOM     24  C   UNL     1       0.918  -1.766  -1.419  0.00  0.00    +0.055 A 
BRANCH  19  26
ATOM     25  C   UNL     1       0.571   1.723  -0.355  0.00  0.00    +0.277 C 
ATOM     26  O   UNL     1       0.529   0.295  -0.297  0.00  0.00    -0.495 OA
ENDBRANCH  19  26
BRANCH  22  27
ATOM     27  O   UNL     1       2.159  -2.428  -4.774  0.00  0.00    -0.495 OA
ATOM     28  C   UNL     1       2.591  -1.645  -5.889  0.00  0.00    +0.277 C 
ENDBRANCH  22  27
ENDBRANCH   1  23
BRANCH  11  29
ATOM     29  C   UNL     1       4.428  -2.796  -2.003  0.00  0.00    +0.034 A 
ATOM     30  C   UNL     1       4.949  -2.617  -0.765  0.00  0.00    +0.015 A 
ATOM     31  C   UNL     1       5.351  -1.351  -0.383  0.00  0.00    +0.008 A 
ATOM     32  C   UNL     1       5.211  -0.325  -1.258  0.00  0.00    +0.045 A 
ATOM     33  S   UNL     1       4.499  -1.143  -2.676  0.00  0.00    -0.098 S 
ENDBRANCH  11  29
TORSDOF 4
