REMARK  Name = ZINC65169727
REMARK  9 active torsions:
REMARK  status: ('A' for Active; 'I' for Inactive)
REMARK    1  A    between atoms: N_9  and  C_11
REMARK    2  A    between atoms: C_11  and  C_12
REMARK    3  A    between atoms: C_12  and  C_13
REMARK    4  A    between atoms: C_12  and  O_25
REMARK    5  A    between atoms: C_13  and  S_14
REMARK    6  A    between atoms: S_14  and  C_15
REMARK    7  A    between atoms: C_18  and  S_20
REMARK    8  A    between atoms: S_20  and  C_21
REMARK    9  A    between atoms: C_21  and  C_22
REMARK                            x       y       z     vdW  Elec       q    Type
REMARK                         _______ _______ _______ _____ _____    ______ ____
ROOT
ATOM      1  C   UNL     1       5.908  -2.179   1.160  0.00  0.00    +0.108 C 
ENDROOT
BRANCH   1   2
ATOM      2  O   UNL     1       5.521  -2.425   2.513  0.00  0.00    -0.393 OA
ATOM      3  H   UNL     1       5.441  -3.363   2.735  0.00  0.00    +0.210 HD
ENDBRANCH   1   2
BRANCH   1   4
ATOM      4  C   UNL     1       4.866  -2.780   0.214  0.00  0.00    -0.046 C 
BRANCH   4  13
ATOM      5  C   UNL     1      -0.017   1.376   0.010  0.00  0.00    +0.000 A 
ATOM      6  C   UNL     1       1.173   2.080   0.002  0.00  0.00    +0.000 A 
ATOM      7  C   UNL     1       2.375   1.401  -0.015  0.00  0.00    +0.002 A 
ATOM      8  C   UNL     1       2.395   0.014  -0.023  0.00  0.00    -0.061 A 
ATOM      9  C   UNL     1       1.208  -0.687  -0.013  0.00  0.00    -0.048 A 
ATOM     10  C   UNL     1       0.002  -0.004   0.002  0.00  0.00    +0.004 A 
ATOM     11  C   UNL     1       1.186  -2.194  -0.014  0.00  0.00    +0.017 C 
ATOM     12  C   UNL     1       2.554  -2.732  -0.434  0.00  0.00    -0.074 C 
ATOM     13  N   UNL     1       3.587  -2.079   0.386  0.00  0.00    +0.384 N 
ATOM     14  C   UNL     1       3.728  -0.686  -0.046  0.00  0.00    -0.043 C 
ATOM     15  H   UNL     1       3.313  -2.106   1.357  0.00  0.00    -0.081 HD
ENDBRANCH   4  13
ENDBRANCH   1   4
BRANCH   1  16
ATOM     16  C   UNL     1       7.270  -2.822   0.894  0.00  0.00    +0.106 C 
BRANCH  16  17
ATOM     17  S   UNL     1       8.505  -2.110   2.015  0.00  0.00    -0.094 S 
BRANCH  17  18
ATOM     18  C   UNL     1       9.998  -2.943   1.590  0.00  0.00    +0.159 A 
ATOM     19  N   UNL     1      10.208  -3.867   0.672  0.00  0.00    -0.134 NA
ATOM     20  N   UNL     1      11.469  -4.390   0.503  0.00  0.00    -0.134 NA
ATOM     21  C   UNL     1      12.463  -3.965   1.259  0.00  0.00    +0.160 A 
ATOM     22  S   UNL     1      11.635  -2.755   2.280  0.00  0.00    -0.033 S 
BRANCH  21  23
ATOM     23  S   UNL     1      14.155  -4.455   1.258  0.00  0.00    -0.088 S 
BRANCH  23  24
ATOM     24  C   UNL     1      14.248  -5.710  -0.048  0.00  0.00    +0.171 C 
BRANCH  24  25
ATOM     25  C   UNL     1      15.662  -6.220  -0.156  0.00  0.00    +0.221 C 
ATOM     26  O   UNL     1      16.523  -5.779   0.577  0.00  0.00    -0.275 OA
ATOM     27  N   UNL     1      15.970  -7.165  -1.066  0.00  0.00    -0.329 N 
ATOM     28  H   UNL     1      15.282  -7.517  -1.651  0.00  0.00    +0.145 HD
ATOM     29  H   UNL     1      16.880  -7.493  -1.135  0.00  0.00    +0.145 HD
ENDBRANCH  24  25
ENDBRANCH  23  24
ENDBRANCH  21  23
ENDBRANCH  17  18
ENDBRANCH  16  17
ENDBRANCH   1  16
TORSDOF 9
