REMARK  Name = ZINC63490259
REMARK  9 active torsions:
REMARK  status: ('A' for Active; 'I' for Inactive)
REMARK    1  A    between atoms: C_1  and  C_2
REMARK    2  A    between atoms: C_2  and  C_3
REMARK    3  A    between atoms: C_2  and  N_4
REMARK    4  A    between atoms: C_7  and  C_9
REMARK    5  A    between atoms: C_9  and  N_10
REMARK    6  A    between atoms: C_11  and  C_13
REMARK    7  A    between atoms: C_13  and  N_18
REMARK    8  A    between atoms: N_21  and  C_22
REMARK    9  A    between atoms: C_22  and  C_23
REMARK                            x       y       z     vdW  Elec       q    Type
REMARK                         _______ _______ _______ _____ _____    ______ ____
ROOT
ATOM      1  C   UNL     1       2.465  -4.739   6.504  0.00  0.00    +0.112 C 
ATOM      2  C   UNL     1       2.857  -3.549   7.404  0.00  0.00    +0.035 C 
ATOM      3  C   UNL     1       3.473  -4.211   8.662  0.00  0.00    +0.003 C 
ATOM      4  C   UNL     1       4.256  -5.409   8.068  0.00  0.00    +0.003 C 
ATOM      5  C   UNL     1       3.355  -5.921   6.926  0.00  0.00    +0.035 C 
ENDROOT
BRANCH   1   6
ATOM      6  N   UNL     1       1.054  -5.076   6.702  0.00  0.00    -0.285 N 
ATOM      7  C   UNL     1       0.095  -4.196   6.354  0.00  0.00    +0.301 C 
ATOM      8  O   UNL     1       0.401  -3.087   5.959  0.00  0.00    -0.253 OA
ATOM      9  N   UNL     1      -1.204  -4.544   6.442  0.00  0.00    -0.295 N 
ATOM     10  H   UNL     1       0.809  -5.933   7.085  0.00  0.00    +0.151 HD
ATOM     11  H   UNL     1      -1.449  -5.429   6.756  0.00  0.00    +0.151 HD
BRANCH   9  12
ATOM     12  C   UNL     1      -2.247  -3.587   6.062  0.00  0.00    +0.141 C 
BRANCH  12  13
ATOM     13  C   UNL     1      -3.602  -4.219   6.252  0.00  0.00    -0.030 A 
ATOM     14  C   UNL     1      -4.187  -4.923   5.216  0.00  0.00    +0.005 A 
ATOM     15  C   UNL     1      -5.430  -5.503   5.391  0.00  0.00    +0.000 A 
ATOM     16  C   UNL     1      -6.087  -5.379   6.600  0.00  0.00    +0.000 A 
ATOM     17  C   UNL     1      -5.501  -4.676   7.636  0.00  0.00    +0.000 A 
ATOM     18  C   UNL     1      -4.257  -4.100   7.464  0.00  0.00    +0.005 A 
ENDBRANCH  12  13
ENDBRANCH   9  12
ENDBRANCH   1   6
BRANCH   1  20
ATOM     19  N   UNL     1       2.056  -5.056   4.085  0.00  0.00    -0.313 N 
ATOM     20  C   UNL     1       2.715  -4.396   5.058  0.00  0.00    +0.237 C 
ATOM     21  O   UNL     1       3.509  -3.525   4.769  0.00  0.00    -0.273 OA
ATOM     22  H   UNL     1       1.476  -5.800   4.311  0.00  0.00    +0.149 HD
BRANCH  19  23
ATOM     23  C   UNL     1       2.215  -4.649   2.686  0.00  0.00    +0.106 C 
BRANCH  23  27
ATOM     24  N   UNL     1       0.245  -4.736  -0.200  0.00  0.00    +0.381 N 
ATOM     25  C   UNL     1      -0.768  -5.401   0.659  0.00  0.00    -0.078 C 
ATOM     26  C   UNL     1      -0.138  -5.328   2.072  0.00  0.00    -0.015 C 
ATOM     27  C   UNL     1       1.365  -5.555   1.792  0.00  0.00    -0.012 C 
ATOM     28  C   UNL     1       1.560  -5.179   0.312  0.00  0.00    -0.074 C 
ATOM     29  H   UNL     1       0.163  -3.733  -0.125  0.00  0.00    -0.081 HD
BRANCH  24  31
ATOM     30  C   UNL     1      -1.286  -4.690  -2.111  0.00  0.00    -0.014 C 
ATOM     31  C   UNL     1       0.078  -5.156  -1.598  0.00  0.00    -0.075 C 
ATOM     32  C   UNL     1       1.184  -4.534  -2.453  0.00  0.00    -0.014 C 
ENDBRANCH  24  31
ENDBRANCH  23  27
ENDBRANCH  19  23
ENDBRANCH   1  20
TORSDOF 7
