REMARK  Name = ZINC57351909
REMARK  2 active torsions:
REMARK  status: ('A' for Active; 'I' for Inactive)
REMARK    1  A    between atoms: C_1  and  C_2
REMARK    2  A    between atoms: C_6  and  N_8
REMARK                            x       y       z     vdW  Elec       q    Type
REMARK                         _______ _______ _______ _____ _____    ______ ____
ROOT
ATOM      1  N   UNL     1       0.050  -2.797   2.397  0.00  0.00    -0.225 N 
ATOM      2  C   UNL     1       1.229  -3.118   2.977  0.00  0.00    +0.275 A 
ATOM      3  O   UNL     1       2.282  -2.795   2.456  0.00  0.00    -0.266 OA
ATOM      4  C   UNL     1       1.221  -3.825   4.183  0.00  0.00    +0.101 A 
ATOM      5  C   UNL     1       0.023  -4.204   4.797  0.00  0.00    +0.063 A 
ATOM      6  C   UNL     1       0.201  -4.900   5.989  0.00  0.00    +0.034 A 
ATOM      7  C   UNL     1       1.450  -5.145   6.441  0.00  0.00    +0.048 A 
ATOM      8  S   UNL     1       2.457  -4.452   5.286  0.00  0.00    -0.090 S 
ATOM      9  N   UNL     1      -1.157  -3.834   4.134  0.00  0.00    -0.306 N 
ATOM     10  H   UNL     1      -2.016  -4.072   4.516  0.00  0.00    +0.170 HD
ATOM     11  C   UNL     1      -1.108  -3.151   2.981  0.00  0.00    +0.334 A 
ATOM     12  O   UNL     1      -2.153  -2.844   2.439  0.00  0.00    -0.246 OA
ENDROOT
BRANCH   1  18
ATOM     13  C   UNL     1      -0.018   1.503   0.010  0.00  0.00    +0.044 C 
ATOM     14  C   UNL     1       0.002  -0.004   0.002  0.00  0.00    -0.048 A 
ATOM     15  C   UNL     1       0.006  -0.688  -1.200  0.00  0.00    +0.006 A 
ATOM     16  C   UNL     1       0.024  -2.070  -1.213  0.00  0.00    +0.041 A 
ATOM     17  C   UNL     1       0.039  -2.773  -0.022  0.00  0.00    +0.147 A 
ATOM     18  C   UNL     1       0.035  -2.088   1.188  0.00  0.00    +0.090 A 
ATOM     19  C   UNL     1       0.023  -0.700   1.195  0.00  0.00    +0.032 A 
ATOM     20  F   UNL     1       0.057  -4.124  -0.034  0.00  0.00    -0.203 F 
ENDBRANCH   1  18
TORSDOF 1
