REMARK  Name = ZINC03566474
REMARK  2 active torsions:
REMARK  status: ('A' for Active; 'I' for Inactive)
REMARK    1  A    between atoms: C_10  and  N_11
REMARK    2  A    between atoms: C_10  and  N_38
REMARK                            x       y       z     vdW  Elec       q    Type
REMARK                         _______ _______ _______ _____ _____    ______ ____
ROOT
ATOM      1  C   UNL     1       1.521   4.599   0.011  0.00  0.00    +0.039 C 
ENDROOT
BRANCH   1  11
ATOM      2  C   UNL     1       1.488   7.199  -5.866  0.00  0.00    +0.000 A 
ATOM      3  C   UNL     1       0.188   7.136  -5.400  0.00  0.00    +0.000 A 
ATOM      4  C   UNL     1      -0.063   6.669  -4.126  0.00  0.00    +0.002 A 
ATOM      5  C   UNL     1       0.982   6.261  -3.309  0.00  0.00    -0.061 A 
ATOM      6  C   UNL     1       2.277   6.321  -3.776  0.00  0.00    -0.048 A 
ATOM      7  C   UNL     1       2.529   6.793  -5.056  0.00  0.00    +0.004 A 
ATOM      8  C   UNL     1       3.444   5.883  -2.929  0.00  0.00    +0.017 C 
ATOM      9  C   UNL     1       3.022   5.802  -1.461  0.00  0.00    -0.071 C 
ATOM     10  C   UNL     1       0.657   5.762  -1.926  0.00  0.00    -0.040 C 
ATOM     11  N   UNL     1       1.790   4.989  -1.390  0.00  0.00    +0.393 N 
ATOM     12  H   UNL     1       1.915   4.141  -1.955  0.00  0.00    -0.079 HD
ENDBRANCH   1  11
BRANCH   1  13
ATOM     13  N   UNL     1       0.683   3.397   0.014  0.00  0.00    -0.281 N 
ATOM     14  C   UNL     1      -0.710   3.411   0.027  0.00  0.00    +0.046 A 
ATOM     15  C   UNL     1      -1.617   4.462   0.042  0.00  0.00    +0.024 A 
ATOM     16  C   UNL     1      -2.976   4.208   0.054  0.00  0.00    +0.002 A 
ATOM     17  C   UNL     1      -3.452   2.908   0.051  0.00  0.00    +0.001 A 
ATOM     18  C   UNL     1      -2.568   1.848   0.036  0.00  0.00    +0.014 A 
ATOM     19  C   UNL     1      -1.195   2.093   0.018  0.00  0.00    +0.048 A 
ATOM     20  C   UNL     1      -0.014   1.209   0.009  0.00  0.00    +0.249 C 
ATOM     21  O   UNL     1       0.002  -0.004   0.002  0.00  0.00    -0.282 OA
ATOM     22  C   UNL     1       1.162   2.140   0.003  0.00  0.00    +0.290 C 
ATOM     23  O   UNL     1       2.331   1.819  -0.011  0.00  0.00    -0.266 OA
ENDBRANCH   1  13
TORSDOF 2
