REMARK  Name = ZINC26884486
REMARK  5 active torsions:
REMARK  status: ('A' for Active; 'I' for Inactive)
REMARK    1  A    between atoms: C_1  and  C_2
REMARK    2  A    between atoms: C_2  and  C_3
REMARK    3  A    between atoms: C_7  and  C_21
REMARK    4  A    between atoms: N_10  and  S_11
REMARK    5  A    between atoms: S_11  and  C_14
REMARK                            x       y       z     vdW  Elec       q    Type
REMARK                         _______ _______ _______ _____ _____    ______ ____
ROOT
ATOM      1  S   UNL     1      -0.858   0.866   5.154  0.00  0.00    +0.063 S 
ATOM      2  O   UNL     1      -1.869   1.658   5.762  0.00  0.00    -0.153 OA
ATOM      3  O   UNL     1      -1.077  -0.483   4.766  0.00  0.00    -0.153 OA
ENDROOT
BRANCH   1   9
ATOM      4  C   UNL     1      -0.372   3.148   3.749  0.00  0.00    +0.105 C 
ATOM      5  C   UNL     1      -1.115   3.596   2.485  0.00  0.00    +0.180 C 
ATOM      6  O   UNL     1      -0.560   2.926   1.351  0.00  0.00    -0.374 OA
ATOM      7  C   UNL     1      -0.702   1.504   1.384  0.00  0.00    +0.131 C 
ATOM      8  C   UNL     1       0.062   0.949   2.591  0.00  0.00    +0.141 C 
ATOM      9  N   UNL     1      -0.376   1.677   3.793  0.00  0.00    -0.169 NA
ATOM     10  C   UNL     1      -0.132   0.903   0.098  0.00  0.00    +0.039 C 
BRANCH   4  12
ATOM     11  C   UNL     1      -0.947   5.227   5.011  0.00  0.00    +0.005 C 
ATOM     12  C   UNL     1      -1.079   3.703   4.987  0.00  0.00    +0.019 C 
ENDBRANCH   4  12
ENDBRANCH   1   9
BRANCH   1  13
ATOM     13  C   UNL     1       0.510   0.855   6.265  0.00  0.00    +0.124 A 
ATOM     14  C   UNL     1       1.503  -0.106   6.146  0.00  0.00    +0.033 A 
ATOM     15  C   UNL     1       2.563  -0.073   7.039  0.00  0.00    +0.042 A 
ATOM     16  C   UNL     1       2.589   0.903   8.019  0.00  0.00    +0.129 A 
ATOM     17  N   UNL     1       1.623   1.799   8.104  0.00  0.00    -0.242 NA
ATOM     18  C   UNL     1       0.603   1.800   7.268  0.00  0.00    +0.141 A 
ATOM     19 CL   UNL     1       3.907   0.951   9.148  0.00  0.00    -0.062 Cl
ENDBRANCH   1  13
TORSDOF 3
