REMARK  Name = ZINC06002714
REMARK  6 active torsions:
REMARK  status: ('A' for Active; 'I' for Inactive)
REMARK    1  A    between atoms: C_1  and  N_2
REMARK    2  A    between atoms: C_3  and  C_5
REMARK    3  A    between atoms: C_16  and  N_21
REMARK    4  A    between atoms: C_22  and  O_24
REMARK    5  A    between atoms: O_24  and  C_25
REMARK    6  A    between atoms: C_25  and  C_26
REMARK                            x       y       z     vdW  Elec       q    Type
REMARK                         _______ _______ _______ _____ _____    ______ ____
ROOT
ATOM      1  C   UNL     1       0.140   0.200  -0.002  0.00  0.00    +0.159 C 
ATOM      2  C   UNL     1       0.178   1.728   0.072  0.00  0.00    +0.032 C 
ATOM      3  C   UNL     1       1.632   2.200   0.126  0.00  0.00    +0.004 C 
ATOM      4  C   UNL     1       1.702   3.559   0.824  0.00  0.00    +0.019 C 
ATOM      5  C   UNL     1       3.041   3.692   1.552  0.00  0.00    +0.104 C 
ATOM      6  N   UNL     1       2.916   3.033   2.881  0.00  0.00    -0.315 N 
ATOM      7  C   UNL     1       3.250   1.700   2.860  0.00  0.00    +0.213 C 
ATOM      8  O   UNL     1       3.612   1.164   1.833  0.00  0.00    -0.276 OA
ATOM      9  C   UNL     1       3.154   0.921   4.147  0.00  0.00    +0.098 C 
ATOM     10  C   UNL     1       3.014  -0.569   3.832  0.00  0.00    +0.041 C 
ATOM     11  C   UNL     1       1.594  -0.857   3.343  0.00  0.00    +0.162 C 
ATOM     12  C   UNL     1       1.433  -0.342   1.936  0.00  0.00    +0.234 C 
ATOM     13  O   UNL     1       2.389   0.056   1.305  0.00  0.00    -0.274 OA
ATOM     14  N   UNL     1       0.172  -0.335   1.387  0.00  0.00    -0.302 N 
ATOM     15  H   UNL     1       2.628   3.499   3.682  0.00  0.00    +0.149 HD
ATOM     16  H   UNL     1      -0.617  -0.646   1.857  0.00  0.00    +0.150 HD
ENDROOT
BRANCH   1  19
ATOM     17  C   UNL     1      -2.442  -0.645  -2.700  0.00  0.00    +0.128 C 
ATOM     18  N   UNL     1      -1.211  -0.213  -2.033  0.00  0.00    -0.317 N 
ATOM     19  C   UNL     1      -1.127  -0.244  -0.688  0.00  0.00    +0.233 C 
ATOM     20  O   UNL     1      -2.070  -0.630  -0.030  0.00  0.00    -0.274 OA
ATOM     21  H   UNL     1      -0.457   0.095  -2.559  0.00  0.00    +0.148 HD
ENDBRANCH   1  19
BRANCH  11  22
ATOM     22  N   UNL     1       0.630  -0.188   4.220  0.00  0.00    -0.270 N 
ATOM     23  C   UNL     1       0.203  -0.800   5.343  0.00  0.00    +0.401 C 
ATOM     24  O   UNL     1       0.617  -1.906   5.627  0.00  0.00    -0.226 OA
ATOM     25  H   UNL     1       0.299   0.696   3.994  0.00  0.00    +0.153 HD
BRANCH  23  26
ATOM     26  O   UNL     1      -0.682  -0.185   6.149  0.00  0.00    -0.446 OA
BRANCH  26  27
ATOM     27  C   UNL     1      -1.098  -0.903   7.341  0.00  0.00    +0.269 C 
BRANCH  27  28
ATOM     28  C   UNL     1      -2.083  -0.065   8.115  0.00  0.00    -0.010 A 
ATOM     29  C   UNL     1      -1.634   0.809   9.086  0.00  0.00    +0.007 A 
ATOM     30  C   UNL     1      -2.537   1.582   9.792  0.00  0.00    +0.000 A 
ATOM     31  C   UNL     1      -3.891   1.471   9.534  0.00  0.00    +0.000 A 
ATOM     32  C   UNL     1      -4.340   0.592   8.566  0.00  0.00    +0.000 A 
ATOM     33  C   UNL     1      -3.437  -0.176   7.857  0.00  0.00    +0.007 A 
ENDBRANCH  27  28
ENDBRANCH  26  27
ENDBRANCH  23  26
ENDBRANCH  11  22
TORSDOF 5
