REMARK  Name = ZINC25799828
REMARK  6 active torsions:
REMARK  status: ('A' for Active; 'I' for Inactive)
REMARK    1  A    between atoms: C_3  and  C_6
REMARK    2  A    between atoms: C_9  and  C_12
REMARK    3  A    between atoms: C_17  and  C_19
REMARK    4  A    between atoms: C_19  and  N_20
REMARK    5  A    between atoms: N_23  and  C_26
REMARK    6  A    between atoms: C_26  and  C_27
REMARK                            x       y       z     vdW  Elec       q    Type
REMARK                         _______ _______ _______ _____ _____    ______ ____
ROOT
ATOM      1  C   UNL     1      -6.394   4.734   8.935  0.00  0.00    +0.104 C 
ATOM      2  N   UNL     1      -5.881   4.916   7.764  0.00  0.00    -0.178 NA
ATOM      3  N   UNL     1      -6.064   3.846   6.891  0.00  0.00    -0.186 N 
ATOM      4  C   UNL     1      -6.819   2.790   7.583  0.00  0.00    +0.143 C 
ATOM      5  C   UNL     1      -7.052   3.374   8.991  0.00  0.00    +0.090 C 
ATOM      6  C   UNL     1      -5.626   3.789   5.618  0.00  0.00    +0.219 C 
ATOM      7  O   UNL     1      -5.843   2.803   4.944  0.00  0.00    -0.276 OA
ENDROOT
BRANCH   1  10
ATOM      8  C   UNL     1      -5.949   7.504  11.274  0.00  0.00    +0.042 A 
ATOM      9  C   UNL     1      -5.756   6.927  10.005  0.00  0.00    +0.051 A 
ATOM     10  C   UNL     1      -6.346   5.697  10.039  0.00  0.00    +0.150 A 
ATOM     11  O   UNL     1      -6.881   5.524  11.264  0.00  0.00    -0.462 OA
ATOM     12  C   UNL     1      -6.639   6.611  12.014  0.00  0.00    +0.196 A 
ENDBRANCH   1  10
BRANCH   4  13
ATOM     13  C   UNL     1      -6.007   1.523   7.665  0.00  0.00    +0.013 A 
ATOM     14  C   UNL     1      -6.415   0.237   7.535  0.00  0.00    +0.013 A 
ATOM     15  C   UNL     1      -5.482  -0.777   7.649  0.00  0.00    +0.008 A 
ATOM     16  C   UNL     1      -4.187  -0.455   7.887  0.00  0.00    +0.045 A 
ATOM     17  S   UNL     1      -4.255   1.328   7.951  0.00  0.00    -0.100 S 
ENDBRANCH   4  13
BRANCH   6  18
ATOM     18  C   UNL     1      -4.866   4.950   5.030  0.00  0.00    +0.021 C 
BRANCH  18  19
ATOM     19  N   UNL     1      -4.502   4.644   3.640  0.00  0.00    +0.387 N 
ATOM     20  C   UNL     1      -3.972   5.835   2.960  0.00  0.00    -0.063 C 
ATOM     21  C   UNL     1      -3.680   5.495   1.496  0.00  0.00    +0.066 C 
ATOM     22  N   UNL     1      -2.719   4.386   1.436  0.00  0.00    -0.301 NA
ATOM     23  C   UNL     1      -3.249   3.196   2.116  0.00  0.00    +0.066 C 
ATOM     24  C   UNL     1      -3.540   3.535   3.579  0.00  0.00    -0.063 C 
ATOM     25  H   UNL     1      -5.416   4.331   3.114  0.00  0.00    -0.081 HD
BRANCH  22  26
ATOM     26  C   UNL     1      -2.355   4.080   0.046  0.00  0.00    +0.126 C 
BRANCH  26  27
ATOM     27  C   UNL     1      -1.196   3.116   0.030  0.00  0.00    +0.004 A 
ATOM     28  C   UNL     1      -1.213   1.761   0.017  0.00  0.00    +0.012 A 
ATOM     29  C   UNL     1      -0.013   1.076   0.008  0.00  0.00    +0.008 A 
ATOM     30  C   UNL     1       1.146   1.780   0.001  0.00  0.00    +0.045 A 
ATOM     31  S   UNL     1       0.555   3.464   0.015  0.00  0.00    -0.100 S 
ENDBRANCH  26  27
ENDBRANCH  22  26
ENDBRANCH  18  19
ENDBRANCH   6  18
TORSDOF 6
