REMARK  Name = ZINC02881704
REMARK  4 active torsions:
REMARK  status: ('A' for Active; 'I' for Inactive)
REMARK    1  A    between atoms: C_1  and  C_2
REMARK    2  A    between atoms: C_5  and  C_8
REMARK    3  A    between atoms: N_10  and  C_11
REMARK    4  A    between atoms: C_13  and  C_25
REMARK                            x       y       z     vdW  Elec       q    Type
REMARK                         _______ _______ _______ _____ _____    ______ ____
ROOT
ATOM      1  C   UNL     1       0.673   7.548   0.035  0.00  0.00    +0.101 A 
ATOM      2  C   UNL     1      -0.604   8.067   0.050  0.00  0.00    +0.050 A 
ATOM      3  C   UNL     1      -1.685   7.158   0.051  0.00  0.00    +0.084 A 
ATOM      4  C   UNL     1      -1.421   5.795   0.042  0.00  0.00    +0.106 A 
ATOM      5  N   UNL     1      -0.158   5.279   0.028  0.00  0.00    -0.268 N 
ATOM      6  C   UNL     1       0.880   6.165   0.025  0.00  0.00    +0.278 A 
ATOM      7  O   UNL     1       2.023   5.737   0.012  0.00  0.00    -0.265 OA
ATOM      8  C   UNL     1      -0.021   3.884   0.018  0.00  0.00    +0.064 A 
ATOM      9  C   UNL     1       1.188   3.166   0.004  0.00  0.00    +0.027 A 
ATOM     10  C   UNL     1       1.189   1.792  -0.004  0.00  0.00    +0.002 A 
ATOM     11  C   UNL     1       0.006   1.071   0.001  0.00  0.00    +0.001 A 
ATOM     12  C   UNL     1      -1.198   1.753   0.009  0.00  0.00    +0.017 A 
ATOM     13  C   UNL     1      -1.198   3.129   0.024  0.00  0.00    +0.038 A 
ATOM     14  S   UNL     1      -2.475   4.363   0.042  0.00  0.00    -0.068 S 
ENDROOT
BRANCH   1  17
ATOM     15  C   UNL     1       2.676   8.367   1.033  0.00  0.00    +0.248 C 
ATOM     16  O   UNL     1       2.582   7.513   1.893  0.00  0.00    -0.270 OA
ATOM     17  N   UNL     1       1.776   8.417   0.032  0.00  0.00    -0.277 N 
ATOM     18  H   UNL     1       1.890   9.053  -0.692  0.00  0.00    +0.155 HD
BRANCH  15  23
ATOM     19  C   UNL     1       6.968  12.195   1.238  0.00  0.00    +0.044 C 
ATOM     20  C   UNL     1       5.844  11.192   1.184  0.00  0.00    -0.050 A 
ATOM     21  C   UNL     1       5.739  10.222   2.165  0.00  0.00    +0.004 A 
ATOM     22  C   UNL     1       4.713   9.301   2.122  0.00  0.00    +0.013 A 
ATOM     23  C   UNL     1       3.779   9.350   1.086  0.00  0.00    +0.037 A 
ATOM     24  C   UNL     1       3.893  10.329   0.097  0.00  0.00    +0.013 A 
ATOM     25  C   UNL     1       4.921  11.246   0.155  0.00  0.00    +0.004 A 
ENDBRANCH  15  23
ENDBRANCH   1  17
BRANCH   3  26
ATOM     26  C   UNL     1      -3.035   7.635   0.066  0.00  0.00    +0.102 C 
ATOM     27  N   UNL     1      -4.106   8.014   0.077  0.00  0.00    -0.191 NA
ENDBRANCH   3  26
TORSDOF 3
