REMARK  Name = ZINC24960564
REMARK  3 active torsions:
REMARK  status: ('A' for Active; 'I' for Inactive)
REMARK    1  A    between atoms: C_1  and  C_2
REMARK    2  A    between atoms: C_8  and  C_14
REMARK    3  A    between atoms: C_11  and  C_13
REMARK                            x       y       z     vdW  Elec       q    Type
REMARK                         _______ _______ _______ _____ _____    ______ ____
ROOT
ATOM      1  C   UNL     1       2.474   1.067  -0.018  0.00  0.00    +0.250 C 
ATOM      2  O   UNL     1       3.517   1.686  -0.102  0.00  0.00    -0.270 OA
ATOM      3  N   UNL     1       2.494  -0.278   0.074  0.00  0.00    -0.293 N 
ATOM      4  C   UNL     1       1.245  -1.054   0.091  0.00  0.00    +0.114 C 
ATOM      5  C   UNL     1       1.195  -1.938  -1.167  0.00  0.00    +0.072 C 
ATOM      6  C   UNL     1       2.533  -2.614  -1.347  0.00  0.00    +0.023 A 
ATOM      7  C   UNL     1       3.675  -2.200  -0.757  0.00  0.00    -0.002 A 
ATOM      8  C   UNL     1       4.728  -3.098  -1.183  0.00  0.00    +0.005 A 
ATOM      9  C   UNL     1       6.096  -3.159  -0.899  0.00  0.00    +0.010 A 
ATOM     10  C   UNL     1       6.808  -4.171  -1.494  0.00  0.00    +0.001 A 
ATOM     11  C   UNL     1       6.211  -5.094  -2.338  0.00  0.00    +0.002 A 
ATOM     12  C   UNL     1       4.860  -5.057  -2.635  0.00  0.00    +0.026 A 
ATOM     13  C   UNL     1       4.111  -4.041  -2.045  0.00  0.00    +0.047 A 
ATOM     14  N   UNL     1       2.787  -3.719  -2.119  0.00  0.00    -0.358 N 
ATOM     15  H   UNL     1       1.970  -4.199  -2.676  0.00  0.00    +0.166 HD
ATOM     16  C   UNL     1       3.769  -1.012   0.168  0.00  0.00    +0.145 C 
ENDROOT
BRANCH   1  23
ATOM     17  C   UNL     1       0.003   5.901   1.453  0.00  0.00    +0.016 C 
ATOM     18  C   UNL     1      -0.240   4.497   2.010  0.00  0.00    +0.060 C 
ATOM     19  C   UNL     1      -0.270   3.469   0.896  0.00  0.00    +0.001 A 
ATOM     20  C   UNL     1      -1.236   3.134  -0.026  0.00  0.00    +0.007 A 
ATOM     21  C   UNL     1      -1.002   2.128  -0.951  0.00  0.00    +0.001 A 
ATOM     22  C   UNL     1       0.199   1.453  -0.944  0.00  0.00    +0.017 A 
ATOM     23  C   UNL     1       1.186   1.786  -0.017  0.00  0.00    +0.079 A 
ATOM     24  C   UNL     1       0.952   2.811   0.918  0.00  0.00    +0.137 A 
ATOM     25  O   UNL     1       1.761   3.304   1.891  0.00  0.00    -0.487 OA
ATOM     26  C   UNL     1       0.967   4.020   2.853  0.00  0.00    +0.178 C 
ATOM     27  C   UNL     1       0.512   3.090   3.979  0.00  0.00    +0.052 C 
ENDBRANCH   1  23
TORSDOF 1
