REMARK  Name = ZINC13122763
REMARK  2 active torsions:
REMARK  status: ('A' for Active; 'I' for Inactive)
REMARK    1  A    between atoms: C_5  and  C_7
REMARK    2  A    between atoms: C_9  and  C_17
REMARK                            x       y       z     vdW  Elec       q    Type
REMARK                         _______ _______ _______ _____ _____    ______ ____
ROOT
ATOM      1  C   UNL     1       1.254  -2.154  -0.023  0.00  0.00    +0.056 C 
ATOM      2  C   UNL     1      -0.050  -2.900  -0.020  0.00  0.00    +0.091 C 
ATOM      3  C   UNL     1       0.056  -4.206  -0.817  0.00  0.00    +0.182 C 
ATOM      4  N   UNL     1       1.335  -4.835  -0.488  0.00  0.00    -0.219 N 
ATOM      5  C   UNL     1       2.441  -4.114  -0.130  0.00  0.00    +0.249 A 
ATOM      6  N   UNL     1       2.412  -2.758  -0.039  0.00  0.00    -0.215 NA
ATOM      7  N   UNL     1       3.415  -4.965   0.081  0.00  0.00    -0.198 NA
ATOM      8  C   UNL     1       2.974  -6.208  -0.118  0.00  0.00    +0.247 A 
ATOM      9  N   UNL     1       1.709  -6.174  -0.465  0.00  0.00    -0.156 NA
ENDROOT
BRANCH   1  14
ATOM     10  C   UNL     1      -0.017   1.374   0.010  0.00  0.00    +0.001 A 
ATOM     11  C   UNL     1       1.170   2.087   0.002  0.00  0.00    +0.001 A 
ATOM     12  C   UNL     1       2.384   1.424  -0.013  0.00  0.00    +0.020 A 
ATOM     13  C   UNL     1       2.421   0.044  -0.022  0.00  0.00    +0.050 A 
ATOM     14  C   UNL     1       1.225  -0.683  -0.014  0.00  0.00    +0.015 A 
ATOM     15  C   UNL     1       0.002  -0.004   0.002  0.00  0.00    +0.011 A 
ATOM     16 CL   UNL     1       3.945  -0.787  -0.043  0.00  0.00    -0.083 Cl
ENDBRANCH   1  14
BRANCH   3  17
ATOM     17  C   UNL     1      -1.076  -5.126  -0.440  0.00  0.00    +0.130 A 
ATOM     18  C   UNL     1      -2.009  -5.610  -1.279  0.00  0.00    +0.047 A 
ATOM     19  C   UNL     1      -2.870  -6.425  -0.508  0.00  0.00    +0.041 A 
ATOM     20  C   UNL     1      -2.412  -6.390   0.756  0.00  0.00    +0.195 A 
ATOM     21  O   UNL     1      -1.322  -5.606   0.790  0.00  0.00    -0.466 OA
ENDBRANCH   3  17
TORSDOF 2
