REMARK  Name = ZINC38519373
REMARK  3 active torsions:
REMARK  status: ('A' for Active; 'I' for Inactive)
REMARK    1  A    between atoms: C_1  and  C_2
REMARK    2  A    between atoms: N_12  and  C_13
REMARK    3  A    between atoms: C_15  and  C_17
REMARK                            x       y       z     vdW  Elec       q    Type
REMARK                         _______ _______ _______ _____ _____    ______ ____
ROOT
ATOM      1  C   UNL     1       0.004   1.537   0.007  0.00  0.00    +0.013 C 
ATOM      2  C   UNL     1       0.020   0.007  -0.006  0.00  0.00    +0.031 C 
ATOM      3  C   UNL     1       0.646  -0.491  -1.313  0.00  0.00    +0.104 C 
ATOM      4  C   UNL     1       1.040  -1.937  -1.210  0.00  0.00    +0.219 C 
ATOM      5  O   UNL     1       0.878  -2.660  -2.170  0.00  0.00    -0.275 OA
ATOM      6  N   UNL     1       1.569  -2.457  -0.082  0.00  0.00    -0.270 N 
ATOM      7  C   UNL     1       1.566  -1.669   1.069  0.00  0.00    +0.128 A 
ATOM      8  C   UNL     1       0.853  -0.502   1.142  0.00  0.00    +0.037 A 
ATOM      9  C   UNL     1       1.058   0.048   2.405  0.00  0.00    +0.152 A 
ATOM     10  N   UNL     1       1.848  -0.761   3.080  0.00  0.00    -0.154 NA
ATOM     11  N   UNL     1       2.172  -1.854   2.257  0.00  0.00    -0.251 N 
ATOM     12  C   UNL     1       3.016  -2.992   2.627  0.00  0.00    +0.174 C 
ATOM     13  N   UNL     1       0.519   1.251   2.875  0.00  0.00    -0.262 N 
ATOM     14  C   UNL     1       0.884   1.728   4.081  0.00  0.00    +0.285 C 
ATOM     15  O   UNL     1       1.683   1.113   4.761  0.00  0.00    -0.266 OA
ATOM     16  H   UNL     1       1.941  -3.353  -0.072  0.00  0.00    +0.156 HD
ATOM     17  H   UNL     1      -0.118   1.741   2.332  0.00  0.00    +0.157 HD
ENDROOT
BRANCH  14  18
ATOM     18  C   UNL     1       0.314   3.001   4.579  0.00  0.00    +0.194 A 
ATOM     19  C   UNL     1       0.705   3.458   5.794  0.00  0.00    +0.103 A 
ATOM     20  C   UNL     1       0.120   4.715   6.287  0.00  0.00    +0.193 A 
ATOM     21  O   UNL     1       0.575   5.305   7.251  0.00  0.00    -0.287 OA
ATOM     22  C   UNL     1      -1.053   5.219   5.544  0.00  0.00    +0.064 A 
ATOM     23  C   UNL     1      -1.850   6.245   6.048  0.00  0.00    +0.015 A 
ATOM     24  C   UNL     1      -2.930   6.677   5.329  0.00  0.00    +0.001 A 
ATOM     25  C   UNL     1      -3.234   6.100   4.105  0.00  0.00    +0.004 A 
ATOM     26  C   UNL     1      -2.456   5.086   3.590  0.00  0.00    +0.047 A 
ATOM     27  C   UNL     1      -1.349   4.633   4.301  0.00  0.00    +0.139 A 
ATOM     28  O   UNL     1      -0.564   3.656   3.806  0.00  0.00    -0.450 OA
ENDBRANCH  14  18
TORSDOF 1
