REMARK  Name = ZINC41112232
REMARK  5 active torsions:
REMARK  status: ('A' for Active; 'I' for Inactive)
REMARK    1  A    between atoms: C_1  and  C_2
REMARK    2  A    between atoms: C_6  and  C_9
REMARK    3  A    between atoms: C_6  and  C_10
REMARK    4  A    between atoms: C_11  and  C_13
REMARK    5  A    between atoms: C_15  and  N_22
REMARK                            x       y       z     vdW  Elec       q    Type
REMARK                         _______ _______ _______ _____ _____    ______ ____
ROOT
ATOM      1  C   UNL     1      -0.392  -2.260  -3.270  0.00  0.00    +0.077 A 
ATOM      2  C   UNL     1      -0.586  -0.882  -3.401  0.00  0.00    +0.051 A 
ATOM      3  C   UNL     1      -1.301  -0.387  -4.468  0.00  0.00    +0.165 A 
ATOM      4  C   UNL     1      -1.831  -1.251  -5.415  0.00  0.00    +0.191 A 
ATOM      5  C   UNL     1      -1.643  -2.620  -5.295  0.00  0.00    +0.196 A 
ATOM      6  C   UNL     1      -0.921  -3.129  -4.230  0.00  0.00    +0.173 A 
ATOM      7  F   UNL     1      -0.733  -4.462  -4.114  0.00  0.00    -0.202 F 
ATOM      8  F   UNL     1      -2.162  -3.456  -6.220  0.00  0.00    -0.199 F 
ATOM      9  F   UNL     1      -2.532  -0.758  -6.459  0.00  0.00    -0.200 F 
ENDROOT
BRANCH   1  19
ATOM     10  C   UNL     1      -2.104   0.195   0.769  0.00  0.00    +0.039 C 
ATOM     11  C   UNL     1      -1.442  -1.143   0.436  0.00  0.00    +0.133 C 
ATOM     12  C   UNL     1      -0.477  -0.959  -0.741  0.00  0.00    +0.140 C 
ATOM     13  N   UNL     1       0.281  -2.207  -0.919  0.00  0.00    -0.288 N 
ATOM     14  C   UNL     1       0.935  -2.794   0.261  0.00  0.00    +0.055 C 
ATOM     15  C   UNL     1      -0.099  -2.889   1.389  0.00  0.00    +0.185 C 
ATOM     16  O   UNL     1      -0.715  -1.612   1.574  0.00  0.00    -0.373 OA
ATOM     17  C   UNL     1       2.098  -1.903   0.702  0.00  0.00    +0.034 C 
ATOM     18  C   UNL     1       1.456  -4.191  -0.080  0.00  0.00    +0.034 C 
ATOM     19  C   UNL     1       0.374  -2.795  -2.128  0.00  0.00    +0.250 C 
ATOM     20  O   UNL     1       1.090  -3.767  -2.278  0.00  0.00    -0.270 OA
ENDBRANCH   1  19
BRANCH   3  21
ATOM     21  N   UNL     1      -1.506   1.073  -4.606  0.00  0.00    +0.059 N 
ATOM     22  O   UNL     1      -1.046   1.828  -3.781  0.00  0.00    -0.126 OA
ATOM     23  O   UNL     1      -2.134   1.510  -5.542  0.00  0.00    -0.126 OA
ENDBRANCH   3  21
TORSDOF 2
