REMARK  Name = ZINC66908119
REMARK  7 active torsions:
REMARK  status: ('A' for Active; 'I' for Inactive)
REMARK    1  A    between atoms: C_1  and  C_2
REMARK    2  A    between atoms: C_2  and  C_3
REMARK    3  A    between atoms: C_2  and  N_4
REMARK    4  A    between atoms: C_7  and  N_10
REMARK    5  A    between atoms: C_16  and  N_19
REMARK    6  A    between atoms: C_20  and  C_22
REMARK    7  A    between atoms: C_22  and  C_23
REMARK                            x       y       z     vdW  Elec       q    Type
REMARK                         _______ _______ _______ _____ _____    ______ ____
ROOT
ATOM      1  N   UNL     1       1.705  -2.396   4.818  0.00  0.00    -0.297 N 
ATOM      2  C   UNL     1       1.526  -3.618   5.358  0.00  0.00    +0.302 C 
ATOM      3  O   UNL     1       0.630  -4.335   4.955  0.00  0.00    -0.253 OA
ATOM      4  N   UNL     1       2.338  -4.045   6.344  0.00  0.00    -0.286 N 
ATOM      5  C   UNL     1       3.350  -3.149   6.921  0.00  0.00    +0.111 C 
ATOM      6  C   UNL     1       4.716  -3.838   6.852  0.00  0.00    +0.041 C 
ATOM      7  C   UNL     1       4.628  -5.207   7.532  0.00  0.00    +0.076 C 
ATOM      8  C   UNL     1       3.609  -6.079   6.794  0.00  0.00    +0.041 C 
ATOM      9  C   UNL     1       2.226  -5.414   6.867  0.00  0.00    +0.111 C 
ATOM     10  H   UNL     1       2.371  -1.796   5.188  0.00  0.00    +0.151 HD
ENDROOT
BRANCH   1  14
ATOM     11  N   UNL     1       0.717  -0.493   1.189  0.00  0.00    +0.381 N 
ATOM     12  C   UNL     1       0.033  -0.011   2.395  0.00  0.00    -0.077 C 
ATOM     13  C   UNL     1       0.813  -0.446   3.637  0.00  0.00    +0.004 C 
ATOM     14  C   UNL     1       0.895  -1.975   3.672  0.00  0.00    +0.071 C 
ATOM     15  C   UNL     1       1.543  -2.471   2.376  0.00  0.00    +0.004 C 
ATOM     16  C   UNL     1       0.736  -1.961   1.181  0.00  0.00    -0.077 C 
ATOM     17  H   UNL     1       1.664  -0.146   1.181  0.00  0.00    -0.081 HD
BRANCH  11  19
ATOM     18  C   UNL     1      -0.013   1.522   0.006  0.00  0.00    -0.014 C 
ATOM     19  C   UNL     1       0.007  -0.007  -0.002  0.00  0.00    -0.075 C 
ATOM     20  C   UNL     1       0.725  -0.502  -1.260  0.00  0.00    -0.014 C 
ENDBRANCH  11  19
ENDBRANCH   1  14
BRANCH   7  21
ATOM     21  N   UNL     1       5.941  -5.855   7.496  0.00  0.00    -0.312 N 
ATOM     22  C   UNL     1       6.259  -6.783   8.420  0.00  0.00    +0.214 C 
ATOM     23  O   UNL     1       5.458  -7.082   9.280  0.00  0.00    -0.276 OA
ATOM     24  H   UNL     1       6.582  -5.615   6.809  0.00  0.00    +0.149 HD
BRANCH  22  25
ATOM     25  C   UNL     1       7.611  -7.450   8.384  0.00  0.00    +0.099 C 
BRANCH  25  26
ATOM     26  C   UNL     1       7.714  -8.455   9.533  0.00  0.00    -0.002 C 
ATOM     27  C   UNL     1       7.739  -7.711  10.885  0.00  0.00    +0.004 C 
ATOM     28  C   UNL     1       8.728  -8.530  11.751  0.00  0.00    +0.000 C 
ATOM     29  C   UNL     1       9.821  -8.934  10.731  0.00  0.00    +0.000 C 
ATOM     30  C   UNL     1       9.039  -9.232   9.435  0.00  0.00    +0.004 C 
ENDBRANCH  25  26
ENDBRANCH  22  25
ENDBRANCH   7  21
TORSDOF 5
