REMARK  Name = ZINC17080113
REMARK  6 active torsions:
REMARK  status: ('A' for Active; 'I' for Inactive)
REMARK    1  A    between atoms: C_1  and  C_2
REMARK    2  A    between atoms: C_2  and  O_3
REMARK    3  A    between atoms: O_3  and  C_4
REMARK    4  A    between atoms: C_4  and  C_6
REMARK    5  A    between atoms: C_10  and  N_11
REMARK    6  A    between atoms: C_12  and  C_14
REMARK                            x       y       z     vdW  Elec       q    Type
REMARK                         _______ _______ _______ _____ _____    ______ ____
ROOT
ATOM      1  C   UNL     1      -1.300   2.022   0.019  0.00  0.00    +0.097 A 
ATOM      2  C   UNL     1      -1.282   3.408   0.031  0.00  0.00    +0.030 A 
ATOM      3  C   UNL     1      -0.038   4.072   0.023  0.00  0.00    +0.026 A 
ATOM      4  C   UNL     1       0.022   5.536   0.029  0.00  0.00    -0.007 A 
ATOM      5  C   UNL     1      -1.137   6.315   0.043  0.00  0.00    +0.009 A 
ATOM      6  C   UNL     1      -1.036   7.676   0.048  0.00  0.00    +0.001 A 
ATOM      7  C   UNL     1       0.209   8.299   0.040  0.00  0.00    +0.001 A 
ATOM      8  C   UNL     1       1.359   7.567   0.026  0.00  0.00    +0.008 A 
ATOM      9  C   UNL     1       1.290   6.165   0.020  0.00  0.00    -0.017 A 
ATOM     10  C   UNL     1       2.455   5.375   0.007  0.00  0.00    +0.012 A 
ATOM     11  C   UNL     1       2.384   4.020   0.000  0.00  0.00    +0.047 A 
ATOM     12  C   UNL     1       1.158   3.344   0.009  0.00  0.00    +0.138 A 
ATOM     13  O   UNL     1       1.142   1.993   0.002  0.00  0.00    -0.439 OA
ATOM     14  C   UNL     1      -0.016   1.303   0.009  0.00  0.00    +0.205 A 
ATOM     15  N   UNL     1       0.002  -0.004   0.002  0.00  0.00    -0.369 N 
ATOM     16  H   UNL     1       0.962  -0.541  -0.005  0.00  0.00    +0.159 HD
ATOM     17  H   UNL     1      -0.943  -0.567   0.003  0.00  0.00    +0.159 HD
ENDROOT
BRANCH   1  19
ATOM     18  N   UNL     1      -3.740   1.961   0.031  0.00  0.00    -0.275 N 
ATOM     19  C   UNL     1      -2.573   1.287   0.022  0.00  0.00    +0.254 C 
ATOM     20  O   UNL     1      -2.573   0.070   0.016  0.00  0.00    -0.270 OA
ATOM     21  H   UNL     1      -3.740   3.061   0.036  0.00  0.00    +0.156 HD
BRANCH  18  26
ATOM     22  C   UNL     1      -6.233   1.780   0.048  0.00  0.00    +0.087 A 
ATOM     23  C   UNL     1      -7.310   0.819   0.042  0.00  0.00    +0.024 A 
ATOM     24  C   UNL     1      -6.972  -0.483   0.035  0.00  0.00    +0.048 A 
ATOM     25  S   UNL     1      -5.192  -0.445   0.026  0.00  0.00    -0.081 S 
ATOM     26  C   UNL     1      -4.939   1.268   0.033  0.00  0.00    +0.086 A 
BRANCH  22  27
ATOM     27  C   UNL     1      -6.489   3.221   0.064  0.00  0.00    +0.342 C 
ATOM     28  O   UNL     1      -5.558   4.005   0.065  0.00  0.00    -0.245 OA
BRANCH  27  29
ATOM     29  O   UNL     1      -7.757   3.681   0.078  0.00  0.00    -0.461 OA
BRANCH  29  31
ATOM     30  C   UNL     1      -9.430   5.450   0.108  0.00  0.00    +0.048 C 
ATOM     31  C   UNL     1      -7.936   5.122   0.094  0.00  0.00    +0.229 C 
ENDBRANCH  29  31
ENDBRANCH  27  29
ENDBRANCH  22  27
ENDBRANCH  18  26
ENDBRANCH   1  19
TORSDOF 5
