REMARK  Name = ZINC40514633
REMARK  7 active torsions:
REMARK  status: ('A' for Active; 'I' for Inactive)
REMARK    1  A    between atoms: C_1  and  C_2
REMARK    2  A    between atoms: C_2  and  O_3
REMARK    3  A    between atoms: O_3  and  C_4
REMARK    4  A    between atoms: C_7  and  C_10
REMARK    5  A    between atoms: C_12  and  C_27
REMARK    6  A    between atoms: C_13  and  C_25
REMARK    7  A    between atoms: N_16  and  C_19
REMARK                            x       y       z     vdW  Elec       q    Type
REMARK                         _______ _______ _______ _____ _____    ______ ____
ROOT
ATOM      1  C   UNL     1      -2.016  -6.012  -0.258  0.00  0.00    +0.021 C 
ATOM      2  C   UNL     1      -3.275  -6.554  -0.027  0.00  0.00    +0.042 C 
ATOM      3  C   UNL     1      -4.404  -5.713   0.102  0.00  0.00    -0.016 C 
ATOM      4  C   UNL     1      -5.643  -6.291   0.332  0.00  0.00    +0.117 C 
ATOM      5  C   UNL     1      -5.753  -7.748   0.436  0.00  0.00    +0.264 C 
ATOM      6  O   UNL     1      -6.841  -8.255   0.638  0.00  0.00    -0.269 OA
ATOM      7  N   UNL     1      -4.669  -8.533   0.311  0.00  0.00    -0.230 N 
ATOM      8  C   UNL     1      -3.450  -8.011   0.081  0.00  0.00    +0.254 C 
ATOM      9  O   UNL     1      -2.489  -8.747  -0.033  0.00  0.00    -0.270 OA
ATOM     10  C   UNL     1      -4.264  -4.216  -0.009  0.00  0.00    +0.046 C 
ENDROOT
BRANCH   1  14
ATOM     11  C   UNL     1      -1.194  -2.076   0.884  0.00  0.00    +0.121 A 
ATOM     12  C   UNL     1      -0.822  -2.522  -0.381  0.00  0.00    +0.046 A 
ATOM     13  C   UNL     1      -1.088  -3.806  -0.761  0.00  0.00    +0.011 A 
ATOM     14  C   UNL     1      -1.736  -4.678   0.129  0.00  0.00    -0.024 A 
ATOM     15  C   UNL     1      -2.108  -4.222   1.405  0.00  0.00    +0.011 A 
ATOM     16  C   UNL     1      -1.832  -2.937   1.773  0.00  0.00    +0.046 A 
BRANCH  11  17
ATOM     17  O   UNL     1      -0.927  -0.799   1.254  0.00  0.00    -0.492 OA
BRANCH  17  19
ATOM     18  C   UNL     1      -0.056   1.425   0.888  0.00  0.00    +0.048 C 
ATOM     19  C   UNL     1      -0.270   0.031   0.295  0.00  0.00    +0.225 C 
ENDBRANCH  17  19
ENDBRANCH  11  17
ENDBRANCH   1  14
BRANCH   7  20
ATOM     20  C   UNL     1      -4.819  -9.986   0.420  0.00  0.00    +0.085 C 
ATOM     21  C   UNL     1      -5.774 -10.484  -0.666  0.00  0.00    +0.023 C 
ATOM     22  C   UNL     1      -5.930 -12.001  -0.552  0.00  0.00    +0.002 C 
ATOM     23  C   UNL     1      -6.496 -12.354   0.826  0.00  0.00    +0.000 C 
ATOM     24  C   UNL     1      -5.540 -11.856   1.912  0.00  0.00    +0.002 C 
ATOM     25  C   UNL     1      -5.384 -10.338   1.797  0.00  0.00    +0.023 C 
ENDBRANCH   7  20
BRANCH   4  26
ATOM     26  C   UNL     1      -6.807  -5.468   0.467  0.00  0.00    +0.105 C 
ATOM     27  N   UNL     1      -7.731  -4.816   0.575  0.00  0.00    -0.191 NA
ENDBRANCH   4  26
TORSDOF 5
