REMARK  Name = ZINC16938634
REMARK  7 active torsions:
REMARK  status: ('A' for Active; 'I' for Inactive)
REMARK    1  A    between atoms: C_1  and  C_2
REMARK    2  A    between atoms: C_2  and  C_4
REMARK    3  A    between atoms: C_2  and  S_13
REMARK    4  A    between atoms: S_13  and  C_14
REMARK    5  A    between atoms: C_17  and  C_26
REMARK    6  A    between atoms: N_18  and  C_19
REMARK    7  A    between atoms: C_26  and  N_63
REMARK                            x       y       z     vdW  Elec       q    Type
REMARK                         _______ _______ _______ _____ _____    ______ ____
ROOT
ATOM      1  C   UNL     1      -0.046  -0.852   2.321  0.00  0.00    +0.197 A 
ATOM      2  N   UNL     1      -0.908  -1.357   1.469  0.00  0.00    -0.122 NA
ATOM      3  N   UNL     1      -0.950  -2.635   1.595  0.00  0.00    -0.135 NA
ATOM      4  C   UNL     1      -0.126  -3.022   2.527  0.00  0.00    +0.122 A 
ATOM      5  N   UNL     1       0.485  -1.900   3.021  0.00  0.00    -0.276 N 
ENDROOT
BRANCH   5   6
ATOM      6  C   UNL     1       1.453  -1.838   4.035  0.00  0.00    +0.050 A 
ATOM      7  C   UNL     1       2.700  -2.416   3.842  0.00  0.00    +0.029 A 
ATOM      8  C   UNL     1       3.653  -2.351   4.840  0.00  0.00    +0.040 A 
ATOM      9  C   UNL     1       3.361  -1.718   6.037  0.00  0.00    +0.124 A 
ATOM     10  C   UNL     1       2.116  -1.146   6.233  0.00  0.00    +0.040 A 
ATOM     11  C   UNL     1       1.162  -1.205   5.236  0.00  0.00    +0.029 A 
ATOM     12  F   UNL     1       4.293  -1.660   7.013  0.00  0.00    -0.205 F 
ENDBRANCH   5   6
BRANCH   1  13
ATOM     13  S   UNL     1       0.355   0.852   2.520  0.00  0.00    -0.073 S 
BRANCH  13  15
ATOM     14  C   UNL     1      -0.289   1.109  -0.122  0.00  0.00    +0.029 C 
ATOM     15  C   UNL     1      -0.728   1.579   1.266  0.00  0.00    +0.137 C 
BRANCH  15  16
ATOM     16  C   UNL     1      -0.642   3.082   1.337  0.00  0.00    +0.229 C 
ATOM     17  O   UNL     1       0.289   3.610   1.907  0.00  0.00    -0.274 OA
ATOM     18  N   UNL     1      -1.601   3.840   0.768  0.00  0.00    -0.301 N 
ATOM     19  C   UNL     1      -1.436   5.276   0.763  0.00  0.00    +0.108 C 
ATOM     20  C   UNL     1      -2.048   5.880   2.045  0.00  0.00    +0.019 C 
ATOM     21  C   UNL     1      -3.516   5.803   1.995  0.00  0.00    +0.002 C 
ATOM     22  C   UNL     1      -4.069   4.382   1.944  0.00  0.00    +0.002 C 
ATOM     23  C   UNL     1      -4.089   3.904   0.512  0.00  0.00    +0.019 C 
ATOM     24  C   UNL     1      -2.777   3.169   0.182  0.00  0.00    +0.108 C 
ENDBRANCH  15  16
ENDBRANCH  13  15
ENDBRANCH   1  13
BRANCH   4  25
ATOM     25  C   UNL     1       0.115  -4.440   2.974  0.00  0.00    -0.001 C 
BRANCH  25  31
ATOM     26  C   UNL     1       0.804  -5.162   0.769  0.00  0.00    -0.078 C 
ATOM     27  C   UNL     1       2.002  -5.639  -0.056  0.00  0.00    -0.019 C 
ATOM     28  C   UNL     1       2.486  -6.986   0.488  0.00  0.00    -0.004 C 
ATOM     29  C   UNL     1       2.846  -6.830   1.969  0.00  0.00    -0.019 C 
ATOM     30  C   UNL     1       1.623  -6.319   2.735  0.00  0.00    -0.078 C 
ATOM     31  N   UNL     1       1.222  -5.009   2.178  0.00  0.00    +0.384 N 
ATOM     32  H   UNL     1       2.025  -4.370   2.220  0.00  0.00    -0.081 HD
ENDBRANCH  25  31
ENDBRANCH   4  25
TORSDOF 6
