REMARK  Name = ZINC06577942
REMARK  7 active torsions:
REMARK  status: ('A' for Active; 'I' for Inactive)
REMARK    1  A    between atoms: C_1  and  O_2
REMARK    2  A    between atoms: O_2  and  C_3
REMARK    3  A    between atoms: C_6  and  C_11
REMARK    4  A    between atoms: C_8  and  O_9
REMARK    5  A    between atoms: O_9  and  C_10
REMARK    6  A    between atoms: N_18  and  C_25
REMARK    7  A    between atoms: C_22  and  C_23
REMARK                            x       y       z     vdW  Elec       q    Type
REMARK                         _______ _______ _______ _____ _____    ______ ____
ROOT
ATOM      1  C   UNL     1       2.590  -2.548   4.315  0.00  0.00    +0.071 C 
ATOM      2  C   UNL     1       4.055  -2.104   4.369  0.00  0.00    +0.110 C 
ATOM      3  C   UNL     1       4.120  -0.663   4.797  0.00  0.00    +0.222 C 
ATOM      4  O   UNL     1       4.982   0.058   4.341  0.00  0.00    -0.275 OA
ATOM      5  N   UNL     1       3.229  -0.161   5.685  0.00  0.00    -0.248 N 
ATOM      6  C   UNL     1       3.286   1.272   5.944  0.00  0.00    +0.223 C 
ATOM      7  N   UNL     1       2.703   1.715   7.192  0.00  0.00    -0.302 N 
ATOM      8  C   UNL     1       1.383   1.242   7.636  0.00  0.00    +0.182 C 
ATOM      9  S   UNL     1       1.505  -0.573   7.765  0.00  0.00    -0.090 S 
ATOM     10  C   UNL     1       2.279  -0.996   6.233  0.00  0.00    +0.087 C 
ATOM     11  C   UNL     1       1.919  -2.157   5.608  0.00  0.00    +0.065 C 
ENDROOT
BRANCH   7  12
ATOM     12  C   UNL     1       3.412   2.613   7.996  0.00  0.00    +0.067 A 
ATOM     13  C   UNL     1       3.239   3.981   7.830  0.00  0.00    +0.026 A 
ATOM     14  C   UNL     1       3.940   4.866   8.626  0.00  0.00    +0.002 A 
ATOM     15  C   UNL     1       4.814   4.392   9.587  0.00  0.00    +0.003 A 
ATOM     16  C   UNL     1       4.990   3.031   9.756  0.00  0.00    +0.040 A 
ATOM     17  C   UNL     1       4.287   2.139   8.967  0.00  0.00    +0.144 A 
ATOM     18  F   UNL     1       4.454   0.809   9.136  0.00  0.00    -0.204 F 
ENDBRANCH   7  12
BRANCH   1  22
ATOM     19  C   UNL     1       0.626  -0.619   1.042  0.00  0.00    +0.162 A 
ATOM     20  C   UNL     1       1.202   0.137   2.051  0.00  0.00    +0.050 A 
ATOM     21  C   UNL     1       1.836  -0.490   3.108  0.00  0.00    +0.008 A 
ATOM     22  C   UNL     1       1.897  -1.870   3.161  0.00  0.00    -0.035 A 
ATOM     23  C   UNL     1       1.325  -2.630   2.158  0.00  0.00    +0.053 A 
ATOM     24  C   UNL     1       0.683  -2.008   1.099  0.00  0.00    +0.162 A 
BRANCH  19  26
ATOM     25  C   UNL     1      -0.017   1.425   0.010  0.00  0.00    +0.277 C 
ATOM     26  O   UNL     1       0.002  -0.004   0.002  0.00  0.00    -0.491 OA
ENDBRANCH  19  26
BRANCH  24  27
ATOM     27  O   UNL     1       0.115  -2.754   0.114  0.00  0.00    -0.491 OA
ATOM     28  C   UNL     1       0.211  -4.174   0.238  0.00  0.00    +0.277 C 
ENDBRANCH  24  27
ENDBRANCH   1  22
BRANCH  11  29
ATOM     29  C   UNL     1       0.912  -3.002   6.177  0.00  0.00    +0.098 C 
ATOM     30  N   UNL     1       0.113  -3.672   6.628  0.00  0.00    -0.191 NA
ENDBRANCH  11  29
TORSDOF 5
