REMARK  Name = ZINC54163803
REMARK  12 active torsions:
REMARK  status: ('A' for Active; 'I' for Inactive)
REMARK    1  A    between atoms: C_1  and  C_2
REMARK    2  A    between atoms: C_2  and  C_3
REMARK    3  A    between atoms: C_2  and  C_4
REMARK    4  A    between atoms: C_4  and  C_6
REMARK    5  A    between atoms: C_4  and  N_21
REMARK    6  A    between atoms: N_8  and  N_9
REMARK    7  A    between atoms: C_10  and  C_12
REMARK    8  A    between atoms: C_16  and  O_19
REMARK    9  A    between atoms: C_17  and  O_18
REMARK   10  A    between atoms: O_19  and  C_20
REMARK   11  A    between atoms: C_22  and  C_24
REMARK   12  A    between atoms: C_24  and  C_25
REMARK                            x       y       z     vdW  Elec       q    Type
REMARK                         _______ _______ _______ _____ _____    ______ ____
ROOT
ATOM      1  C   UNL     1      -2.125  -0.137  -1.266  0.00  0.00    +0.250 C 
ATOM      2  O   UNL     1      -3.122   0.552  -1.228  0.00  0.00    -0.272 OA
ATOM      3  N   UNL     1      -1.635  -0.549  -2.452  0.00  0.00    -0.233 N 
ATOM      4  H   UNL     1      -0.837  -1.100  -2.483  0.00  0.00    +0.173 HD
ENDROOT
BRANCH   3   5
ATOM      5  N   UNL     1      -2.277  -0.180  -3.642  0.00  0.00    -0.230 N 
ATOM      6  C   UNL     1      -1.788  -0.592  -4.828  0.00  0.00    +0.264 C 
ATOM      7  O   UNL     1      -0.788  -1.282  -4.866  0.00  0.00    -0.269 OA
ATOM      8  H   UNL     1      -3.075   0.371  -3.611  0.00  0.00    +0.173 HD
BRANCH   6   9
ATOM      9  C   UNL     1      -2.465  -0.203  -6.080  0.00  0.00    +0.083 A 
ATOM     10  C   UNL     1      -3.611   0.596  -6.040  0.00  0.00    +0.017 A 
ATOM     11  C   UNL     1      -4.240   0.956  -7.212  0.00  0.00    +0.005 A 
ATOM     12  C   UNL     1      -3.743   0.531  -8.433  0.00  0.00    +0.049 A 
ATOM     13  C   UNL     1      -2.609  -0.261  -8.489  0.00  0.00    +0.162 A 
ATOM     14  C   UNL     1      -1.959  -0.629  -7.314  0.00  0.00    +0.171 A 
BRANCH  14  15
ATOM     15  O   UNL     1      -0.843  -1.400  -7.365  0.00  0.00    -0.503 OA
ATOM     16  H   UNL     1      -1.020  -2.351  -7.334  0.00  0.00    +0.292 HD
ENDBRANCH  14  15
BRANCH  13  17
ATOM     17  O   UNL     1      -2.127  -0.675  -9.691  0.00  0.00    -0.491 OA
ATOM     18  C   UNL     1      -2.841  -0.256 -10.855  0.00  0.00    +0.277 C 
ENDBRANCH  13  17
ENDBRANCH   6   9
ENDBRANCH   3   5
BRANCH   1  19
ATOM     19  C   UNL     1      -1.433  -0.534   0.013  0.00  0.00    +0.163 C 
BRANCH  19  20
ATOM     20  N   UNL     1      -2.155   0.035   1.154  0.00  0.00    -0.303 N 
ATOM     21  C   UNL     1      -2.067  -0.550   2.366  0.00  0.00    +0.218 C 
ATOM     22  O   UNL     1      -1.391  -1.546   2.511  0.00  0.00    -0.275 OA
ATOM     23  H   UNL     1      -2.696   0.831   1.038  0.00  0.00    +0.149 HD
BRANCH  21  24
ATOM     24  C   UNL     1      -2.809   0.034   3.540  0.00  0.00    +0.130 C 
BRANCH  24  25
ATOM     25  C   UNL     1      -2.546  -0.800   4.766  0.00  0.00    -0.039 A 
ATOM     26  C   UNL     1      -3.371  -1.869   5.066  0.00  0.00    +0.004 A 
ATOM     27  C   UNL     1      -3.130  -2.635   6.191  0.00  0.00    +0.000 A 
ATOM     28  C   UNL     1      -2.063  -2.332   7.017  0.00  0.00    +0.000 A 
ATOM     29  C   UNL     1      -1.238  -1.265   6.717  0.00  0.00    +0.000 A 
ATOM     30  C   UNL     1      -1.476  -0.501   5.589  0.00  0.00    +0.004 A 
ENDBRANCH  24  25
ENDBRANCH  21  24
ENDBRANCH  19  20
BRANCH  19  32
ATOM     31  C   UNL     1      -0.019   1.526   0.010  0.00  0.00    +0.009 C 
ATOM     32  C   UNL     1       0.002  -0.004   0.002  0.00  0.00    +0.012 C 
ATOM     33  C   UNL     1       0.742  -0.511   1.242  0.00  0.00    +0.009 C 
ENDBRANCH  19  32
ENDBRANCH   1  19
TORSDOF 9
