REMARK  Name = ZINC33271385
REMARK  3 active torsions:
REMARK  status: ('A' for Active; 'I' for Inactive)
REMARK    1  A    between atoms: C_1  and  C_2
REMARK    2  A    between atoms: C_13  and  C_16
REMARK    3  A    between atoms: C_21  and  C_23
REMARK                            x       y       z     vdW  Elec       q    Type
REMARK                         _______ _______ _______ _____ _____    ______ ____
ROOT
ATOM      1  C   UNL     1       1.152   1.766  -2.931  0.00  0.00    +0.068 C 
ATOM      2  C   UNL     1      -0.279   1.884  -2.474  0.00  0.00    +0.066 A 
ATOM      3  C   UNL     1      -0.753   1.591  -1.205  0.00  0.00    +0.023 A 
ATOM      4  C   UNL     1      -2.101   1.840  -1.188  0.00  0.00    +0.134 A 
ATOM      5  N   UNL     1      -2.453   2.252  -2.423  0.00  0.00    -0.198 N 
ATOM      6  N   UNL     1      -1.291   2.282  -3.210  0.00  0.00    -0.168 NA
ATOM      7  C   UNL     1      -3.743   2.590  -2.844  0.00  0.00    +0.176 A 
ATOM      8  C   UNL     1      -3.912   3.478  -3.923  0.00  0.00    +0.054 A 
ATOM      9  C   UNL     1      -5.162   3.810  -4.344  0.00  0.00    +0.054 A 
ATOM     10  C   UNL     1      -6.276   3.264  -3.680  0.00  0.00    +0.178 A 
ATOM     11  N   UNL     1      -7.585   3.385  -3.835  0.00  0.00    -0.128 NA
ATOM     12  N   UNL     1      -8.185   2.663  -2.954  0.00  0.00    -0.132 NA
ATOM     13  C   UNL     1      -7.308   2.049  -2.198  0.00  0.00    +0.152 A 
ATOM     14  N   UNL     1      -6.077   2.404  -2.627  0.00  0.00    -0.195 N 
ATOM     15  N   UNL     1      -4.780   2.080  -2.224  0.00  0.00    -0.144 NA
ATOM     16  C   UNL     1      -7.616   1.115  -1.057  0.00  0.00    +0.090 C 
ATOM     17  N   UNL     1      -2.871   1.645  -0.042  0.00  0.00    -0.270 N 
ATOM     18  C   UNL     1      -2.229   1.423   1.125  0.00  0.00    +0.219 C 
ATOM     19  O   UNL     1      -2.873   1.083   2.095  0.00  0.00    -0.275 OA
ATOM     20  C   UNL     1      -0.741   1.586   1.260  0.00  0.00    +0.109 C 
ATOM     21  C   UNL     1      -0.013   1.086   0.008  0.00  0.00    +0.066 C 
ATOM     22  H   UNL     1      -3.968   1.673  -0.106  0.00  0.00    +0.156 HD
ENDROOT
BRANCH  21  23
ATOM     23  C   UNL     1       1.399   1.613  -0.003  0.00  0.00    -0.001 A 
ATOM     24  C   UNL     1       1.628   2.977  -0.003  0.00  0.00    +0.007 A 
ATOM     25  C   UNL     1       2.922   3.462  -0.007  0.00  0.00    +0.003 A 
ATOM     26  C   UNL     1       3.991   2.584  -0.022  0.00  0.00    +0.041 A 
ATOM     27  C   UNL     1       3.765   1.219  -0.027  0.00  0.00    +0.159 A 
ATOM     28  C   UNL     1       2.466   0.732  -0.018  0.00  0.00    +0.162 A 
ATOM     29  F   UNL     1       2.244  -0.600  -0.023  0.00  0.00    -0.202 F 
ATOM     30  F   UNL     1       4.809   0.361  -0.041  0.00  0.00    -0.202 F 
ENDBRANCH  21  23
TORSDOF 1
