REMARK  Name = ZINC35493284
REMARK  9 active torsions:
REMARK  status: ('A' for Active; 'I' for Inactive)
REMARK    1  A    between atoms: C_1  and  C_2
REMARK    2  A    between atoms: C_2  and  C_3
REMARK    3  A    between atoms: C_3  and  C_5
REMARK    4  A    between atoms: C_3  and  N_6
REMARK    5  A    between atoms: C_7  and  C_9
REMARK    6  A    between atoms: C_9  and  N_10
REMARK    7  A    between atoms: N_17  and  S_20
REMARK    8  A    between atoms: S_20  and  C_23
REMARK    9  A    between atoms: C_28  and  C_29
REMARK                            x       y       z     vdW  Elec       q    Type
REMARK                         _______ _______ _______ _____ _____    ______ ____
ROOT
ATOM      1  N   UNL     1       0.159   0.979  -6.056  0.00  0.00    -0.282 N 
ATOM      2  C   UNL     1       0.493   2.164  -6.706  0.00  0.00    +0.072 A 
ATOM      3  C   UNL     1       0.207   3.498  -6.458  0.00  0.00    +0.028 A 
ATOM      4  C   UNL     1       0.693   4.474  -7.306  0.00  0.00    +0.002 A 
ATOM      5  C   UNL     1       1.463   4.126  -8.403  0.00  0.00    +0.002 A 
ATOM      6  C   UNL     1       1.753   2.800  -8.658  0.00  0.00    +0.030 A 
ATOM      7  C   UNL     1       1.270   1.813  -7.811  0.00  0.00    +0.094 A 
ATOM      8  N   UNL     1       1.385   0.425  -7.798  0.00  0.00    -0.159 N 
ATOM      9  C   UNL     1       0.713  -0.046  -6.731  0.00  0.00    +0.351 A 
ATOM     10  O   UNL     1       0.618  -1.220  -6.425  0.00  0.00    -0.245 OA
ENDROOT
BRANCH   8  11
ATOM     11  S   UNL     1       2.212  -0.489  -8.904  0.00  0.00    +0.089 S 
ATOM     12  O   UNL     1       3.301   0.305  -9.354  0.00  0.00    -0.147 OA
ATOM     13  O   UNL     1       2.395  -1.770  -8.316  0.00  0.00    -0.147 OA
BRANCH  11  14
ATOM     14  C   UNL     1       1.149  -0.719 -10.290  0.00  0.00    +0.114 A 
ATOM     15  C   UNL     1       1.506  -0.210 -11.526  0.00  0.00    +0.029 A 
ATOM     16  C   UNL     1       0.672  -0.390 -12.613  0.00  0.00    +0.002 A 
ATOM     17  C   UNL     1      -0.518  -1.079 -12.466  0.00  0.00    +0.000 A 
ATOM     18  C   UNL     1      -0.874  -1.587 -11.231  0.00  0.00    +0.005 A 
ATOM     19  C   UNL     1      -0.038  -1.411 -10.144  0.00  0.00    -0.024 A 
ATOM     20  C   UNL     1      -0.423  -1.970  -8.799  0.00  0.00    +0.046 C 
ENDBRANCH  11  14
ENDBRANCH   8  11
BRANCH   1  21
ATOM     21  C   UNL     1      -0.651   0.866  -4.840  0.00  0.00    +0.222 C 
BRANCH  21  23
ATOM     22  N   UNL     1      -0.285   0.856  -2.394  0.00  0.00    -0.311 N 
ATOM     23  C   UNL     1       0.245   0.939  -3.631  0.00  0.00    +0.233 C 
ATOM     24  O   UNL     1       1.442   1.071  -3.770  0.00  0.00    -0.274 OA
ATOM     25  H   UNL     1      -1.242   0.750  -2.283  0.00  0.00    +0.149 HD
BRANCH  22  26
ATOM     26  C   UNL     1       0.586   0.927  -1.218  0.00  0.00    +0.070 C 
ATOM     27  C   UNL     1       1.145  -0.464  -0.913  0.00  0.00    +0.028 C 
BRANCH  26  29
ATOM     28  C   UNL     1      -0.671   2.868  -0.272  0.00  0.00    +0.005 C 
ATOM     29  C   UNL     1      -0.218   1.429  -0.017  0.00  0.00    +0.018 C 
ENDBRANCH  26  29
ENDBRANCH  22  26
ENDBRANCH  21  23
ENDBRANCH   1  21
TORSDOF 6
