REMARK  Name = ZINC12973732
REMARK  8 active torsions:
REMARK  status: ('A' for Active; 'I' for Inactive)
REMARK    1  A    between atoms: C_1  and  C_2
REMARK    2  A    between atoms: C_2  and  O_3
REMARK    3  A    between atoms: O_3  and  C_4
REMARK    4  A    between atoms: C_9  and  N_10
REMARK    5  A    between atoms: C_11  and  C_13
REMARK    6  A    between atoms: C_17  and  S_19
REMARK    7  A    between atoms: S_19  and  N_22
REMARK    8  A    between atoms: C_25  and  C_28
REMARK                            x       y       z     vdW  Elec       q    Type
REMARK                         _______ _______ _______ _____ _____    ______ ____
ROOT
ATOM      1  N   UNL     1       3.597   4.691   0.597  0.00  0.00    -0.278 N 
ATOM      2  C   UNL     1       2.909   5.464   1.461  0.00  0.00    +0.248 C 
ATOM      3  O   UNL     1       1.916   5.028   2.010  0.00  0.00    -0.270 OA
ATOM      4  H   UNL     1       4.432   5.009   0.221  0.00  0.00    +0.155 HD
ENDROOT
BRANCH   1  10
ATOM      5  C   UNL     1       3.981   2.440  -0.197  0.00  0.00    +0.142 A 
ATOM      6  C   UNL     1       3.486   1.192  -0.544  0.00  0.00    +0.055 A 
ATOM      7  C   UNL     1       2.135   0.936  -0.453  0.00  0.00    +0.001 A 
ATOM      8  C   UNL     1       1.249   1.917  -0.023  0.00  0.00    +0.126 A 
ATOM      9  C   UNL     1       1.746   3.168   0.328  0.00  0.00    +0.073 A 
ATOM     10  C   UNL     1       3.104   3.429   0.242  0.00  0.00    +0.079 A 
ATOM     11  O   UNL     1      -0.033   1.456  -0.020  0.00  0.00    -0.488 OA
ATOM     12  C   UNL     1      -0.021   0.019  -0.036  0.00  0.00    +0.175 C 
ATOM     13  C   UNL     1       1.314  -0.305  -0.746  0.00  0.00    +0.083 C 
ATOM     14  C   UNL     1      -1.207  -0.524  -0.836  0.00  0.00    +0.052 C 
BRANCH   5  15
ATOM     15  O   UNL     1       5.314   2.696  -0.285  0.00  0.00    -0.490 OA
BRANCH  15  17
ATOM     16  C   UNL     1       7.605   2.105  -0.776  0.00  0.00    +0.048 C 
ATOM     17  C   UNL     1       6.150   1.632  -0.743  0.00  0.00    +0.226 C 
ENDBRANCH  15  17
ENDBRANCH   5  15
ENDBRANCH   1  10
BRANCH   2  18
ATOM     18  C   UNL     1       3.363   6.842   1.742  0.00  0.00    +0.039 A 
ATOM     19  C   UNL     1       4.507   7.344   1.118  0.00  0.00    +0.014 A 
ATOM     20  C   UNL     1       4.923   8.632   1.381  0.00  0.00    +0.023 A 
ATOM     21  C   UNL     1       4.215   9.424   2.269  0.00  0.00    +0.067 A 
ATOM     22  C   UNL     1       3.082   8.930   2.895  0.00  0.00    +0.124 A 
ATOM     23  C   UNL     1       2.653   7.645   2.637  0.00  0.00    +0.043 A 
ATOM     24 CL   UNL     1       4.748  11.043   2.599  0.00  0.00    -0.082 Cl
BRANCH  22  25
ATOM     25  S   UNL     1       2.188   9.945   4.023  0.00  0.00    +0.057 S 
ATOM     26  O   UNL     1       1.986  11.194   3.375  0.00  0.00    -0.153 OA
ATOM     27  O   UNL     1       1.110   9.158   4.511  0.00  0.00    -0.153 OA
BRANCH  25  28
ATOM     28  N   UNL     1       3.183  10.238   5.314  0.00  0.00    -0.203 NA
ATOM     29  H   UNL     1       4.077   9.862   5.332  0.00  0.00    +0.144 HD
ATOM     30  H   UNL     1       2.871  10.784   6.053  0.00  0.00    +0.144 HD
ENDBRANCH  25  28
ENDBRANCH  22  25
ENDBRANCH   2  18
TORSDOF 6
