REMARK  Name = ZINC55851357
REMARK  5 active torsions:
REMARK  status: ('A' for Active; 'I' for Inactive)
REMARK    1  A    between atoms: C_1  and  C_2
REMARK    2  A    between atoms: C_5  and  N_9
REMARK    3  A    between atoms: C_6  and  C_8
REMARK    4  A    between atoms: N_9  and  C_10
REMARK    5  A    between atoms: C_11  and  C_13
REMARK                            x       y       z     vdW  Elec       q    Type
REMARK                         _______ _______ _______ _____ _____    ______ ____
ROOT
ATOM      1  N   UNL     1       0.059  -4.170  -0.021  0.00  0.00    -0.274 N 
ATOM      2  C   UNL     1       1.337  -4.885  -0.032  0.00  0.00    +0.138 C 
ATOM      3  C   UNL     1      -1.100  -4.859  -0.018  0.00  0.00    +0.227 C 
ATOM      4  O   UNL     1      -2.158  -4.267  -0.010  0.00  0.00    -0.275 OA
ENDROOT
BRANCH   3   5
ATOM      5  C   UNL     1      -1.080  -6.366  -0.027  0.00  0.00    +0.116 C 
ATOM      6  C   UNL     1      -0.345  -6.872   1.215  0.00  0.00    +0.113 C 
ATOM      7  C   UNL     1      -1.187  -6.636   2.440  0.00  0.00    +0.218 C 
ATOM      8  O   UNL     1      -0.650  -6.348   3.489  0.00  0.00    -0.275 OA
ATOM      9  N   UNL     1      -2.527  -6.741   2.385  0.00  0.00    -0.285 N 
ATOM     10  C   UNL     1      -3.165  -7.055   1.181  0.00  0.00    +0.037 A 
ATOM     11  C   UNL     1      -2.493  -6.887  -0.023  0.00  0.00    -0.014 A 
ATOM     12  C   UNL     1      -3.122  -7.197  -1.212  0.00  0.00    +0.006 A 
ATOM     13  C   UNL     1      -4.420  -7.675  -1.204  0.00  0.00    +0.000 A 
ATOM     14  C   UNL     1      -5.091  -7.843  -0.007  0.00  0.00    +0.002 A 
ATOM     15  C   UNL     1      -4.468  -7.535   1.186  0.00  0.00    +0.023 A 
ATOM     16  H   UNL     1      -3.054  -6.597   3.187  0.00  0.00    +0.155 HD
ENDBRANCH   3   5
BRANCH   1  21
ATOM     17  C   UNL     1      -0.018   1.503   0.010  0.00  0.00    +0.044 C 
ATOM     18  C   UNL     1       0.002  -0.004   0.002  0.00  0.00    -0.050 A 
ATOM     19  C   UNL     1       0.006  -0.688  -1.200  0.00  0.00    +0.005 A 
ATOM     20  C   UNL     1       0.025  -2.068  -1.211  0.00  0.00    +0.024 A 
ATOM     21  C   UNL     1       0.040  -2.771  -0.013  0.00  0.00    +0.039 A 
ATOM     22  C   UNL     1       0.037  -2.082   1.192  0.00  0.00    -0.029 A 
ATOM     23  C   UNL     1       0.023  -0.700   1.196  0.00  0.00    +0.008 A 
ATOM     24  C   UNL     1       0.054  -2.840   2.494  0.00  0.00    +0.045 C 
ENDBRANCH   1  21
TORSDOF 2
