REMARK  Name = ZINC06589649
REMARK  7 active torsions:
REMARK  status: ('A' for Active; 'I' for Inactive)
REMARK    1  A    between atoms: C_1  and  C_2
REMARK    2  A    between atoms: C_3  and  C_27
REMARK    3  A    between atoms: C_4  and  C_26
REMARK    4  A    between atoms: C_7  and  C_8
REMARK    5  A    between atoms: C_13  and  C_21
REMARK    6  A    between atoms: C_14  and  C_16
REMARK    7  A    between atoms: C_27  and  C_29
REMARK                            x       y       z     vdW  Elec       q    Type
REMARK                         _______ _______ _______ _____ _____    ______ ____
ROOT
ATOM      1  C   UNL     1       1.236   1.372   2.858  0.00  0.00    +0.266 C 
ATOM      2  O   UNL     1       2.018   0.978   2.014  0.00  0.00    -0.268 OA
ATOM      3  N   UNL     1       1.637   1.506   4.138  0.00  0.00    -0.259 N 
ATOM      4  C   UNL     1       2.941   1.194   4.492  0.00  0.00    +0.166 A 
ATOM      5  N   UNL     1       3.518   1.258   5.677  0.00  0.00    -0.221 NA
ATOM      6  C   UNL     1       4.785   0.921   5.851  0.00  0.00    +0.126 A 
ATOM      7  C   UNL     1       5.518   0.489   4.742  0.00  0.00    +0.086 A 
ATOM      8  S   UNL     1       4.273   0.595   3.463  0.00  0.00    -0.048 S 
ATOM      9  H   UNL     1       1.013   1.821   4.811  0.00  0.00    +0.157 HD
ENDROOT
BRANCH   1  16
ATOM     10  C   UNL     1       0.043   1.158  -0.015  0.00  0.00    +0.047 C 
ATOM     11  C   UNL     1      -0.674   1.611   1.231  0.00  0.00    -0.010 A 
ATOM     12  C   UNL     1      -2.024   2.028   1.322  0.00  0.00    +0.041 A 
ATOM     13  C   UNL     1      -2.260   2.352   2.649  0.00  0.00    +0.024 A 
ATOM     14  N   UNL     1      -1.126   2.156   3.339  0.00  0.00    -0.354 N 
ATOM     15  H   UNL     1      -1.014   2.310   4.290  0.00  0.00    +0.166 HD
ATOM     16  C   UNL     1      -0.145   1.702   2.484  0.00  0.00    +0.106 A 
ATOM     17  C   UNL     1      -3.565   2.845   3.219  0.00  0.00    +0.064 C 
BRANCH  12  18
ATOM     18  C   UNL     1      -2.990   2.102   0.221  0.00  0.00    +0.162 C 
ATOM     19  O   UNL     1      -3.670   1.136  -0.055  0.00  0.00    -0.292 OA
ATOM     20  C   UNL     1      -3.138   3.378  -0.567  0.00  0.00    +0.091 C 
ENDBRANCH  12  18
ENDBRANCH   1  16
BRANCH   7  21
ATOM     21  C   UNL     1       6.919   0.062   4.653  0.00  0.00    +0.144 A 
ATOM     22  C   UNL     1       7.560  -0.354   3.522  0.00  0.00    +0.050 A 
ATOM     23  C   UNL     1       8.883  -0.661   3.896  0.00  0.00    +0.042 A 
ATOM     24  C   UNL     1       8.984  -0.431   5.220  0.00  0.00    +0.196 A 
ATOM     25  O   UNL     1       7.796   0.005   5.675  0.00  0.00    -0.462 OA
ENDBRANCH   7  21
BRANCH   6  26
ATOM     26  C   UNL     1       5.410   1.000   7.183  0.00  0.00    +0.154 A 
ATOM     27  C   UNL     1       5.146   1.935   8.137  0.00  0.00    +0.051 A 
ATOM     28  C   UNL     1       5.964   1.630   9.242  0.00  0.00    +0.042 A 
ATOM     29  C   UNL     1       6.680   0.537   8.915  0.00  0.00    +0.196 A 
ATOM     30  O   UNL     1       6.339   0.155   7.672  0.00  0.00    -0.461 OA
ENDBRANCH   6  26
TORSDOF 4
