REMARK  Name = ZINC49122173
REMARK  5 active torsions:
REMARK  status: ('A' for Active; 'I' for Inactive)
REMARK    1  A    between atoms: C_1  and  C_2
REMARK    2  A    between atoms: C_2  and  C_3
REMARK    3  A    between atoms: C_9  and  N_11
REMARK    4  A    between atoms: C_12  and  C_16
REMARK    5  A    between atoms: C_20  and  N_22
REMARK                            x       y       z     vdW  Elec       q    Type
REMARK                         _______ _______ _______ _____ _____    ______ ____
ROOT
ATOM      1  N   UNL     1       1.147  -2.330  -0.191  0.00  0.00    -0.222 N 
ATOM      2  C   UNL     1       0.704  -3.462  -0.791  0.00  0.00    +0.182 A 
ATOM      3  N   UNL     1       1.728  -3.983  -1.435  0.00  0.00    -0.108 NA
ATOM      4  N   UNL     1       2.774  -3.255  -1.279  0.00  0.00    -0.023 NA
ATOM      5  N   UNL     1       2.504  -2.232  -0.543  0.00  0.00    -0.043 NA
ENDROOT
BRANCH   2   6
ATOM      6  C   UNL     1      -0.669  -4.011  -0.732  0.00  0.00    +0.022 A 
ATOM      7  C   UNL     1      -1.450  -3.820   0.409  0.00  0.00    +0.013 A 
ATOM      8  C   UNL     1      -2.731  -4.331   0.462  0.00  0.00    +0.018 A 
ATOM      9  C   UNL     1      -3.245  -5.034  -0.613  0.00  0.00    +0.039 A 
ATOM     10  C   UNL     1      -2.474  -5.229  -1.754  0.00  0.00    +0.039 A 
ATOM     11  C   UNL     1      -1.188  -4.714  -1.817  0.00  0.00    +0.035 A 
ATOM     12 BR   UNL     1      -5.001  -5.731  -0.531  0.00  0.00    -0.048 Br
BRANCH  10  13
ATOM     13  N   UNL     1      -2.997  -5.940  -2.837  0.00  0.00    -0.357 N 
ATOM     14  H   UNL     1      -3.897  -6.297  -2.794  0.00  0.00    +0.142 HD
ATOM     15  H   UNL     1      -2.459  -6.076  -3.633  0.00  0.00    +0.142 HD
ENDBRANCH  10  13
ENDBRANCH   2   6
BRANCH   1  21
ATOM     16  C   UNL     1       0.504   0.014   0.081  0.00  0.00    +0.013 C 
ATOM     17  C   UNL     1       1.976   0.432   0.085  0.00  0.00    +0.005 C 
ATOM     18  C   UNL     1       2.511   0.399   1.518  0.00  0.00    +0.000 C 
ATOM     19  C   UNL     1       2.382  -1.019   2.078  0.00  0.00    +0.002 C 
ATOM     20  C   UNL     1       0.910  -1.437   2.074  0.00  0.00    +0.027 C 
ATOM     21  C   UNL     1       0.374  -1.403   0.641  0.00  0.00    +0.114 C 
BRANCH  16  23
ATOM     22  C   UNL     1      -0.018   1.487  -1.869  0.00  0.00    +0.004 C 
ATOM     23  C   UNL     1      -0.032   0.047  -1.352  0.00  0.00    +0.002 C 
ENDBRANCH  16  23
ENDBRANCH   1  21
TORSDOF 4
