REMARK  Name = ZINC01786630
REMARK  3 active torsions:
REMARK  status: ('A' for Active; 'I' for Inactive)
REMARK    1  A    between atoms: C_3  and  N_23
REMARK    2  A    between atoms: C_6  and  C_7
REMARK    3  A    between atoms: N_8  and  N_9
REMARK                            x       y       z     vdW  Elec       q    Type
REMARK                         _______ _______ _______ _____ _____    ______ ____
ROOT
ATOM      1  N   UNL     1      -0.159   4.203   0.065  0.00  0.00    -0.185 N 
ATOM      2  C   UNL     1       1.009   3.541  -0.152  0.00  0.00    +0.227 A 
ATOM      3  N   UNL     1       2.152   4.173  -0.166  0.00  0.00    -0.228 NA
ATOM      4  C   UNL     1       2.209   5.487   0.033  0.00  0.00    +0.116 A 
ATOM      5  C   UNL     1       1.057   6.255   0.265  0.00  0.00    +0.077 A 
ATOM      6  C   UNL     1      -0.181   5.534   0.269  0.00  0.00    +0.283 A 
ATOM      7  O   UNL     1      -1.236   6.114   0.456  0.00  0.00    -0.265 OA
ATOM      8  C   UNL     1       1.273   7.687   0.468  0.00  0.00    -0.023 A 
ATOM      9  C   UNL     1       2.548   8.128   0.412  0.00  0.00    -0.004 A 
ATOM     10  S   UNL     1       3.520   6.681   0.091  0.00  0.00    -0.073 S 
ATOM     11  C   UNL     1       3.029   9.536   0.585  0.00  0.00    +0.043 C 
ATOM     12  C   UNL     1       1.823  10.479   0.469  0.00  0.00    +0.005 C 
ATOM     13  C   UNL     1       0.690   9.937   1.346  0.00  0.00    +0.005 C 
ATOM     14  C   UNL     1       0.124   8.657   0.732  0.00  0.00    +0.037 C 
ENDROOT
BRANCH   1  16
ATOM     15  C   UNL     1      -1.553   2.543   0.940  0.00  0.00    +0.141 C 
ATOM     16  N   UNL     1      -1.363   3.488   0.071  0.00  0.00    -0.170 NA
BRANCH  15  22
ATOM     17  C   UNL     1      -0.754   1.319   2.956  0.00  0.00    +0.012 A 
ATOM     18  C   UNL     1       0.079   1.221   4.051  0.00  0.00    +0.033 A 
ATOM     19  C   UNL     1       1.004   2.216   4.312  0.00  0.00    +0.126 A 
ATOM     20  C   UNL     1       1.102   3.315   3.477  0.00  0.00    +0.033 A 
ATOM     21  C   UNL     1       0.276   3.427   2.379  0.00  0.00    +0.012 A 
ATOM     22  C   UNL     1      -0.662   2.427   2.109  0.00  0.00    -0.005 A 
BRANCH  19  23
ATOM     23  N   UNL     1       1.895   2.103   5.489  0.00  0.00    +0.056 N 
ATOM     24  O   UNL     1       2.710   2.977   5.722  0.00  0.00    -0.126 OA
ATOM     25  O   UNL     1       1.811   1.136   6.225  0.00  0.00    -0.126 OA
ENDBRANCH  19  23
ENDBRANCH  15  22
ENDBRANCH   1  16
TORSDOF 3
