REMARK  Name = ZINC65423729
REMARK  5 active torsions:
REMARK  status: ('A' for Active; 'I' for Inactive)
REMARK    1  A    between atoms: C_1  and  C_2
REMARK    2  A    between atoms: C_2  and  C_3
REMARK    3  A    between atoms: C_2  and  C_4
REMARK    4  A    between atoms: C_2  and  C_10
REMARK    5  A    between atoms: N_20  and  C_21
REMARK                            x       y       z     vdW  Elec       q    Type
REMARK                         _______ _______ _______ _____ _____    ______ ____
ROOT
ATOM      1  C   UNL     1       1.585  -0.586  -0.861  0.00  0.00    +0.226 C 
ATOM      2  O   UNL     1       1.444  -1.582  -1.540  0.00  0.00    -0.275 OA
ATOM      3  N   UNL     1       2.815  -0.221  -0.448  0.00  0.00    -0.298 N 
ATOM      4  C   UNL     1       2.990   0.916   0.466  0.00  0.00    +0.127 C 
ATOM      5  C   UNL     1       3.773   0.441   1.696  0.00  0.00    +0.128 C 
ATOM      6  N   UNL     1       4.963  -0.292   1.241  0.00  0.00    -0.282 N 
ATOM      7  C   UNL     1       4.788  -1.429   0.327  0.00  0.00    +0.128 C 
ATOM      8  C   UNL     1       4.005  -0.957  -0.898  0.00  0.00    +0.127 C 
ATOM      9  C   UNL     1       6.193   0.073   1.654  0.00  0.00    +0.307 C 
ATOM     10  O   UNL     1       6.319   0.954   2.483  0.00  0.00    -0.252 OA
ATOM     11  N   UNL     1       7.282  -0.537   1.148  0.00  0.00    -0.267 N 
ATOM     12  H   UNL     1       7.187  -1.182   0.429  0.00  0.00    +0.156 HD
ENDROOT
BRANCH  11  13
ATOM     13  C   UNL     1       8.552  -0.242   1.661  0.00  0.00    +0.073 A 
ATOM     14  C   UNL     1       8.677   0.362   2.905  0.00  0.00    +0.026 A 
ATOM     15  C   UNL     1       9.930   0.653   3.409  0.00  0.00    +0.005 A 
ATOM     16  C   UNL     1      11.061   0.344   2.676  0.00  0.00    +0.041 A 
ATOM     17  C   UNL     1      10.943  -0.257   1.435  0.00  0.00    +0.160 A 
ATOM     18  C   UNL     1       9.690  -0.557   0.927  0.00  0.00    +0.179 A 
ATOM     19  F   UNL     1       9.573  -1.150  -0.281  0.00  0.00    -0.201 F 
ATOM     20  F   UNL     1      12.050  -0.557   0.721  0.00  0.00    -0.202 F 
ENDBRANCH  11  13
BRANCH   1  22
ATOM     21  C   UNL     1      -0.863  -0.328  -1.156  0.00  0.00    +0.025 C 
ATOM     22  C   UNL     1       0.385   0.242  -0.480  0.00  0.00    +0.066 C 
ATOM     23  C   UNL     1       0.598   1.687  -0.936  0.00  0.00    +0.025 C 
BRANCH  22  24
ATOM     24  C   UNL     1       0.206   0.209   1.016  0.00  0.00    -0.033 A 
ATOM     25  C   UNL     1       0.977  -0.643   1.785  0.00  0.00    +0.004 A 
ATOM     26  C   UNL     1       0.813  -0.674   3.158  0.00  0.00    +0.000 A 
ATOM     27  C   UNL     1      -0.121   0.147   3.760  0.00  0.00    +0.000 A 
ATOM     28  C   UNL     1      -0.891   1.000   2.991  0.00  0.00    +0.000 A 
ATOM     29  C   UNL     1      -0.724   1.034   1.619  0.00  0.00    +0.004 A 
ENDBRANCH  22  24
ENDBRANCH   1  22
TORSDOF 3
