REMARK  Name = ZINC09522319
REMARK  7 active torsions:
REMARK  status: ('A' for Active; 'I' for Inactive)
REMARK    1  A    between atoms: C_1  and  C_2
REMARK    2  A    between atoms: C_7  and  N_8
REMARK    3  A    between atoms: C_13  and  O_26
REMARK    4  A    between atoms: C_15  and  S_17
REMARK    5  A    between atoms: S_17  and  C_18
REMARK    6  A    between atoms: C_18  and  C_19
REMARK    7  A    between atoms: C_19  and  C_20
REMARK                            x       y       z     vdW  Elec       q    Type
REMARK                         _______ _______ _______ _____ _____    ______ ____
ROOT
ATOM      1  N   UNL     1      10.376  -0.352  -4.562  0.00  0.00    -0.214 N 
ATOM      2  C   UNL     1       9.266  -0.451  -3.771  0.00  0.00    +0.171 A 
ATOM      3  C   UNL     1       9.610   0.115  -2.527  0.00  0.00    +0.100 A 
ATOM      4  C   UNL     1      10.952   0.543  -2.624  0.00  0.00    +0.150 A 
ATOM      5  N   UNL     1      11.390   0.264  -3.819  0.00  0.00    -0.172 NA
ATOM      6  C   UNL     1       8.635   0.143  -1.513  0.00  0.00    +0.227 A 
ATOM      7  N   UNL     1       7.438  -0.362  -1.771  0.00  0.00    -0.187 NA
ATOM      8  C   UNL     1       7.154  -0.887  -2.958  0.00  0.00    +0.193 A 
ATOM      9  N   UNL     1       8.040  -0.940  -3.939  0.00  0.00    -0.202 NA
ENDROOT
BRANCH   1  16
ATOM     10  C   UNL     1      12.748   0.275  -6.004  0.00  0.00    +0.046 C 
ATOM     11  C   UNL     1      11.621  -0.508  -6.627  0.00  0.00    -0.025 A 
ATOM     12  C   UNL     1      11.724  -0.948  -7.932  0.00  0.00    +0.005 A 
ATOM     13  C   UNL     1      10.688  -1.660  -8.507  0.00  0.00    +0.000 A 
ATOM     14  C   UNL     1       9.548  -1.940  -7.775  0.00  0.00    +0.002 A 
ATOM     15  C   UNL     1       9.442  -1.508  -6.468  0.00  0.00    +0.028 A 
ATOM     16  C   UNL     1      10.481  -0.792  -5.888  0.00  0.00    +0.071 A 
ENDBRANCH   1  16
BRANCH   6  17
ATOM     17  O   UNL     1       8.915   0.675  -0.300  0.00  0.00    -0.492 OA
ATOM     18  H   UNL     1       9.269   0.039   0.337  0.00  0.00    +0.294 HD
ENDBRANCH   6  17
BRANCH   8  19
ATOM     19  S   UNL     1       5.542  -1.542  -3.234  0.00  0.00    -0.086 S 
BRANCH  19  20
ATOM     20  C   UNL     1       4.792  -1.220  -1.619  0.00  0.00    +0.082 C 
BRANCH  20  21
ATOM     21  C   UNL     1       3.345  -1.720  -1.620  0.00  0.00    +0.072 C 
BRANCH  21  22
ATOM     22  C   UNL     1       2.711  -1.448  -0.254  0.00  0.00    +0.251 C 
ATOM     23  O   UNL     1       1.400  -2.017  -0.216  0.00  0.00    -0.351 OA
ATOM     24  C   UNL     1       0.709  -1.792   1.017  0.00  0.00    +0.165 C 
ATOM     25  C   UNL     1       0.609  -0.283   1.263  0.00  0.00    +0.056 C 
ATOM     26  C   UNL     1       2.016   0.323   1.203  0.00  0.00    +0.165 C 
ATOM     27  O   UNL     1       2.624  -0.036  -0.042  0.00  0.00    -0.351 OA
ENDBRANCH  21  22
ENDBRANCH  20  21
ENDBRANCH  19  20
ENDBRANCH   8  19
TORSDOF 6
