REMARK  Name = ZINC04865533
REMARK  4 active torsions:
REMARK  status: ('A' for Active; 'I' for Inactive)
REMARK    1  A    between atoms: C_1  and  C_2
REMARK    2  A    between atoms: N_4  and  C_5
REMARK    3  A    between atoms: C_8  and  C_14
REMARK    4  A    between atoms: C_10  and  N_11
REMARK                            x       y       z     vdW  Elec       q    Type
REMARK                         _______ _______ _______ _____ _____    ______ ____
ROOT
ATOM      1  C   UNL     1      -2.364   1.109  -0.075  0.00  0.00    +0.064 A 
ATOM      2  C   UNL     1      -2.298  -0.278  -0.075  0.00  0.00    +0.026 A 
ATOM      3  C   UNL     1      -3.458  -1.022  -0.164  0.00  0.00    +0.006 A 
ATOM      4  C   UNL     1      -4.684  -0.388  -0.252  0.00  0.00    -0.039 A 
ATOM      5  C   UNL     1      -4.752   0.993  -0.253  0.00  0.00    +0.038 A 
ATOM      6  C   UNL     1      -3.596   1.744  -0.158  0.00  0.00    +0.148 A 
ENDROOT
BRANCH   4   7
ATOM      7  C   UNL     1      -5.947  -1.203  -0.349  0.00  0.00    -0.003 C 
ATOM      8  C   UNL     1      -6.672  -0.868  -1.654  0.00  0.00    +0.015 C 
ATOM      9  C   UNL     1      -7.955  -1.696  -1.752  0.00  0.00    -0.010 C 
ATOM     10  C   UNL     1      -7.604  -3.185  -1.732  0.00  0.00    +0.007 C 
ATOM     11  C   UNL     1      -6.879  -3.520  -0.427  0.00  0.00    -0.010 C 
ATOM     12  C   UNL     1      -5.596  -2.692  -0.328  0.00  0.00    +0.015 C 
ATOM     13  C   UNL     1      -7.789  -3.194   0.760  0.00  0.00    +0.007 C 
ATOM     14  C   UNL     1      -8.140  -1.705   0.739  0.00  0.00    -0.010 C 
ATOM     15  C   UNL     1      -8.864  -1.370  -0.566  0.00  0.00    +0.007 C 
ATOM     16  C   UNL     1      -6.857  -0.877   0.837  0.00  0.00    +0.015 C 
ENDBRANCH   4   7
BRANCH   1  20
ATOM     17  C   UNL     1       1.207   2.104   0.575  0.00  0.00    +0.109 C 
ATOM     18  C   UNL     1      -0.092   1.342   0.594  0.00  0.00    +0.214 C 
ATOM     19  O   UNL     1      -0.149   0.253   1.126  0.00  0.00    -0.276 OA
ATOM     20  N   UNL     1      -1.190   1.867   0.015  0.00  0.00    -0.284 N 
ATOM     21  H   UNL     1      -1.167   2.769  -0.340  0.00  0.00    +0.155 HD
ENDBRANCH   1  20
BRANCH   6  22
ATOM     22  N   UNL     1      -3.671   3.222  -0.152  0.00  0.00    +0.058 N 
ATOM     23  O   UNL     1      -4.755   3.777  -0.134  0.00  0.00    -0.126 OA
ATOM     24  O   UNL     1      -2.648   3.883  -0.164  0.00  0.00    -0.126 OA
ENDBRANCH   6  22
TORSDOF 3
