REMARK  Name = ZINC35399709
REMARK  8 active torsions:
REMARK  status: ('A' for Active; 'I' for Inactive)
REMARK    1  A    between atoms: C_1  and  C_2
REMARK    2  A    between atoms: C_7  and  N_8
REMARK    3  A    between atoms: C_9  and  C_11
REMARK    4  A    between atoms: C_11  and  N_12
REMARK    5  A    between atoms: N_23  and  C_26
REMARK    6  A    between atoms: C_26  and  C_27
REMARK    7  A    between atoms: C_30  and  O_33
REMARK    8  A    between atoms: O_33  and  C_34
REMARK                            x       y       z     vdW  Elec       q    Type
REMARK                         _______ _______ _______ _____ _____    ______ ____
ROOT
ATOM      1  N   UNL     1      -0.241  -0.905   5.988  0.00  0.00    -0.325 N 
ATOM      2  C   UNL     1      -1.407  -1.440   6.493  0.00  0.00    +0.052 A 
ATOM      3  C   UNL     1      -2.747  -1.267   6.156  0.00  0.00    +0.026 A 
ATOM      4  C   UNL     1      -3.723  -1.948   6.849  0.00  0.00    +0.002 A 
ATOM      5  C   UNL     1      -3.385  -2.810   7.883  0.00  0.00    +0.001 A 
ATOM      6  C   UNL     1      -2.076  -2.994   8.231  0.00  0.00    +0.012 A 
ATOM      7  C   UNL     1      -1.071  -2.314   7.542  0.00  0.00    +0.026 A 
ATOM      8  C   UNL     1       0.393  -2.285   7.655  0.00  0.00    +0.103 A 
ATOM      9  C   UNL     1       0.848  -1.408   6.674  0.00  0.00    +0.134 A 
ATOM     10  C   UNL     1       2.242  -1.196   6.559  0.00  0.00    +0.278 A 
ATOM     11  O   UNL     1       2.691  -0.435   5.718  0.00  0.00    -0.265 OA
ATOM     12  N   UNL     1       3.064  -1.857   7.403  0.00  0.00    -0.293 N 
ATOM     13  C   UNL     1       2.557  -2.701   8.336  0.00  0.00    +0.203 A 
ATOM     14  N   UNL     1       1.276  -2.902   8.461  0.00  0.00    -0.235 NA
ENDROOT
BRANCH   1  15
ATOM     15  C   UNL     1      -0.168   0.052   4.882  0.00  0.00    +0.218 C 
BRANCH  15  17
ATOM     16  N   UNL     1       0.025  -0.015   2.417  0.00  0.00    -0.284 N 
ATOM     17  C   UNL     1      -0.056  -0.694   3.578  0.00  0.00    +0.237 C 
ATOM     18  O   UNL     1      -0.040  -1.907   3.573  0.00  0.00    -0.274 OA
ATOM     19  H   UNL     1       0.078   0.954   2.425  0.00  0.00    +0.155 HD
BRANCH  16  26
ATOM     20  C   UNL     1      -1.264   1.184   0.181  0.00  0.00    +0.045 C 
ATOM     21  C   UNL     1      -0.584  -0.158   0.084  0.00  0.00    -0.029 A 
ATOM     22  C   UNL     1      -0.568  -0.840  -1.117  0.00  0.00    +0.005 A 
ATOM     23  C   UNL     1       0.055  -2.071  -1.206  0.00  0.00    +0.000 A 
ATOM     24  C   UNL     1       0.666  -2.622  -0.095  0.00  0.00    +0.002 A 
ATOM     25  C   UNL     1       0.655  -1.945   1.108  0.00  0.00    +0.023 A 
ATOM     26  C   UNL     1       0.034  -0.706   1.201  0.00  0.00    +0.036 A 
ENDBRANCH  16  26
ENDBRANCH  15  17
ENDBRANCH   1  15
BRANCH  12  27
ATOM     27  C   UNL     1       4.513  -1.660   7.310  0.00  0.00    +0.161 C 
BRANCH  27  28
ATOM     28  C   UNL     1       4.923  -0.518   8.203  0.00  0.00    -0.027 A 
ATOM     29  C   UNL     1       4.943   0.773   7.707  0.00  0.00    +0.009 A 
ATOM     30  C   UNL     1       5.320   1.822   8.524  0.00  0.00    +0.046 A 
ATOM     31  C   UNL     1       5.677   1.579   9.842  0.00  0.00    +0.120 A 
ATOM     32  C   UNL     1       5.656   0.283  10.337  0.00  0.00    +0.046 A 
ATOM     33  C   UNL     1       5.274  -0.761   9.518  0.00  0.00    +0.009 A 
BRANCH  31  34
ATOM     34  O   UNL     1       6.048   2.609  10.647  0.00  0.00    -0.495 OA
ATOM     35  C   UNL     1       6.403   2.285  11.993  0.00  0.00    +0.277 C 
ENDBRANCH  31  34
ENDBRANCH  27  28
ENDBRANCH  12  27
TORSDOF 6
