REMARK  Name = ZINC63162350
REMARK  8 active torsions:
REMARK  status: ('A' for Active; 'I' for Inactive)
REMARK    1  A    between atoms: C_1  and  C_2
REMARK    2  A    between atoms: C_5  and  C_8
REMARK    3  A    between atoms: C_8  and  S_9
REMARK    4  A    between atoms: S_9  and  C_10
REMARK    5  A    between atoms: C_10  and  C_11
REMARK    6  A    between atoms: C_11  and  N_12
REMARK    7  A    between atoms: N_15  and  C_16
REMARK    8  A    between atoms: C_18  and  C_24
REMARK                            x       y       z     vdW  Elec       q    Type
REMARK                         _______ _______ _______ _____ _____    ______ ____
ROOT
ATOM      1  N   UNL     1       2.920  -8.753   0.108  0.00  0.00    -0.298 N 
ATOM      2  C   UNL     1       4.019  -9.533   0.098  0.00  0.00    +0.304 C 
ATOM      3  O   UNL     1       5.118  -9.036   0.249  0.00  0.00    -0.253 OA
ATOM      4  N   UNL     1       3.899 -10.864  -0.079  0.00  0.00    -0.265 N 
ATOM      5  H   UNL     1       2.042  -9.149  -0.013  0.00  0.00    +0.150 HD
ATOM      6  H   UNL     1       3.019 -11.270  -0.125  0.00  0.00    +0.157 HD
ENDROOT
BRANCH   4   7
ATOM      7  C   UNL     1       5.046 -11.662  -0.195  0.00  0.00    +0.100 A 
ATOM      8  C   UNL     1       5.265 -12.691   0.679  0.00  0.00    +0.042 A 
ATOM      9  C   UNL     1       6.420 -13.473   0.540  0.00  0.00    +0.073 A 
ATOM     10  C   UNL     1       7.303 -13.208  -0.450  0.00  0.00    +0.098 A 
ATOM     11  N   UNL     1       7.087 -12.185  -1.320  0.00  0.00    -0.327 N 
ATOM     12  H   UNL     1       7.731 -12.010  -2.023  0.00  0.00    +0.168 HD
ATOM     13  C   UNL     1       5.985 -11.416  -1.220  0.00  0.00    +0.270 A 
ATOM     14  O   UNL     1       5.802 -10.506  -2.011  0.00  0.00    -0.266 OA
BRANCH   9  15
ATOM     15  C   UNL     1       6.679 -14.611   1.494  0.00  0.00    +0.419 C 
ATOM     16  F   UNL     1       7.883 -15.238   1.157  0.00  0.00    -0.166 F 
ATOM     17  F   UNL     1       6.762 -14.114   2.800  0.00  0.00    -0.166 F 
ATOM     18  F   UNL     1       5.632 -15.535   1.413  0.00  0.00    -0.166 F 
ENDBRANCH   9  15
ENDBRANCH   4   7
BRANCH   1  19
ATOM     19  C   UNL     1       3.050  -7.306   0.300  0.00  0.00    +0.116 C 
BRANCH  19  20
ATOM     20  C   UNL     1       1.663  -6.661   0.269  0.00  0.00    +0.088 C 
BRANCH  20  21
ATOM     21  S   UNL     1       1.824  -4.870   0.507  0.00  0.00    -0.155 S 
BRANCH  21  22
ATOM     22  C   UNL     1       0.116  -4.263   0.445  0.00  0.00    +0.104 C 
BRANCH  22  27
ATOM     23  C   UNL     1       0.077   1.471   1.162  0.00  0.00    +0.044 C 
ATOM     24  C   UNL     1       0.087  -0.025   0.975  0.00  0.00    -0.050 A 
ATOM     25  C   UNL     1       0.189  -0.562  -0.294  0.00  0.00    +0.003 A 
ATOM     26  C   UNL     1       0.198  -1.933  -0.466  0.00  0.00    +0.005 A 
ATOM     27  C   UNL     1       0.107  -2.768   0.632  0.00  0.00    -0.038 A 
ATOM     28  C   UNL     1       0.006  -2.231   1.902  0.00  0.00    +0.005 A 
ATOM     29  C   UNL     1       0.001  -0.859   2.074  0.00  0.00    +0.003 A 
ENDBRANCH  22  27
ENDBRANCH  21  22
ENDBRANCH  20  21
ENDBRANCH  19  20
ENDBRANCH   1  19
TORSDOF 7
