REMARK  Name = ZINC13298547
REMARK  7 active torsions:
REMARK  status: ('A' for Active; 'I' for Inactive)
REMARK    1  A    between atoms: C_1  and  C_2
REMARK    2  A    between atoms: C_2  and  O_4
REMARK    3  A    between atoms: O_4  and  C_5
REMARK    4  A    between atoms: C_9  and  O_23
REMARK    5  A    between atoms: C_11  and  C_22
REMARK    6  A    between atoms: C_19  and  C_20
REMARK    7  A    between atoms: C_19  and  C_21
REMARK                            x       y       z     vdW  Elec       q    Type
REMARK                         _______ _______ _______ _____ _____    ______ ____
ROOT
ATOM      1  C   UNL     1      -2.209   1.738  -1.221  0.00  0.00    +0.182 C 
ATOM      2  C   UNL     1      -0.703   1.604  -1.242  0.00  0.00    +0.048 C 
ATOM      3  C   UNL     1      -0.013   1.105   0.008  0.00  0.00    +0.038 C 
ATOM      4  C   UNL     1      -0.680   1.587   1.304  0.00  0.00    +0.070 C 
ATOM      5  C   UNL     1      -2.125   1.143   1.258  0.00  0.00    +0.045 C 
ATOM      6  C   UNL     1      -2.891   1.802   0.113  0.00  0.00    +0.008 C 
ATOM      7  C   UNL     1      -3.477   3.145   0.543  0.00  0.00    +0.010 C 
ATOM      8  C   UNL     1      -2.530   4.344   0.448  0.00  0.00    +0.005 C 
ATOM      9  C   UNL     1      -1.085   3.948   0.345  0.00  0.00    +0.001 C 
ATOM     10  C   UNL     1      -0.542   3.073   1.444  0.00  0.00    +0.025 C 
ATOM     11  C   UNL     1       0.814   3.723   1.177  0.00  0.00    +0.013 C 
ATOM     12  C   UNL     1      -0.001   4.960   0.722  0.00  0.00    -0.031 C 
ATOM     13  C   UNL     1       0.613   5.674  -0.489  0.00  0.00    +0.011 C 
ATOM     14  C   UNL     1      -0.351   5.919   1.856  0.00  0.00    +0.011 C 
ATOM     15  C   UNL     1      -4.135   0.900  -0.066  0.00  0.00    +0.015 C 
ENDROOT
BRANCH   4  16
ATOM     16  O   UNL     1      -0.044   0.953   2.440  0.00  0.00    -0.388 OA
ATOM     17  H   UNL     1      -0.099  -0.012   2.433  0.00  0.00    +0.210 HD
ENDBRANCH   4  16
BRANCH   1  18
ATOM     18  O   UNL     1      -2.600   2.895  -2.010  0.00  0.00    -0.461 OA
BRANCH  18  20
ATOM     19  C   UNL     1      -3.249   3.842  -4.196  0.00  0.00    +0.136 C 
ATOM     20  C   UNL     1      -2.839   2.690  -3.315  0.00  0.00    +0.304 C 
ATOM     21  O   UNL     1      -2.725   1.582  -3.783  0.00  0.00    -0.251 OA
ENDBRANCH  18  20
ENDBRANCH   1  18
TORSDOF 3
