REMARK  Name = ZINC48708202
REMARK  6 active torsions:
REMARK  status: ('A' for Active; 'I' for Inactive)
REMARK    1  A    between atoms: C_1  and  C_2
REMARK    2  A    between atoms: C_5  and  S_13
REMARK    3  A    between atoms: N_6  and  C_7
REMARK    4  A    between atoms: S_13  and  C_16
REMARK    5  A    between atoms: C_16  and  C_18
REMARK    6  A    between atoms: C_16  and  C_19
REMARK                            x       y       z     vdW  Elec       q    Type
REMARK                         _______ _______ _______ _____ _____    ______ ____
ROOT
ATOM      1  C   UNL     1       0.045   1.503   0.004  0.00  0.00    +0.088 C 
ATOM      2  C   UNL     1       0.029  -0.004  -0.001  0.00  0.00    +0.132 A 
ATOM      3  N   UNL     1      -0.067  -0.773  -1.051  0.00  0.00    -0.133 NA
ATOM      4  N   UNL     1      -0.048  -2.006  -0.687  0.00  0.00    -0.110 NA
ATOM      5  C   UNL     1       0.061  -2.080   0.612  0.00  0.00    +0.273 A 
ATOM      6  N   UNL     1       0.118  -0.811   1.084  0.00  0.00    -0.294 N 
ENDROOT
BRANCH   6   7
ATOM      7  C   UNL     1       0.248  -0.397   2.483  0.00  0.00    +0.092 C 
ATOM      8  C   UNL     1      -1.034   0.313   2.925  0.00  0.00    +0.025 C 
ATOM      9  C   UNL     1      -0.899   0.746   4.386  0.00  0.00    +0.002 C 
ATOM     10  C   UNL     1       0.288   1.701   4.528  0.00  0.00    +0.000 C 
ATOM     11  C   UNL     1       1.569   0.991   4.086  0.00  0.00    +0.002 C 
ATOM     12  C   UNL     1       1.435   0.558   2.625  0.00  0.00    +0.025 C 
ENDBRANCH   6   7
BRANCH   5  13
ATOM     13  S   UNL     1       0.128  -3.556   1.572  0.00  0.00    +0.043 S 
ATOM     14  O   UNL     1      -0.365  -3.180   2.850  0.00  0.00    -0.166 OA
ATOM     15  O   UNL     1      -0.552  -4.529   0.790  0.00  0.00    -0.166 OA
BRANCH  13  16
ATOM     16  C   UNL     1       1.893  -3.963   1.678  0.00  0.00    +0.221 C 
ATOM     17  C   UNL     1       2.481  -4.055   0.269  0.00  0.00    +0.042 C 
BRANCH  16  18
ATOM     18  C   UNL     1       2.062  -5.285   2.381  0.00  0.00    +0.235 C 
ATOM     19  O   UNL     1       1.161  -6.097   2.370  0.00  0.00    -0.274 OA
ATOM     20  N   UNL     1       3.215  -5.567   3.020  0.00  0.00    -0.328 N 
ATOM     21  H   UNL     1       3.936  -4.918   3.028  0.00  0.00    +0.145 HD
ATOM     22  H   UNL     1       3.323  -6.418   3.472  0.00  0.00    +0.145 HD
ENDBRANCH  16  18
ENDBRANCH  13  16
ENDBRANCH   5  13
TORSDOF 4
