REMARK  Name = ZINC38695399
REMARK  5 active torsions:
REMARK  status: ('A' for Active; 'I' for Inactive)
REMARK    1  A    between atoms: C_1  and  C_2
REMARK    2  A    between atoms: C_5  and  N_25
REMARK    3  A    between atoms: C_7  and  N_8
REMARK    4  A    between atoms: C_9  and  C_11
REMARK    5  A    between atoms: N_16  and  C_18
REMARK                            x       y       z     vdW  Elec       q    Type
REMARK                         _______ _______ _______ _____ _____    ______ ____
ROOT
ATOM      1  N   UNL     1      -0.001  -0.003   2.407  0.00  0.00    -0.285 N 
ATOM      2  C   UNL     1      -0.077  -0.686   3.567  0.00  0.00    +0.222 C 
ATOM      3  O   UNL     1      -0.068  -1.898   3.558  0.00  0.00    -0.275 OA
ATOM      4  H   UNL     1       0.056   0.965   2.417  0.00  0.00    +0.155 HD
ENDROOT
BRANCH   1  11
ATOM      5  C   UNL     1      -1.300   1.209   0.186  0.00  0.00    +0.045 C 
ATOM      6  C   UNL     1      -0.627  -0.136   0.078  0.00  0.00    -0.029 A 
ATOM      7  C   UNL     1      -0.626  -0.812  -1.127  0.00  0.00    +0.007 A 
ATOM      8  C   UNL     1      -0.011  -2.044  -1.230  0.00  0.00    +0.025 A 
ATOM      9  C   UNL     1       0.610  -2.608  -0.121  0.00  0.00    +0.053 A 
ATOM     10  C   UNL     1       0.610  -1.931   1.090  0.00  0.00    +0.048 A 
ATOM     11  C   UNL     1      -0.004  -0.691   1.189  0.00  0.00    +0.038 A 
BRANCH   9  12
ATOM     12  N   UNL     1       1.231  -3.854  -0.226  0.00  0.00    -0.207 N 
ATOM     13  C   UNL     1       1.469  -4.822   0.860  0.00  0.00    +0.133 C 
ATOM     14  C   UNL     1       1.482  -6.263   0.316  0.00  0.00    +0.045 C 
ATOM     15  C   UNL     1       2.365  -6.203  -0.967  0.00  0.00    +0.190 C 
ATOM     16  S   UNL     1       1.852  -4.560  -1.614  0.00  0.00    +0.046 S 
ATOM     17  O   UNL     1       0.749  -4.688  -2.501  0.00  0.00    -0.155 OA
ATOM     18  O   UNL     1       2.989  -3.780  -1.960  0.00  0.00    -0.155 OA
ENDBRANCH   9  12
ENDBRANCH   1  11
BRANCH   2  19
ATOM     19  C   UNL     1      -0.173   0.058   4.874  0.00  0.00    +0.102 C 
ATOM     20  C   UNL     1      -1.491   0.863   4.957  0.00  0.00    +0.110 C 
ATOM     21  C   UNL     1      -2.451  -0.070   5.662  0.00  0.00    +0.221 C 
ATOM     22  O   UNL     1      -3.657   0.059   5.680  0.00  0.00    -0.275 OA
ATOM     23  N   UNL     1      -1.774  -1.062   6.264  0.00  0.00    -0.271 N 
ATOM     24  C   UNL     1      -0.326  -0.922   6.058  0.00  0.00    +0.127 C 
BRANCH  23  25
ATOM     25  C   UNL     1      -2.371  -2.097   6.995  0.00  0.00    +0.036 A 
ATOM     26  C   UNL     1      -3.754  -2.213   7.032  0.00  0.00    +0.026 A 
ATOM     27  C   UNL     1      -4.341  -3.234   7.753  0.00  0.00    +0.040 A 
ATOM     28  C   UNL     1      -3.552  -4.141   8.440  0.00  0.00    +0.124 A 
ATOM     29  C   UNL     1      -2.172  -4.027   8.405  0.00  0.00    +0.040 A 
ATOM     30  C   UNL     1      -1.581  -3.011   7.679  0.00  0.00    +0.026 A 
ATOM     31  F   UNL     1      -4.128  -5.138   9.146  0.00  0.00    -0.205 F 
ENDBRANCH  23  25
ENDBRANCH   2  19
TORSDOF 4
