REMARK  Name = ZINC44232470
REMARK  3 active torsions:
REMARK  status: ('A' for Active; 'I' for Inactive)
REMARK    1  A    between atoms: C_7  and  O_23
REMARK    2  A    between atoms: C_9  and  O_13
REMARK    3  A    between atoms: O_13  and  C_14
REMARK                            x       y       z     vdW  Elec       q    Type
REMARK                         _______ _______ _______ _____ _____    ______ ____
ROOT
ATOM      1  C   UNL     1       0.227   1.460   0.398  0.00  0.00    +0.001 A 
ATOM      2  C   UNL     1       1.414   2.129   0.162  0.00  0.00    +0.004 A 
ATOM      3  C   UNL     1       2.574   1.416  -0.064  0.00  0.00    +0.046 A 
ATOM      4  C   UNL     1       2.554   0.025  -0.053  0.00  0.00    +0.126 A 
ATOM      5  C   UNL     1       1.366  -0.642   0.187  0.00  0.00    +0.026 A 
ATOM      6  C   UNL     1       0.204   0.079   0.410  0.00  0.00    +0.010 A 
ATOM      7  C   UNL     1       1.302  -2.148   0.218  0.00  0.00    +0.192 C 
ATOM      8  C   UNL     1       2.541  -2.730  -0.467  0.00  0.00    +0.243 C 
ATOM      9  C   UNL     1       3.780  -2.018   0.090  0.00  0.00    +0.276 C 
ATOM     10  O   UNL     1       3.715  -0.641  -0.285  0.00  0.00    -0.488 OA
ENDROOT
BRANCH   7  11
ATOM     11  O   UNL     1       1.257  -2.594   1.575  0.00  0.00    -0.383 OA
ATOM     12  H   UNL     1       0.495  -2.265   2.072  0.00  0.00    +0.210 HD
ENDBRANCH   7  11
BRANCH   8  13
ATOM     13  O   UNL     1       2.627  -4.131  -0.196  0.00  0.00    -0.483 OA
BRANCH  13  14
ATOM     14  C   UNL     1       3.316  -4.890  -1.088  0.00  0.00    +0.121 A 
ATOM     15  C   UNL     1       3.996  -4.287  -2.137  0.00  0.00    +0.046 A 
ATOM     16  C   UNL     1       4.694  -5.063  -3.040  0.00  0.00    +0.007 A 
ATOM     17  C   UNL     1       4.719  -6.441  -2.905  0.00  0.00    -0.044 A 
ATOM     18  C   UNL     1       4.043  -7.045  -1.860  0.00  0.00    -0.041 A 
ATOM     19  C   UNL     1       3.347  -6.269  -0.949  0.00  0.00    +0.049 A 
ATOM     20  C   UNL     1       4.224  -8.546  -1.933  0.00  0.00    +0.036 C 
ATOM     21  C   UNL     1       4.713  -8.825  -3.370  0.00  0.00    +0.009 C 
ATOM     22  C   UNL     1       5.401  -7.496  -3.750  0.00  0.00    +0.036 C 
ENDBRANCH  13  14
ENDBRANCH   8  13
TORSDOF 3
