REMARK  Name = ZINC45850910
REMARK  7 active torsions:
REMARK  status: ('A' for Active; 'I' for Inactive)
REMARK    1  A    between atoms: C_1  and  C_2
REMARK    2  A    between atoms: C_3  and  C_15
REMARK    3  A    between atoms: C_4  and  C_14
REMARK    4  A    between atoms: N_5  and  C_7
REMARK    5  A    between atoms: N_17  and  C_18
REMARK    6  A    between atoms: C_21  and  N_24
REMARK    7  A    between atoms: N_27  and  C_28
REMARK                            x       y       z     vdW  Elec       q    Type
REMARK                         _______ _______ _______ _____ _____    ______ ____
ROOT
ATOM      1  C   UNL     1      -0.179  -0.594  -2.403  0.00  0.00    +0.252 C 
ATOM      2  O   UNL     1       0.822  -0.291  -3.024  0.00  0.00    -0.270 OA
ATOM      3  N   UNL     1      -1.349  -0.763  -3.052  0.00  0.00    -0.281 N 
ATOM      4  H   UNL     1      -2.161  -0.934  -2.550  0.00  0.00    +0.155 HD
ENDROOT
BRANCH   1   7
ATOM      5  C   UNL     1      -0.644   1.671  -0.229  0.00  0.00    +0.068 C 
ATOM      6  C   UNL     1      -0.319   0.224   0.037  0.00  0.00    +0.073 A 
ATOM      7  C   UNL     1      -0.114  -0.775  -0.942  0.00  0.00    +0.081 A 
ATOM      8  C   UNL     1       0.159  -1.952  -0.274  0.00  0.00    +0.054 A 
ATOM      9  N   UNL     1       0.122  -1.683   1.044  0.00  0.00    -0.236 N 
ATOM     10  N   UNL     1      -0.171  -0.325   1.212  0.00  0.00    -0.171 NA
ATOM     11  C   UNL     1       0.444  -3.291  -0.904  0.00  0.00    +0.066 C 
BRANCH   9  12
ATOM     12  C   UNL     1       0.344  -2.607   2.075  0.00  0.00    +0.066 A 
ATOM     13  C   UNL     1       1.354  -3.552   1.956  0.00  0.00    +0.030 A 
ATOM     14  C   UNL     1       1.572  -4.461   2.973  0.00  0.00    +0.040 A 
ATOM     15  C   UNL     1       0.783  -4.430   4.111  0.00  0.00    +0.124 A 
ATOM     16  C   UNL     1      -0.225  -3.488   4.232  0.00  0.00    +0.040 A 
ATOM     17  C   UNL     1      -0.442  -2.574   3.219  0.00  0.00    +0.030 A 
ATOM     18  F   UNL     1       0.997  -5.320   5.105  0.00  0.00    -0.205 F 
ENDBRANCH   9  12
ENDBRANCH   1   7
BRANCH   3  19
ATOM     19  C   UNL     1      -1.391  -0.692  -4.450  0.00  0.00    +0.034 A 
ATOM     20  C   UNL     1      -2.530  -0.215  -5.087  0.00  0.00    +0.025 A 
ATOM     21  C   UNL     1      -2.571  -0.145  -6.465  0.00  0.00    +0.025 A 
ATOM     22  C   UNL     1      -1.475  -0.551  -7.214  0.00  0.00    +0.035 A 
ATOM     23  C   UNL     1      -0.336  -1.027  -6.577  0.00  0.00    +0.025 A 
ATOM     24  C   UNL     1      -0.292  -1.092  -5.199  0.00  0.00    +0.025 A 
BRANCH  22  25
ATOM     25  N   UNL     1      -1.517  -0.479  -8.613  0.00  0.00    -0.269 N 
ATOM     26  C   UNL     1      -0.870  -1.401  -9.354  0.00  0.00    +0.304 C 
ATOM     27  O   UNL     1      -0.328  -2.345  -8.813  0.00  0.00    -0.253 OA
ATOM     28  N   UNL     1      -0.825  -1.275 -10.695  0.00  0.00    -0.302 N 
ATOM     29  C   UNL     1      -0.122  -2.276 -11.502  0.00  0.00    +0.129 C 
ATOM     30  H   UNL     1      -2.011   0.233  -9.047  0.00  0.00    +0.156 HD
ATOM     31  H   UNL     1      -1.257  -0.521 -11.127  0.00  0.00    +0.150 HD
ENDBRANCH  22  25
ENDBRANCH   3  19
TORSDOF 4
