REMARK  Name = ZINC00170674
REMARK  4 active torsions:
REMARK  status: ('A' for Active; 'I' for Inactive)
REMARK    1  A    between atoms: C_1  and  C_2
REMARK    2  A    between atoms: C_2  and  O_3
REMARK    3  A    between atoms: O_3  and  C_4
REMARK    4  A    between atoms: C_4  and  C_6
REMARK                            x       y       z     vdW  Elec       q    Type
REMARK                         _______ _______ _______ _____ _____    ______ ____
ROOT
ATOM      1  C   UNL     1      -2.852  -2.419   0.016  0.00  0.00    +0.060 A 
ATOM      2  C   UNL     1      -3.976  -1.578   0.026  0.00  0.00    +0.017 A 
ATOM      3  C   UNL     1      -5.234  -2.100   0.033  0.00  0.00    +0.027 A 
ATOM      4  C   UNL     1      -5.423  -3.482   0.033  0.00  0.00    +0.047 A 
ATOM      5  C   UNL     1      -4.303  -4.343   0.025  0.00  0.00    +0.004 A 
ATOM      6  C   UNL     1      -3.014  -3.799   0.010  0.00  0.00    +0.025 A 
ATOM      7  C   UNL     1      -4.796  -5.666   0.030  0.00  0.00    -0.012 A 
ATOM      8  C   UNL     1      -6.167  -5.588   0.058  0.00  0.00    +0.086 A 
ATOM      9  N   UNL     1      -6.549  -4.268   0.039  0.00  0.00    -0.352 N 
ATOM     10  H   UNL     1      -7.464  -3.945   0.032  0.00  0.00    +0.166 HD
ATOM     11  C   UNL     1      -6.995  -6.787   0.128  0.00  0.00    +0.179 C 
ATOM     12  O   UNL     1      -7.996  -6.898  -0.550  0.00  0.00    -0.291 OA
ATOM     13  C   UNL     1      -6.569  -7.884   1.068  0.00  0.00    +0.081 C 
ATOM     14  C   UNL     1      -5.626  -8.839   0.344  0.00  0.00    +0.008 C 
ATOM     15  C   UNL     1      -4.812  -8.038  -0.689  0.00  0.00    +0.005 C 
ATOM     16  C   UNL     1      -3.993  -6.941  -0.008  0.00  0.00    +0.038 C 
ENDROOT
BRANCH   1  17
ATOM     17  C   UNL     1      -1.497  -1.837   0.006  0.00  0.00    +0.339 C 
ATOM     18  O   UNL     1      -0.523  -2.564  -0.007  0.00  0.00    -0.245 OA
BRANCH  17  19
ATOM     19  O   UNL     1      -1.339  -0.499   0.012  0.00  0.00    -0.461 OA
BRANCH  19  21
ATOM     20  C   UNL     1      -0.019   1.526   0.010  0.00  0.00    +0.048 C 
ATOM     21  C   UNL     1       0.002  -0.004   0.002  0.00  0.00    +0.229 C 
ENDBRANCH  19  21
ENDBRANCH  17  19
ENDBRANCH   1  17
TORSDOF 3
