REMARK  Name = ZINC36756470
REMARK  2 active torsions:
REMARK  status: ('A' for Active; 'I' for Inactive)
REMARK    1  A    between atoms: C_4  and  C_7
REMARK    2  A    between atoms: N_11  and  C_15
REMARK                            x       y       z     vdW  Elec       q    Type
REMARK                         _______ _______ _______ _____ _____    ______ ____
ROOT
ATOM      1  C   UNL     1       3.700  -0.708  -0.035  0.00  0.00    +0.192 C 
ATOM      2  C   UNL     1       4.025  -1.236   1.348  0.00  0.00    +0.252 C 
ATOM      3  O   UNL     1       4.180  -0.589   2.361  0.00  0.00    -0.272 OA
ATOM      4  N   UNL     1       4.106  -2.575   1.217  0.00  0.00    -0.192 N 
ATOM      5  C   UNL     1       3.879  -2.962  -0.043  0.00  0.00    +0.314 C 
ATOM      6  O   UNL     1       3.897  -4.121  -0.408  0.00  0.00    -0.252 OA
ATOM      7  N   UNL     1       3.629  -1.923  -0.866  0.00  0.00    -0.283 N 
ATOM      8  H   UNL     1       3.439  -1.965  -1.816  0.00  0.00    +0.151 HD
ENDROOT
BRANCH   4   9
ATOM      9  C   UNL     1       4.393  -3.454   2.272  0.00  0.00    +0.046 A 
ATOM     10  C   UNL     1       4.337  -4.826   2.068  0.00  0.00    +0.025 A 
ATOM     11  C   UNL     1       4.620  -5.689   3.108  0.00  0.00    +0.022 A 
ATOM     12  C   UNL     1       4.960  -5.188   4.352  0.00  0.00    +0.041 A 
ATOM     13  C   UNL     1       5.016  -3.821   4.558  0.00  0.00    +0.022 A 
ATOM     14  C   UNL     1       4.739  -2.953   3.519  0.00  0.00    +0.025 A 
ATOM     15 CL   UNL     1       5.316  -6.276   5.657  0.00  0.00    -0.084 Cl
ENDBRANCH   4   9
BRANCH   1  19
ATOM     16  C   UNL     1      -0.058   1.324  -0.024  0.00  0.00    +0.000 A 
ATOM     17  C   UNL     1       1.120   2.048  -0.015  0.00  0.00    +0.000 A 
ATOM     18  C   UNL     1       2.336   1.391  -0.018  0.00  0.00    +0.006 A 
ATOM     19  C   UNL     1       2.374   0.009  -0.030  0.00  0.00    -0.018 A 
ATOM     20  C   UNL     1       1.196  -0.715  -0.039  0.00  0.00    +0.006 A 
ATOM     21  C   UNL     1      -0.019  -0.058  -0.037  0.00  0.00    +0.000 A 
ENDBRANCH   1  19
TORSDOF 2
