REMARK  Name = ZINC35270730
REMARK  3 active torsions:
REMARK  status: ('A' for Active; 'I' for Inactive)
REMARK    1  A    between atoms: C_16  and  O_29
REMARK    2  A    between atoms: C_21  and  O_28
REMARK    3  A    between atoms: C_25  and  O_27
REMARK                            x       y       z     vdW  Elec       q    Type
REMARK                         _______ _______ _______ _____ _____    ______ ____
ROOT
ATOM      1  C   UNL     1      -0.017   1.391   0.010  0.00  0.00    +0.004 A 
ATOM      2  C   UNL     1       1.135   2.118   0.003  0.00  0.00    +0.009 A 
ATOM      3  C   UNL     1       2.377   1.460  -0.012  0.00  0.00    -0.011 A 
ATOM      4  C   UNL     1       3.596   2.161  -0.015  0.00  0.00    +0.009 A 
ATOM      5  C   UNL     1       4.773   1.474  -0.030  0.00  0.00    +0.004 A 
ATOM      6  C   UNL     1       4.802   0.080  -0.044  0.00  0.00    +0.046 A 
ATOM      7  C   UNL     1       3.633  -0.638  -0.042  0.00  0.00    +0.137 A 
ATOM      8  C   UNL     1       2.402   0.048  -0.024  0.00  0.00    +0.066 A 
ATOM      9  C   UNL     1       1.196  -0.681  -0.015  0.00  0.00    +0.137 A 
ATOM     10  C   UNL     1       0.002  -0.004   0.002  0.00  0.00    +0.046 A 
ATOM     11  O   UNL     1       1.263  -2.038  -0.026  0.00  0.00    -0.444 OA
ATOM     12  C   UNL     1       2.456  -2.615   0.516  0.00  0.00    +0.308 C 
ATOM     13  O   UNL     1       3.612  -1.997  -0.058  0.00  0.00    -0.444 OA
ATOM     14  C   UNL     1       2.475  -2.435   2.011  0.00  0.00    +0.066 C 
ATOM     15  C   UNL     1       1.727  -3.180   2.786  0.00  0.00    +0.010 C 
ATOM     16  C   UNL     1       0.825  -4.237   2.195  0.00  0.00    +0.175 C 
ATOM     17  C   UNL     1       1.599  -4.986   1.103  0.00  0.00    +0.164 C 
ATOM     18  C   UNL     1       2.479  -4.120   0.200  0.00  0.00    +0.210 C 
ATOM     19  O   UNL     1       3.029  -4.982   1.188  0.00  0.00    -0.345 OA
ATOM     20  C   UNL     1       2.612  -4.474  -1.274  0.00  0.00    +0.158 C 
ATOM     21  C   UNL     1       2.271  -5.945  -1.509  0.00  0.00    +0.037 C 
ATOM     22  C   UNL     1       0.868  -6.217  -0.953  0.00  0.00    +0.037 C 
ATOM     23  C   UNL     1       0.953  -6.259   0.573  0.00  0.00    +0.153 C 
ENDROOT
BRANCH  23  24
ATOM     24  O   UNL     1      -0.363  -6.383   1.117  0.00  0.00    -0.389 OA
ATOM     25  H   UNL     1      -0.837  -7.173   0.822  0.00  0.00    +0.210 HD
ENDBRANCH  23  24
BRANCH  20  26
ATOM     26  O   UNL     1       1.722  -3.658  -2.037  0.00  0.00    -0.389 OA
ATOM     27  H   UNL     1       1.751  -3.827  -2.988  0.00  0.00    +0.210 HD
ENDBRANCH  20  26
BRANCH  16  28
ATOM     28  O   UNL     1      -0.332  -3.618   1.629  0.00  0.00    -0.385 OA
ATOM     29  H   UNL     1      -0.861  -3.116   2.265  0.00  0.00    +0.210 HD
ENDBRANCH  16  28
TORSDOF 3
