REMARK  Name = ZINC14550970
REMARK  6 active torsions:
REMARK  status: ('A' for Active; 'I' for Inactive)
REMARK    1  A    between atoms: C_4  and  C_7
REMARK    2  A    between atoms: C_7  and  C_8
REMARK    3  A    between atoms: C_8  and  O_9
REMARK    4  A    between atoms: O_9  and  C_10
REMARK    5  A    between atoms: C_23  and  C_26
REMARK    6  A    between atoms: C_29  and  N_32
REMARK                            x       y       z     vdW  Elec       q    Type
REMARK                         _______ _______ _______ _____ _____    ______ ____
ROOT
ATOM      1  C   UNL     1      -5.916   4.699   0.914  0.00  0.00    +0.121 A 
ATOM      2  C   UNL     1      -6.055   4.357  -0.423  0.00  0.00    +0.047 A 
ATOM      3  C   UNL     1      -5.263   3.369  -0.970  0.00  0.00    +0.027 A 
ATOM      4  C   UNL     1      -4.321   2.710  -0.190  0.00  0.00    +0.032 A 
ATOM      5  C   UNL     1      -4.175   3.067   1.155  0.00  0.00    -0.016 A 
ATOM      6  C   UNL     1      -4.974   4.051   1.698  0.00  0.00    +0.051 A 
ATOM      7  C   UNL     1      -3.140   2.361   1.940  0.00  0.00    +0.049 C 
ATOM      8  C   UNL     1      -3.253   2.185   3.411  0.00  0.00    -0.023 C 
ATOM      9  C   UNL     1      -2.656   1.049   3.749  0.00  0.00    -0.030 C 
ATOM     10  C   UNL     1      -2.118   0.349   2.499  0.00  0.00    +0.033 C 
ATOM     11  C   UNL     1      -3.070   0.891   1.430  0.00  0.00    +0.029 C 
ATOM     12  C   UNL     1      -2.514   0.980   0.019  0.00  0.00    +0.105 C 
ATOM     13  N   UNL     1      -3.538   1.699  -0.768  0.00  0.00    -0.336 N 
ATOM     14  H   UNL     1      -3.672   1.468  -1.701  0.00  0.00    +0.147 HD
ENDROOT
BRANCH  12  15
ATOM     15  C   UNL     1      -1.219   1.751   0.017  0.00  0.00    -0.027 A 
ATOM     16  C   UNL     1      -1.231   3.121  -0.163  0.00  0.00    +0.008 A 
ATOM     17  C   UNL     1      -0.044   3.829  -0.159  0.00  0.00    +0.033 A 
ATOM     18  C   UNL     1       1.156   3.166   0.020  0.00  0.00    +0.126 A 
ATOM     19  C   UNL     1       1.168   1.795   0.195  0.00  0.00    +0.033 A 
ATOM     20  C   UNL     1      -0.019   1.087   0.191  0.00  0.00    +0.008 A 
BRANCH  18  21
ATOM     21  N   UNL     1       2.427   3.925   0.024  0.00  0.00    +0.056 N 
ATOM     22  O   UNL     1       2.416   5.133  -0.130  0.00  0.00    -0.126 OA
ATOM     23  O   UNL     1       3.484   3.340   0.182  0.00  0.00    -0.126 OA
ENDBRANCH  18  21
ENDBRANCH  12  15
BRANCH   1  24
ATOM     24  O   UNL     1      -6.701   5.669   1.455  0.00  0.00    -0.492 OA
BRANCH  24  25
ATOM     25  C   UNL     1      -7.649   6.294   0.588  0.00  0.00    +0.233 C 
BRANCH  25  26
ATOM     26  C   UNL     1      -8.435   7.350   1.368  0.00  0.00    +0.076 C 
BRANCH  26  30
ATOM     27  C   UNL     1     -11.271   9.219  -1.223  0.00  0.00    +0.000 A 
ATOM     28  C   UNL     1     -11.626   8.091  -0.508  0.00  0.00    +0.000 A 
ATOM     29  C   UNL     1     -10.709   7.486   0.331  0.00  0.00    +0.004 A 
ATOM     30  C   UNL     1      -9.435   8.009   0.454  0.00  0.00    -0.044 A 
ATOM     31  C   UNL     1      -9.081   9.140  -0.258  0.00  0.00    +0.004 A 
ATOM     32  C   UNL     1      -9.997   9.742  -1.100  0.00  0.00    +0.000 A 
ENDBRANCH  26  30
ENDBRANCH  25  26
ENDBRANCH  24  25
ENDBRANCH   1  24
TORSDOF 6
