REMARK  Name = ZINC35927614
REMARK  6 active torsions:
REMARK  status: ('A' for Active; 'I' for Inactive)
REMARK    1  A    between atoms: C_1  and  C_2
REMARK    2  A    between atoms: C_3  and  N_9
REMARK    3  A    between atoms: C_10  and  C_16
REMARK    4  A    between atoms: C_20  and  N_22
REMARK    5  A    between atoms: C_23  and  C_25
REMARK    6  A    between atoms: C_29  and  N_31
REMARK                            x       y       z     vdW  Elec       q    Type
REMARK                         _______ _______ _______ _____ _____    ______ ____
ROOT
ATOM      1  C   UNL     1       2.285  -0.643  -2.947  0.00  0.00    -0.015 A 
ATOM      2  C   UNL     1       1.934  -1.966  -3.146  0.00  0.00    +0.006 A 
ATOM      3  C   UNL     1       2.908  -2.947  -3.171  0.00  0.00    +0.002 A 
ATOM      4  C   UNL     1       4.236  -2.609  -2.998  0.00  0.00    +0.023 A 
ATOM      5  C   UNL     1       4.592  -1.282  -2.799  0.00  0.00    +0.034 A 
ATOM      6  C   UNL     1       3.612  -0.298  -2.779  0.00  0.00    +0.029 A 
ENDROOT
BRANCH   1   8
ATOM      7  N   UNL     1       0.198   0.124  -1.900  0.00  0.00    -0.254 N 
ATOM      8  C   UNL     1       1.221   0.423  -2.920  0.00  0.00    +0.170 C 
ATOM      9  S   UNL     1       0.212   0.393  -4.463  0.00  0.00    -0.124 S 
ATOM     10  C   UNL     1      -1.425   0.630  -3.646  0.00  0.00    +0.167 C 
ATOM     11  C   UNL     1      -1.086   0.214  -2.223  0.00  0.00    +0.231 C 
ATOM     12  O   UNL     1      -1.956  -0.023  -1.413  0.00  0.00    -0.274 OA
BRANCH   7  15
ATOM     13  C   UNL     1       0.631   2.172   0.029  0.00  0.00    +0.048 C 
ATOM     14  C   UNL     1       0.798   0.712   0.365  0.00  0.00    +0.006 A 
ATOM     15  C   UNL     1       0.577  -0.255  -0.607  0.00  0.00    +0.043 A 
ATOM     16  C   UNL     1       0.732  -1.599  -0.294  0.00  0.00    +0.024 A 
ATOM     17  C   UNL     1       1.105  -1.971   0.983  0.00  0.00    +0.005 A 
ATOM     18  C   UNL     1       1.326  -1.008   1.949  0.00  0.00    +0.039 A 
ATOM     19  C   UNL     1       1.178   0.334   1.640  0.00  0.00    +0.128 A 
ATOM     20  F   UNL     1       1.399   1.274   2.585  0.00  0.00    -0.205 F 
ENDBRANCH   7  15
ENDBRANCH   1   8
BRANCH   5  21
ATOM     21  N   UNL     1       5.936  -0.936  -2.623  0.00  0.00    -0.281 N 
ATOM     22  C   UNL     1       6.899  -1.623  -3.269  0.00  0.00    +0.248 C 
ATOM     23  O   UNL     1       6.605  -2.583  -3.954  0.00  0.00    -0.270 OA
ATOM     24  H   UNL     1       6.175  -0.202  -2.036  0.00  0.00    +0.155 HD
BRANCH  22  25
ATOM     25  C   UNL     1       8.312  -1.210  -3.144  0.00  0.00    +0.039 A 
ATOM     26  C   UNL     1       8.654  -0.111  -2.353  0.00  0.00    +0.013 A 
ATOM     27  C   UNL     1       9.975   0.270  -2.241  0.00  0.00    +0.003 A 
ATOM     28  C   UNL     1      10.960  -0.434  -2.910  0.00  0.00    +0.033 A 
ATOM     29  C   UNL     1      10.629  -1.524  -3.695  0.00  0.00    +0.127 A 
ATOM     30  C   UNL     1       9.312  -1.919  -3.811  0.00  0.00    +0.045 A 
BRANCH  29  31
ATOM     31  N   UNL     1      11.689  -2.270  -4.409  0.00  0.00    +0.056 N 
ATOM     32  O   UNL     1      12.844  -1.928  -4.304  0.00  0.00    -0.126 OA
ATOM     33  O   UNL     1      11.401  -3.223  -5.095  0.00  0.00    -0.126 OA
ENDBRANCH  29  31
ENDBRANCH  22  25
ENDBRANCH   5  21
TORSDOF 5
