REMARK  Name = ZINC41395777
REMARK  6 active torsions:
REMARK  status: ('A' for Active; 'I' for Inactive)
REMARK    1  A    between atoms: C_1  and  C_2
REMARK    2  A    between atoms: C_7  and  C_8
REMARK    3  A    between atoms: N_11  and  S_15
REMARK    4  A    between atoms: S_15  and  C_18
REMARK    5  A    between atoms: C_19  and  C_24
REMARK    6  A    between atoms: C_22  and  C_23
REMARK                            x       y       z     vdW  Elec       q    Type
REMARK                         _______ _______ _______ _____ _____    ______ ____
ROOT
ATOM      1  C   UNL     1       0.025   0.045   2.504  0.00  0.00    +0.164 C 
ATOM      2  C   UNL     1       1.463   0.425   2.874  0.00  0.00    +0.146 C 
ATOM      3  N   UNL     1       1.460   0.983   4.236  0.00  0.00    -0.171 NA
ATOM      4  C   UNL     1       0.788   0.214   5.296  0.00  0.00    +0.137 C 
ATOM      5  C   UNL     1      -0.617  -0.155   4.808  0.00  0.00    +0.178 C 
ATOM      6  O   UNL     1      -0.521  -0.788   3.530  0.00  0.00    -0.369 OA
ENDROOT
BRANCH   1  13
ATOM      7  C   UNL     1      -0.018   1.503   0.010  0.00  0.00    +0.044 C 
ATOM      8  C   UNL     1       0.002  -0.004   0.002  0.00  0.00    -0.045 A 
ATOM      9  C   UNL     1       0.006  -0.689  -1.199  0.00  0.00    +0.004 A 
ATOM     10  C   UNL     1       0.025  -2.071  -1.207  0.00  0.00    +0.000 A 
ATOM     11  C   UNL     1       0.040  -2.768  -0.013  0.00  0.00    +0.000 A 
ATOM     12  C   UNL     1       0.037  -2.084   1.188  0.00  0.00    +0.006 A 
ATOM     13  C   UNL     1       0.023  -0.702   1.195  0.00  0.00    -0.015 A 
ENDBRANCH   1  13
BRANCH   3  14
ATOM     14  S   UNL     1       2.192   2.431   4.566  0.00  0.00    +0.066 S 
ATOM     15  O   UNL     1       2.510   2.419   5.951  0.00  0.00    -0.153 OA
ATOM     16  O   UNL     1       3.177   2.627   3.561  0.00  0.00    -0.153 OA
BRANCH  14  17
ATOM     17  C   UNL     1       0.981   3.690   4.338  0.00  0.00    +0.170 A 
ATOM     18  C   UNL     1       0.715   4.371   3.136  0.00  0.00    +0.107 A 
ATOM     19  N   UNL     1      -0.243   5.226   3.360  0.00  0.00    -0.081 NA
ATOM     20  O   UNL     1      -0.619   5.114   4.721  0.00  0.00    -0.358 OA
ATOM     21  C   UNL     1       0.146   4.165   5.282  0.00  0.00    +0.161 A 
ATOM     22  C   UNL     1       0.084   3.711   6.718  0.00  0.00    +0.091 C 
ATOM     23  C   UNL     1       1.416   4.151   1.820  0.00  0.00    +0.071 C 
ENDBRANCH  14  17
ENDBRANCH   3  14
TORSDOF 3
