REMARK  Name = ZINC05869291
REMARK  6 active torsions:
REMARK  status: ('A' for Active; 'I' for Inactive)
REMARK    1  A    between atoms: C_4  and  N_27
REMARK    2  A    between atoms: C_5  and  C_7
REMARK    3  A    between atoms: C_10  and  C_12
REMARK    4  A    between atoms: C_13  and  C_14
REMARK    5  A    between atoms: N_16  and  C_17
REMARK    6  A    between atoms: C_22  and  C_23
REMARK                            x       y       z     vdW  Elec       q    Type
REMARK                         _______ _______ _______ _____ _____    ______ ____
ROOT
ATOM      1  C   UNL     1      -0.015   1.354   0.030  0.00  0.00    +0.051 C 
ATOM      2  C   UNL     1       0.003  -0.004   0.017  0.00  0.00    +0.071 C 
ENDROOT
BRANCH   1   6
ATOM      3  C   UNL     1      -3.410   2.444   0.077  0.00  0.00    +0.138 A 
ATOM      4  C   UNL     1      -2.787   3.660   0.082  0.00  0.00    +0.050 A 
ATOM      5  C   UNL     1      -1.411   3.417   0.064  0.00  0.00    +0.050 A 
ATOM      6  C   UNL     1      -1.248   2.045   0.050  0.00  0.00    +0.129 A 
ATOM      7  O   UNL     1      -2.474   1.479   0.052  0.00  0.00    -0.455 OA
BRANCH   3  12
ATOM      8  C   UNL     1      -7.032   2.673   1.039  0.00  0.00    +0.001 A 
ATOM      9  C   UNL     1      -7.609   1.817   0.118  0.00  0.00    +0.002 A 
ATOM     10  C   UNL     1      -6.824   1.164  -0.816  0.00  0.00    +0.033 A 
ATOM     11  C   UNL     1      -5.460   1.367  -0.839  0.00  0.00    +0.137 A 
ATOM     12  C   UNL     1      -4.870   2.226   0.092  0.00  0.00    +0.047 A 
ATOM     13  C   UNL     1      -5.668   2.882   1.032  0.00  0.00    +0.014 A 
BRANCH  11  14
ATOM     14  N   UNL     1      -4.623   0.673  -1.843  0.00  0.00    +0.057 N 
ATOM     15  O   UNL     1      -5.139  -0.076  -2.653  0.00  0.00    -0.126 OA
ATOM     16  O   UNL     1      -3.418   0.850  -1.858  0.00  0.00    -0.126 OA
ENDBRANCH  11  14
ENDBRANCH   3  12
ENDBRANCH   1   6
BRANCH   2  17
ATOM     17  C   UNL     1       1.237  -0.694  -0.009  0.00  0.00    +0.241 C 
ATOM     18  O   UNL     1       2.283  -0.071  -0.019  0.00  0.00    -0.270 OA
ATOM     19  N   UNL     1       1.254  -2.042  -0.021  0.00  0.00    -0.281 N 
ATOM     20  H   UNL     1       0.425  -2.539   0.054  0.00  0.00    +0.155 HD
BRANCH  19  21
ATOM     21  C   UNL     1       2.469  -2.724  -0.142  0.00  0.00    +0.045 A 
ATOM     22  C   UNL     1       3.619  -2.207   0.442  0.00  0.00    +0.024 A 
ATOM     23  C   UNL     1       4.816  -2.885   0.324  0.00  0.00    +0.002 A 
ATOM     24  C   UNL     1       4.873  -4.073  -0.382  0.00  0.00    +0.001 A 
ATOM     25  C   UNL     1       3.731  -4.588  -0.968  0.00  0.00    +0.014 A 
ATOM     26  C   UNL     1       2.530  -3.917  -0.850  0.00  0.00    +0.076 A 
BRANCH  26  27
ATOM     27  C   UNL     1       1.286  -4.479  -1.490  0.00  0.00    +0.419 C 
ATOM     28  F   UNL     1       1.597  -5.677  -2.141  0.00  0.00    -0.166 F 
ATOM     29  F   UNL     1       0.323  -4.720  -0.504  0.00  0.00    -0.166 F 
ATOM     30  F   UNL     1       0.784  -3.561  -2.418  0.00  0.00    -0.166 F 
ENDBRANCH  26  27
ENDBRANCH  19  21
ENDBRANCH   2  17
TORSDOF 6
