REMARK  Name = ZINC09027998
REMARK  7 active torsions:
REMARK  status: ('A' for Active; 'I' for Inactive)
REMARK    1  A    between atoms: C_6  and  C_7
REMARK    2  A    between atoms: C_7  and  S_8
REMARK    3  A    between atoms: S_8  and  C_11
REMARK    4  A    between atoms: C_14  and  C_16
REMARK    5  A    between atoms: C_16  and  N_17
REMARK    6  A    between atoms: N_17  and  S_18
REMARK    7  A    between atoms: S_18  and  C_21
REMARK                            x       y       z     vdW  Elec       q    Type
REMARK                         _______ _______ _______ _____ _____    ______ ____
ROOT
ATOM      1  C   UNL     1      -3.386   3.257   1.605  0.00  0.00    +0.361 A 
ATOM      2  N   UNL     1      -4.569   2.716   1.547  0.00  0.00    -0.090 NA
ATOM      3  N   UNL     1      -5.458   3.641   1.458  0.00  0.00    -0.110 NA
ATOM      4  C   UNL     1      -4.872   4.805   1.457  0.00  0.00    +0.234 A 
ATOM      5  O   UNL     1      -3.550   4.590   1.555  0.00  0.00    -0.406 OA
ENDROOT
BRANCH   1   6
ATOM      6  S   UNL     1      -1.852   2.399   1.734  0.00  0.00    +0.053 S 
ATOM      7  O   UNL     1      -2.178   1.165   2.359  0.00  0.00    -0.165 OA
ATOM      8  O   UNL     1      -0.973   3.321   2.365  0.00  0.00    -0.165 OA
BRANCH   6   9
ATOM      9  C   UNL     1      -1.332   2.114   0.020  0.00  0.00    +0.212 C 
BRANCH   9  15
ATOM     10  C   UNL     1       1.170   2.086   0.002  0.00  0.00    +0.007 A 
ATOM     11  C   UNL     1       2.378   1.413  -0.013  0.00  0.00    +0.022 A 
ATOM     12  C   UNL     1       2.398   0.030  -0.021  0.00  0.00    +0.059 A 
ATOM     13  C   UNL     1       1.209  -0.679  -0.013  0.00  0.00    +0.060 A 
ATOM     14  C   UNL     1       0.002  -0.004   0.002  0.00  0.00    +0.026 A 
ATOM     15  C   UNL     1      -0.017   1.378   0.010  0.00  0.00    -0.024 A 
ATOM     16 CL   UNL     1       1.233  -2.415  -0.022  0.00  0.00    -0.082 Cl
ATOM     17 CL   UNL     1       3.914  -0.816  -0.039  0.00  0.00    -0.082 Cl
ENDBRANCH   9  15
ENDBRANCH   6   9
ENDBRANCH   1   6
BRANCH   4  18
ATOM     18  C   UNL     1      -5.553   6.146   1.368  0.00  0.00    +0.203 C 
BRANCH  18  19
ATOM     19  N   UNL     1      -5.863   6.627   2.716  0.00  0.00    -0.181 NA
ATOM     20  H   UNL     1      -5.830   6.016   3.469  0.00  0.00    +0.149 HD
BRANCH  19  21
ATOM     21  S   UNL     1      -6.268   8.215   2.956  0.00  0.00    +0.059 S 
ATOM     22  O   UNL     1      -6.533   8.361   4.345  0.00  0.00    -0.153 OA
ATOM     23  O   UNL     1      -5.287   8.991   2.282  0.00  0.00    -0.153 OA
BRANCH  21  24
ATOM     24  C   UNL     1      -7.793   8.496   2.120  0.00  0.00    +0.106 A 
ATOM     25  C   UNL     1      -7.795   8.914   0.802  0.00  0.00    +0.029 A 
ATOM     26  C   UNL     1      -8.993   9.128   0.153  0.00  0.00    +0.006 A 
ATOM     27  C   UNL     1     -10.199   8.938   0.816  0.00  0.00    -0.044 A 
ATOM     28  C   UNL     1     -10.197   8.524   2.129  0.00  0.00    -0.042 A 
ATOM     29  C   UNL     1      -8.989   8.304   2.779  0.00  0.00    +0.032 A 
ATOM     30  C   UNL     1     -11.465   8.289   2.907  0.00  0.00    +0.035 C 
ATOM     31  C   UNL     1     -12.649   8.970   2.223  0.00  0.00    +0.005 C 
ATOM     32  C   UNL     1     -12.662   8.551   0.748  0.00  0.00    +0.005 C 
ATOM     33  C   UNL     1     -11.469   9.204   0.052  0.00  0.00    +0.035 C 
ENDBRANCH  21  24
ENDBRANCH  19  21
ENDBRANCH  18  19
ENDBRANCH   4  18
TORSDOF 7
