REMARK  Name = ZINC12147719
REMARK  7 active torsions:
REMARK  status: ('A' for Active; 'I' for Inactive)
REMARK    1  A    between atoms: C_1  and  C_2
REMARK    2  A    between atoms: C_3  and  N_9
REMARK    3  A    between atoms: C_4  and  C_8
REMARK    4  A    between atoms: N_5  and  C_7
REMARK    5  A    between atoms: N_9  and  S_10
REMARK    6  A    between atoms: S_10  and  C_13
REMARK    7  A    between atoms: C_22  and  C_25
REMARK                            x       y       z     vdW  Elec       q    Type
REMARK                         _______ _______ _______ _____ _____    ______ ____
ROOT
ATOM      1  S   UNL     1      -2.842   1.212  -1.062  0.00  0.00    +0.073 S 
ATOM      2  O   UNL     1      -4.021   1.372  -1.838  0.00  0.00    -0.150 OA
ATOM      3  O   UNL     1      -1.587   1.745  -1.463  0.00  0.00    -0.150 OA
ENDROOT
BRANCH   1   4
ATOM      4  C   UNL     1      -2.608  -0.522  -0.854  0.00  0.00    +0.110 A 
ATOM      5  C   UNL     1      -1.332  -1.034  -0.708  0.00  0.00    +0.032 A 
ATOM      6  C   UNL     1      -1.140  -2.393  -0.539  0.00  0.00    +0.049 A 
ATOM      7  C   UNL     1      -2.230  -3.246  -0.527  0.00  0.00    +0.143 A 
ATOM      8  C   UNL     1      -3.516  -2.732  -0.680  0.00  0.00    +0.078 A 
ATOM      9  C   UNL     1      -3.702  -1.369  -0.843  0.00  0.00    +0.055 A 
ATOM     10  N   UNL     1      -4.611  -3.607  -0.668  0.00  0.00    -0.279 N 
ATOM     11  C   UNL     1      -4.440  -4.863  -0.200  0.00  0.00    +0.258 C 
ATOM     12  O   UNL     1      -5.365  -5.647  -0.207  0.00  0.00    -0.271 OA
ATOM     13  C   UNL     1      -3.094  -5.285   0.333  0.00  0.00    +0.256 C 
ATOM     14  O   UNL     1      -2.060  -4.586  -0.365  0.00  0.00    -0.478 OA
ATOM     15  C   UNL     1      -3.012  -4.959   1.825  0.00  0.00    +0.062 C 
ATOM     16  H   UNL     1      -5.478  -3.316  -0.990  0.00  0.00    +0.155 HD
ENDBRANCH   1   4
BRANCH   1  17
ATOM     17  N   UNL     1      -3.169   1.844   0.433  0.00  0.00    -0.213 N 
ATOM     18  H   UNL     1      -4.019   2.280   0.600  0.00  0.00    +0.174 HD
BRANCH  17  21
ATOM     19  C   UNL     1      -0.280   2.997   0.268  0.00  0.00    +0.069 C 
ATOM     20  C   UNL     1      -0.905   2.256   1.422  0.00  0.00    +0.082 A 
ATOM     21  C   UNL     1      -2.212   1.750   1.462  0.00  0.00    +0.091 A 
ATOM     22  C   UNL     1      -2.390   1.152   2.666  0.00  0.00    +0.058 A 
ATOM     23  N   UNL     1      -1.232   1.285   3.366  0.00  0.00    -0.270 N 
ATOM     24  N   UNL     1      -0.322   1.980   2.561  0.00  0.00    -0.175 NA
ATOM     25  C   UNL     1      -0.982   0.788   4.721  0.00  0.00    +0.172 C 
ATOM     26  C   UNL     1      -3.646   0.468   3.144  0.00  0.00    +0.067 C 
ENDBRANCH  17  21
ENDBRANCH   1  17
TORSDOF 3
