REMARK  Name = ZINC03249095
REMARK  7 active torsions:
REMARK  status: ('A' for Active; 'I' for Inactive)
REMARK    1  A    between atoms: C_1  and  O_2
REMARK    2  A    between atoms: O_2  and  C_3
REMARK    3  A    between atoms: C_6  and  S_23
REMARK    4  A    between atoms: C_8  and  C_9
REMARK    5  A    between atoms: N_11  and  C_12
REMARK    6  A    between atoms: C_13  and  C_20
REMARK    7  A    between atoms: S_23  and  N_26
REMARK                            x       y       z     vdW  Elec       q    Type
REMARK                         _______ _______ _______ _____ _____    ______ ____
ROOT
ATOM      1  C   UNL     1      -2.485  -1.715  -4.320  0.00  0.00    +0.132 A 
ATOM      2  C   UNL     1      -3.006  -0.628  -3.635  0.00  0.00    +0.048 A 
ATOM      3  C   UNL     1      -2.658  -0.410  -2.316  0.00  0.00    +0.032 A 
ATOM      4  C   UNL     1      -1.780  -1.266  -1.672  0.00  0.00    +0.110 A 
ATOM      5  C   UNL     1      -1.253  -2.351  -2.337  0.00  0.00    +0.045 A 
ATOM      6  C   UNL     1      -1.600  -2.587  -3.670  0.00  0.00    +0.080 A 
ENDROOT
BRANCH   6   7
ATOM      7  C   UNL     1      -1.039  -3.746  -4.389  0.00  0.00    +0.252 C 
ATOM      8  O   UNL     1      -1.344  -3.948  -5.549  0.00  0.00    -0.270 OA
ATOM      9  N   UNL     1      -0.189  -4.582  -3.761  0.00  0.00    -0.275 N 
ATOM     10  H   UNL     1       0.054  -4.421  -2.836  0.00  0.00    +0.156 HD
BRANCH   9  11
ATOM     11  C   UNL     1       0.338  -5.671  -4.436  0.00  0.00    +0.085 A 
ATOM     12  C   UNL     1       1.221  -6.628  -3.968  0.00  0.00    +0.068 A 
ATOM     13  C   UNL     1       1.624  -7.688  -4.892  0.00  0.00    -0.023 A 
ATOM     14  C   UNL     1       1.086  -7.607  -6.122  0.00  0.00    -0.004 A 
ATOM     15  S   UNL     1       0.058  -6.160  -6.072  0.00  0.00    -0.077 S 
ATOM     16  C   UNL     1       1.548  -8.727  -7.015  0.00  0.00    +0.043 C 
ATOM     17  C   UNL     1       2.123  -9.784  -6.046  0.00  0.00    +0.010 C 
ATOM     18  C   UNL     1       2.535  -8.915  -4.841  0.00  0.00    +0.037 C 
BRANCH  12  19
ATOM     19  C   UNL     1       1.732  -6.584  -2.594  0.00  0.00    +0.244 C 
ATOM     20  O   UNL     1       1.133  -7.158  -1.704  0.00  0.00    -0.270 OA
ATOM     21  N   UNL     1       2.865  -5.908  -2.318  0.00  0.00    -0.325 N 
ATOM     22  H   UNL     1       3.342  -5.451  -3.027  0.00  0.00    +0.145 HD
ATOM     23  H   UNL     1       3.202  -5.879  -1.409  0.00  0.00    +0.145 HD
ENDBRANCH  12  19
ENDBRANCH   9  11
ENDBRANCH   6   7
BRANCH   4  24
ATOM     24  S   UNL     1      -1.342  -0.971   0.009  0.00  0.00    +0.075 S 
ATOM     25  O   UNL     1      -0.940  -2.222   0.550  0.00  0.00    -0.150 OA
ATOM     26  O   UNL     1      -2.394  -0.201   0.574  0.00  0.00    -0.150 OA
BRANCH  24  27
ATOM     27  N   UNL     1       0.002  -0.004   0.002  0.00  0.00    -0.202 N 
ATOM     28  C   UNL     1      -0.018   1.461   0.010  0.00  0.00    +0.136 C 
ATOM     29  C   UNL     1       1.460   1.884  -0.002  0.00  0.00    +0.058 C 
ATOM     30  C   UNL     1       2.228   0.581  -0.016  0.00  0.00    -0.023 A 
ATOM     31  C   UNL     1       1.319  -0.466  -0.013  0.00  0.00    +0.054 A 
ATOM     32  C   UNL     1       1.797  -1.778  -0.025  0.00  0.00    +0.025 A 
ATOM     33  C   UNL     1       3.154  -2.023  -0.039  0.00  0.00    +0.002 A 
ATOM     34  C   UNL     1       4.052  -0.972  -0.042  0.00  0.00    +0.000 A 
ATOM     35  C   UNL     1       3.586   0.330  -0.031  0.00  0.00    +0.005 A 
ENDBRANCH  24  27
ENDBRANCH   4  24
BRANCH   1  37
ATOM     36  C   UNL     1      -3.734  -1.002  -6.210  0.00  0.00    +0.277 C 
ATOM     37  O   UNL     1      -2.829  -1.933  -5.614  0.00  0.00    -0.494 OA
ENDBRANCH   1  37
TORSDOF 6
