REMARK  Name = ZINC17919578
REMARK  4 active torsions:
REMARK  status: ('A' for Active; 'I' for Inactive)
REMARK    1  A    between atoms: C_1  and  C_2
REMARK    2  A    between atoms: C_2  and  C_4
REMARK    3  A    between atoms: C_2  and  N_9
REMARK    4  A    between atoms: N_18  and  C_19
REMARK                            x       y       z     vdW  Elec       q    Type
REMARK                         _______ _______ _______ _____ _____    ______ ____
ROOT
ATOM      1  N   UNL     1       2.335   3.692   0.503  0.00  0.00    -0.256 NA
ATOM      2  C   UNL     1       1.166   3.112   0.344  0.00  0.00    +0.137 A 
ATOM      3  C   UNL     1       1.070   1.701   0.296  0.00  0.00    +0.046 A 
ATOM      4  C   UNL     1      -0.147   1.122   0.132  0.00  0.00    +0.005 A 
ATOM      5  C   UNL     1      -1.294   1.927   0.006  0.00  0.00    +0.018 A 
ATOM      6  C   UNL     1      -1.195   3.270   0.058  0.00  0.00    +0.097 A 
ATOM      7  N   UNL     1       0.022   3.876   0.223  0.00  0.00    -0.256 N 
ATOM      8  C   UNL     1       0.103   5.221   0.267  0.00  0.00    +0.324 C 
ATOM      9  O   UNL     1       1.190   5.762   0.320  0.00  0.00    -0.249 OA
ATOM     10  N   UNL     1      -1.020   5.965   0.253  0.00  0.00    -0.267 N 
ATOM     11  H   UNL     1      -1.888   5.533   0.288  0.00  0.00    +0.157 HD
ENDROOT
BRANCH  10  12
ATOM     12  C   UNL     1      -0.935   7.360   0.189  0.00  0.00    +0.035 A 
ATOM     13  C   UNL     1      -1.891   8.145   0.821  0.00  0.00    +0.025 A 
ATOM     14  C   UNL     1      -1.800   9.522   0.762  0.00  0.00    +0.022 A 
ATOM     15  C   UNL     1      -0.766  10.119   0.064  0.00  0.00    +0.041 A 
ATOM     16  C   UNL     1       0.184   9.339  -0.572  0.00  0.00    +0.022 A 
ATOM     17  C   UNL     1       0.102   7.962  -0.511  0.00  0.00    +0.025 A 
ATOM     18 CL   UNL     1      -0.660  11.850  -0.016  0.00  0.00    -0.084 Cl
ENDBRANCH  10  12
BRANCH   1  20
ATOM     19  C   UNL     1       4.052   3.200   2.173  0.00  0.00    +0.041 C 
ATOM     20  C   UNL     1       3.524   2.880   0.773  0.00  0.00    +0.170 C 
BRANCH  20  21
ATOM     21  C   UNL     1       4.588   3.191  -0.248  0.00  0.00    +0.129 A 
ATOM     22  C   UNL     1       5.407   2.296  -0.829  0.00  0.00    +0.047 A 
ATOM     23  C   UNL     1       6.238   3.017  -1.717  0.00  0.00    +0.041 A 
ATOM     24  C   UNL     1       5.883   4.311  -1.619  0.00  0.00    +0.195 A 
ATOM     25  O   UNL     1       4.883   4.410  -0.728  0.00  0.00    -0.466 OA
ENDBRANCH  20  21
ENDBRANCH   1  20
TORSDOF 3
