REMARK  Name = ZINC39445962
REMARK  7 active torsions:
REMARK  status: ('A' for Active; 'I' for Inactive)
REMARK    1  A    between atoms: C_1  and  O_2
REMARK    2  A    between atoms: O_2  and  C_3
REMARK    3  A    between atoms: C_7  and  O_32
REMARK    4  A    between atoms: C_8  and  C_9
REMARK    5  A    between atoms: C_9  and  N_10
REMARK    6  A    between atoms: C_13  and  C_16
REMARK    7  A    between atoms: C_20  and  C_22
REMARK                            x       y       z     vdW  Elec       q    Type
REMARK                         _______ _______ _______ _____ _____    ______ ____
ROOT
ATOM      1  N   UNL     1      -1.353  -3.112  -0.357  0.00  0.00    +0.383 N 
ATOM      2  C   UNL     1      -2.115  -1.857  -0.369  0.00  0.00    -0.078 C 
ATOM      3  C   UNL     1      -3.560  -2.138  -0.786  0.00  0.00    -0.009 C 
ATOM      4  C   UNL     1      -4.194  -3.113   0.211  0.00  0.00    +0.033 C 
ATOM      5  C   UNL     1      -3.349  -4.388   0.269  0.00  0.00    -0.009 C 
ATOM      6  C   UNL     1      -1.911  -4.025   0.648  0.00  0.00    -0.078 C 
ATOM      7  H   UNL     1      -1.405  -3.543  -1.268  0.00  0.00    -0.081 HD
ENDROOT
BRANCH   4   8
ATOM      8  C   UNL     1      -5.591  -3.454  -0.237  0.00  0.00    +0.057 C 
ATOM      9  N   UNL     1      -6.167  -3.093  -1.337  0.00  0.00    -0.158 NA
ATOM     10  N   UNL     1      -7.465  -3.582  -1.442  0.00  0.00    -0.161 NA
ATOM     11  C   UNL     1      -7.811  -4.289  -0.417  0.00  0.00    +0.121 C 
ATOM     12  C   UNL     1      -6.609  -4.297   0.506  0.00  0.00    +0.108 C 
BRANCH  12  13
ATOM     13  C   UNL     1      -6.955  -3.667   1.831  0.00  0.00    -0.033 A 
ATOM     14  C   UNL     1      -7.514  -2.391   1.858  0.00  0.00    +0.005 A 
ATOM     15  C   UNL     1      -7.838  -1.793   3.037  0.00  0.00    +0.009 A 
ATOM     16  C   UNL     1      -7.607  -2.470   4.247  0.00  0.00    -0.018 A 
ATOM     17  C   UNL     1      -7.928  -1.886   5.484  0.00  0.00    +0.008 A 
ATOM     18  C   UNL     1      -7.690  -2.572   6.635  0.00  0.00    +0.001 A 
ATOM     19  C   UNL     1      -7.131  -3.848   6.607  0.00  0.00    +0.001 A 
ATOM     20  C   UNL     1      -6.807  -4.446   5.428  0.00  0.00    +0.008 A 
ATOM     21  C   UNL     1      -7.038  -3.768   4.219  0.00  0.00    -0.018 A 
ATOM     22  C   UNL     1      -6.722  -4.355   2.982  0.00  0.00    +0.013 A 
ENDBRANCH  12  13
ENDBRANCH   4   8
BRANCH   1  23
ATOM     23  C   UNL     1       0.051  -2.827  -0.032  0.00  0.00    -0.036 C 
BRANCH  23  29
ATOM     24  C   UNL     1       0.606  -0.607  -1.056  0.00  0.00    +0.125 A 
ATOM     25  C   UNL     1       1.173   0.162  -2.062  0.00  0.00    +0.046 A 
ATOM     26  C   UNL     1       1.787  -0.451  -3.138  0.00  0.00    +0.007 A 
ATOM     27  C   UNL     1       1.837  -1.830  -3.215  0.00  0.00    +0.046 A 
ATOM     28  C   UNL     1       1.272  -2.603  -2.211  0.00  0.00    +0.122 A 
ATOM     29  C   UNL     1       0.660  -1.990  -1.127  0.00  0.00    +0.019 A 
BRANCH  24  31
ATOM     30  C   UNL     1      -0.017   1.425   0.010  0.00  0.00    +0.277 C 
ATOM     31  O   UNL     1       0.002  -0.004   0.002  0.00  0.00    -0.495 OA
ENDBRANCH  24  31
BRANCH  28  32
ATOM     32  O   UNL     1       1.322  -3.959  -2.286  0.00  0.00    -0.506 OA
ATOM     33  H   UNL     1       2.104  -4.347  -1.872  0.00  0.00    +0.292 HD
ENDBRANCH  28  32
ENDBRANCH  23  29
ENDBRANCH   1  23
TORSDOF 6
