REMARK  Name = ZINC60366624
REMARK  8 active torsions:
REMARK  status: ('A' for Active; 'I' for Inactive)
REMARK    1  A    between atoms: C_1  and  C_2
REMARK    2  A    between atoms: C_9  and  C_11
REMARK    3  A    between atoms: C_11  and  C_13
REMARK    4  A    between atoms: C_11  and  N_14
REMARK    5  A    between atoms: N_14  and  S_15
REMARK    6  A    between atoms: S_15  and  C_18
REMARK    7  A    between atoms: C_21  and  S_24
REMARK    8  A    between atoms: S_24  and  C_25
REMARK                            x       y       z     vdW  Elec       q    Type
REMARK                         _______ _______ _______ _____ _____    ______ ____
ROOT
ATOM      1  S   UNL     1       2.722   0.632   5.667  0.00  0.00    +0.059 S 
ATOM      2  O   UNL     1       3.012   1.872   6.298  0.00  0.00    -0.153 OA
ATOM      3  O   UNL     1       1.626  -0.183   6.058  0.00  0.00    -0.153 OA
ENDROOT
BRANCH   1   4
ATOM      4  C   UNL     1       4.169  -0.361   5.822  0.00  0.00    +0.105 A 
ATOM      5  C   UNL     1       4.069  -1.740   5.761  0.00  0.00    +0.029 A 
ATOM      6  C   UNL     1       5.200  -2.522   5.882  0.00  0.00    +0.017 A 
ATOM      7  C   UNL     1       6.441  -1.922   6.064  0.00  0.00    +0.016 A 
ATOM      8  C   UNL     1       6.538  -0.537   6.125  0.00  0.00    +0.017 A 
ATOM      9  C   UNL     1       5.403   0.238   5.997  0.00  0.00    +0.029 A 
BRANCH   7  10
ATOM     10  S   UNL     1       7.888  -2.916   6.220  0.00  0.00    -0.016 S 
BRANCH  10  11
ATOM     11  C   UNL     1       9.227  -1.712   6.436  0.00  0.00    +0.448 C 
ATOM     12  F   UNL     1       8.986  -0.948   7.583  0.00  0.00    -0.160 F 
ATOM     13  F   UNL     1      10.444  -2.387   6.572  0.00  0.00    -0.160 F 
ATOM     14  F   UNL     1       9.282  -0.871   5.319  0.00  0.00    -0.160 F 
ENDBRANCH  10  11
ENDBRANCH   7  10
ENDBRANCH   1   4
BRANCH   1  15
ATOM     15  N   UNL     1       2.521   0.957   4.056  0.00  0.00    -0.178 NA
ATOM     16  H   UNL     1       2.594   1.868   3.732  0.00  0.00    +0.149 HD
BRANCH  15  17
ATOM     17  C   UNL     1       2.232  -0.133   3.120  0.00  0.00    +0.159 C 
ATOM     18  C   UNL     1       3.537  -0.619   2.485  0.00  0.00    +0.035 C 
BRANCH  17  26
ATOM     19  C   UNL     1      -0.013   1.462  -0.029  0.00  0.00    +0.028 C 
ATOM     20  C   UNL     1      -0.182  -0.050   0.140  0.00  0.00    +0.073 C 
ATOM     21  C   UNL     1       0.264  -0.762  -1.141  0.00  0.00    +0.022 C 
ATOM     22  C   UNL     1       0.224  -2.276  -0.917  0.00  0.00    +0.003 C 
ATOM     23  C   UNL     1       1.192  -2.653   0.207  0.00  0.00    +0.019 C 
ATOM     24  C   UNL     1       0.756  -1.962   1.503  0.00  0.00    +0.108 C 
ATOM     25  N   UNL     1       0.649  -0.516   1.258  0.00  0.00    -0.297 N 
ATOM     26  C   UNL     1       1.303   0.363   2.042  0.00  0.00    +0.234 C 
ATOM     27  O   UNL     1       1.145   1.555   1.880  0.00  0.00    -0.274 OA
ENDBRANCH  17  26
ENDBRANCH  15  17
ENDBRANCH   1  15
TORSDOF 6
