REMARK  Name = ZINC10251652
REMARK  7 active torsions:
REMARK  status: ('A' for Active; 'I' for Inactive)
REMARK    1  A    between atoms: C_1  and  C_2
REMARK    2  A    between atoms: C_2  and  C_3
REMARK    3  A    between atoms: C_3  and  C_5
REMARK    4  A    between atoms: C_3  and  C_11
REMARK    5  A    between atoms: N_13  and  N_14
REMARK    6  A    between atoms: N_23  and  C_24
REMARK    7  A    between atoms: C_27  and  C_30
REMARK                            x       y       z     vdW  Elec       q    Type
REMARK                         _______ _______ _______ _____ _____    ______ ____
ROOT
ATOM      1  N   UNL     1      -0.017   1.397   0.010  0.00  0.00    -0.212 N 
ATOM      2  C   UNL     1      -1.203   2.056   0.019  0.00  0.00    +0.224 A 
ATOM      3  N   UNL     1      -1.293   3.354   0.032  0.00  0.00    -0.216 NA
ATOM      4  C   UNL     1      -0.205   4.140   0.026  0.00  0.00    +0.170 A 
ATOM      5  C   UNL     1       1.068   3.547   0.011  0.00  0.00    +0.105 A 
ATOM      6  C   UNL     1       1.148   2.087   0.002  0.00  0.00    +0.282 A 
ATOM      7  O   UNL     1       2.222   1.513  -0.011  0.00  0.00    -0.265 OA
ATOM      8  C   UNL     1       2.014   4.589   0.007  0.00  0.00    +0.150 A 
ATOM      9  N   UNL     1       1.374   5.726   0.019  0.00  0.00    -0.172 NA
ATOM     10  N   UNL     1      -0.006   5.486   0.031  0.00  0.00    -0.214 N 
ENDROOT
BRANCH  10  11
ATOM     11  C   UNL     1      -1.009   6.464   0.045  0.00  0.00    +0.068 A 
ATOM     12  C   UNL     1      -2.198   6.251  -0.639  0.00  0.00    +0.028 A 
ATOM     13  C   UNL     1      -3.187   7.215  -0.618  0.00  0.00    +0.005 A 
ATOM     14  C   UNL     1      -2.990   8.396   0.074  0.00  0.00    -0.050 A 
ATOM     15  C   UNL     1      -1.804   8.613   0.751  0.00  0.00    +0.005 A 
ATOM     16  C   UNL     1      -0.813   7.651   0.739  0.00  0.00    +0.028 A 
ATOM     17  C   UNL     1      -4.069   9.448   0.089  0.00  0.00    +0.044 C 
ENDBRANCH  10  11
BRANCH   1  20
ATOM     18  C   UNL     1      -0.280  -0.688   1.129  0.00  0.00    +0.239 C 
ATOM     19  O   UNL     1      -0.550  -0.091   2.149  0.00  0.00    -0.273 OA
ATOM     20  N   UNL     1       0.002  -0.004   0.002  0.00  0.00    -0.218 N 
ATOM     21  H   UNL     1       0.218  -0.482  -0.814  0.00  0.00    +0.176 HD
BRANCH  18  22
ATOM     22  C   UNL     1      -0.260  -2.195   1.120  0.00  0.00    +0.106 C 
BRANCH  22  23
ATOM     23  C   UNL     1      -0.607  -2.709   2.493  0.00  0.00    -0.035 A 
ATOM     24  C   UNL     1       0.183  -2.376   3.577  0.00  0.00    +0.004 A 
ATOM     25  C   UNL     1      -0.139  -2.844   4.837  0.00  0.00    +0.000 A 
ATOM     26  C   UNL     1      -1.245  -3.654   5.012  0.00  0.00    +0.000 A 
ATOM     27  C   UNL     1      -2.032  -3.992   3.927  0.00  0.00    +0.000 A 
ATOM     28  C   UNL     1      -1.713  -3.520   2.668  0.00  0.00    +0.004 A 
ENDBRANCH  22  23
BRANCH  22  30
ATOM     29  C   UNL     1       1.126  -4.208   0.601  0.00  0.00    +0.005 C 
ATOM     30  C   UNL     1       1.137  -2.684   0.731  0.00  0.00    +0.014 C 
ENDBRANCH  22  30
ENDBRANCH  18  22
ENDBRANCH   1  20
TORSDOF 5
