REMARK  Name = ZINC08757247
REMARK  9 active torsions:
REMARK  status: ('A' for Active; 'I' for Inactive)
REMARK    1  A    between atoms: C_1  and  C_2
REMARK    2  A    between atoms: C_5  and  N_8
REMARK    3  A    between atoms: C_9  and  C_11
REMARK    4  A    between atoms: C_17  and  C_18
REMARK    5  A    between atoms: C_18  and  O_20
REMARK    6  A    between atoms: O_20  and  C_21
REMARK    7  A    between atoms: C_23  and  N_34
REMARK    8  A    between atoms: C_24  and  C_32
REMARK    9  A    between atoms: C_25  and  C_27
REMARK                            x       y       z     vdW  Elec       q    Type
REMARK                         _______ _______ _______ _____ _____    ______ ____
ROOT
ATOM      1  C   UNL     1      -3.351   1.529   1.336  0.00  0.00    +0.058 C 
ATOM      2  C   UNL     1      -4.503   2.244   1.337  0.00  0.00    +0.099 A 
ATOM      3  N   UNL     1      -5.157   2.666   0.196  0.00  0.00    -0.257 N 
ATOM      4  C   UNL     1      -6.297   3.370   0.349  0.00  0.00    +0.272 A 
ATOM      5  O   UNL     1      -6.919   3.770  -0.614  0.00  0.00    -0.266 OA
ATOM      6  C   UNL     1      -6.768   3.642   1.728  0.00  0.00    +0.086 A 
ATOM      7  C   UNL     1      -7.869   4.319   2.146  0.00  0.00    +0.112 C 
ATOM      8  S   UNL     1      -5.496   2.840   2.690  0.00  0.00    -0.065 S 
ATOM      9  C   UNL     1      -4.617   2.349  -1.056  0.00  0.00    +0.119 C 
ATOM     10  C   UNL     1      -3.479   1.648  -1.222  0.00  0.00    +0.080 C 
ATOM     11  C   UNL     1      -2.730   1.163   0.003  0.00  0.00    +0.107 C 
ENDROOT
BRANCH  11  12
ATOM     12  C   UNL     1      -1.336   1.734  -0.040  0.00  0.00    +0.003 A 
ATOM     13  C   UNL     1      -0.150   1.083  -0.130  0.00  0.00    +0.012 A 
ATOM     14  C   UNL     1       1.019   1.821  -0.161  0.00  0.00    +0.008 A 
ATOM     15  C   UNL     1       0.944   3.173  -0.095  0.00  0.00    +0.045 A 
ATOM     16  S   UNL     1      -0.817   3.441   0.015  0.00  0.00    -0.101 S 
ENDBRANCH  11  12
BRANCH   1  18
ATOM     17  N   UNL     1      -1.599   0.427   2.526  0.00  0.00    -0.282 N 
ATOM     18  C   UNL     1      -2.745   1.137   2.546  0.00  0.00    +0.248 C 
ATOM     19  O   UNL     1      -3.257   1.439   3.610  0.00  0.00    -0.270 OA
ATOM     20  H   UNL     1      -1.232   0.122   1.682  0.00  0.00    +0.155 HD
BRANCH  17  25
ATOM     21  C   UNL     1       1.075  -0.772   7.383  0.00  0.00    +0.044 C 
ATOM     22  C   UNL     1       0.365  -0.453   6.093  0.00  0.00    -0.050 A 
ATOM     23  C   UNL     1       0.414  -1.347   5.039  0.00  0.00    +0.005 A 
ATOM     24  C   UNL     1      -0.236  -1.058   3.855  0.00  0.00    +0.023 A 
ATOM     25  C   UNL     1      -0.940   0.132   3.724  0.00  0.00    +0.034 A 
ATOM     26  C   UNL     1      -0.983   1.030   4.782  0.00  0.00    +0.023 A 
ATOM     27  C   UNL     1      -0.335   0.733   5.965  0.00  0.00    +0.005 A 
ENDBRANCH  17  25
ENDBRANCH   1  18
BRANCH   9  28
ATOM     28  N   UNL     1      -5.285   2.779  -2.178  0.00  0.00    -0.343 N 
ATOM     29  H   UNL     1      -5.825   3.583  -2.142  0.00  0.00    +0.144 HD
ATOM     30  H   UNL     1      -5.215   2.278  -3.005  0.00  0.00    +0.144 HD
ENDBRANCH   9  28
BRANCH   7  31
ATOM     31  C   UNL     1      -8.138   4.465   3.576  0.00  0.00    +0.333 C 
ATOM     32  O   UNL     1      -7.376   3.982   4.391  0.00  0.00    -0.246 OA
BRANCH  31  33
ATOM     33  O   UNL     1      -9.232   5.137   3.991  0.00  0.00    -0.465 OA
ATOM     34  C   UNL     1      -9.433   5.242   5.402  0.00  0.00    +0.280 C 
ENDBRANCH  31  33
ENDBRANCH   7  31
BRANCH  10  35
ATOM     35  C   UNL     1      -2.987   1.365  -2.537  0.00  0.00    +0.099 C 
ATOM     36  N   UNL     1      -2.596   1.140  -3.580  0.00  0.00    -0.191 NA
ENDBRANCH  10  35
TORSDOF 7
