REMARK  Name = ZINC35878029
REMARK  8 active torsions:
REMARK  status: ('A' for Active; 'I' for Inactive)
REMARK    1  A    between atoms: C_6  and  C_7
REMARK    2  A    between atoms: C_12  and  O_18
REMARK    3  A    between atoms: O_18  and  C_19
REMARK    4  A    between atoms: C_21  and  O_34
REMARK    5  A    between atoms: C_23  and  O_33
REMARK    6  A    between atoms: C_25  and  O_32
REMARK    7  A    between atoms: C_27  and  C_30
REMARK    8  A    between atoms: C_30  and  O_31
REMARK                            x       y       z     vdW  Elec       q    Type
REMARK                         _______ _______ _______ _____ _____    ______ ____
ROOT
ATOM      1  C   UNL     1      -1.271  -0.765   0.011  0.00  0.00    +0.064 A 
ATOM      2  C   UNL     1      -2.131  -0.700  -1.040  0.00  0.00    +0.208 A 
ATOM      3  O   UNL     1      -3.278  -1.381  -1.077  0.00  0.00    -0.462 OA
ATOM      4  C   UNL     1      -3.812  -1.933   0.030  0.00  0.00    +0.142 A 
ATOM      5  C   UNL     1      -5.135  -2.355   0.043  0.00  0.00    +0.092 A 
ATOM      6  C   UNL     1      -5.663  -2.928   1.186  0.00  0.00    +0.128 A 
ATOM      7  C   UNL     1      -4.881  -3.087   2.328  0.00  0.00    +0.047 A 
ATOM      8  C   UNL     1      -3.579  -2.674   2.334  0.00  0.00    +0.019 A 
ATOM      9  C   UNL     1      -3.034  -2.091   1.191  0.00  0.00    +0.065 A 
ATOM     10  C   UNL     1      -1.635  -1.620   1.157  0.00  0.00    +0.200 A 
ATOM     11  O   UNL     1      -0.831  -1.916   2.024  0.00  0.00    -0.286 OA
ENDROOT
BRANCH   1  17
ATOM     12  C   UNL     1      -0.017   1.389   0.010  0.00  0.00    +0.010 A 
ATOM     13  C   UNL     1       1.170   2.093   0.002  0.00  0.00    +0.020 A 
ATOM     14  C   UNL     1       2.378   1.417  -0.013  0.00  0.00    +0.041 A 
ATOM     15  C   UNL     1       2.402   0.033  -0.021  0.00  0.00    +0.020 A 
ATOM     16  C   UNL     1       1.221  -0.680  -0.014  0.00  0.00    +0.010 A 
ATOM     17  C   UNL     1       0.002  -0.004   0.002  0.00  0.00    -0.011 A 
ATOM     18 CL   UNL     1       3.868   2.309  -0.024  0.00  0.00    -0.084 Cl
ENDBRANCH   1  17
BRANCH   6  19
ATOM     19  O   UNL     1      -6.957  -3.340   1.196  0.00  0.00    -0.461 OA
BRANCH  19  20
ATOM     20  C   UNL     1      -7.443  -3.923   2.406  0.00  0.00    +0.339 C 
ATOM     21  C   UNL     1      -8.820  -4.546   2.155  0.00  0.00    +0.214 C 
ATOM     22  C   UNL     1      -9.361  -5.116   3.470  0.00  0.00    +0.180 C 
ATOM     23  C   UNL     1      -9.410  -3.998   4.516  0.00  0.00    +0.177 C 
ATOM     24  C   UNL     1      -8.011  -3.397   4.676  0.00  0.00    +0.179 C 
ATOM     25  O   UNL     1      -7.554  -2.913   3.411  0.00  0.00    -0.331 OA
BRANCH  23  26
ATOM     26  O   UNL     1     -10.321  -2.983   4.089  0.00  0.00    -0.386 OA
ATOM     27  H   UNL     1     -11.227  -3.296   3.964  0.00  0.00    +0.210 HD
ENDBRANCH  23  26
BRANCH  22  28
ATOM     28  O   UNL     1     -10.675  -5.635   3.261  0.00  0.00    -0.386 OA
ATOM     29  H   UNL     1     -10.718  -6.344   2.604  0.00  0.00    +0.210 HD
ENDBRANCH  22  28
BRANCH  21  30
ATOM     30  O   UNL     1      -8.701  -5.594   1.192  0.00  0.00    -0.383 OA
ATOM     31  H   UNL     1      -8.360  -5.304   0.335  0.00  0.00    +0.210 HD
ENDBRANCH  21  30
BRANCH  24  32
ATOM     32  C   UNL     1      -8.063  -2.240   5.675  0.00  0.00    +0.190 C 
BRANCH  32  33
ATOM     33  O   UNL     1      -6.740  -1.754   5.912  0.00  0.00    -0.392 OA
ATOM     34  H   UNL     1      -6.698  -1.018   6.538  0.00  0.00    +0.210 HD
ENDBRANCH  32  33
ENDBRANCH  24  32
ENDBRANCH  19  20
ENDBRANCH   6  19
TORSDOF 8
