REMARK  Name = ZINC66337547
REMARK  6 active torsions:
REMARK  status: ('A' for Active; 'I' for Inactive)
REMARK    1  A    between atoms: C_1  and  C_2
REMARK    2  A    between atoms: C_2  and  C_3
REMARK    3  A    between atoms: C_3  and  N_4
REMARK    4  A    between atoms: N_7  and  N_8
REMARK    5  A    between atoms: C_9  and  C_11
REMARK    6  A    between atoms: C_14  and  C_16
REMARK                            x       y       z     vdW  Elec       q    Type
REMARK                         _______ _______ _______ _____ _____    ______ ____
ROOT
ATOM      1  N   UNL     1      -1.330  -4.720  -0.011  0.00  0.00    -0.228 N 
ATOM      2  C   UNL     1      -1.312  -6.067  -0.018  0.00  0.00    +0.279 C 
ATOM      3  O   UNL     1      -2.357  -6.690  -0.011  0.00  0.00    -0.267 OA
ATOM      4  H   UNL     1      -0.497  -4.223  -0.016  0.00  0.00    +0.173 HD
ENDROOT
BRANCH   1   8
ATOM      5  N   UNL     1      -1.413  -1.998   0.005  0.00  0.00    -0.298 N 
ATOM      6  C   UNL     1      -2.571  -2.688   0.012  0.00  0.00    +0.316 C 
ATOM      7  O   UNL     1      -3.632  -2.095   0.025  0.00  0.00    -0.251 OA
ATOM      8  N   UNL     1      -2.553  -4.036   0.005  0.00  0.00    -0.218 N 
ATOM      9  H   UNL     1      -0.567  -2.472  -0.006  0.00  0.00    +0.150 HD
ATOM     10  H   UNL     1      -3.386  -4.532   0.010  0.00  0.00    +0.174 HD
BRANCH   5  11
ATOM     11  C   UNL     1      -1.433  -0.534   0.013  0.00  0.00    +0.105 C 
BRANCH  11  13
ATOM     12  C   UNL     1      -0.019   1.526   0.010  0.00  0.00    +0.005 C 
ATOM     13  C   UNL     1       0.002  -0.004   0.002  0.00  0.00    +0.015 C 
ENDBRANCH  11  13
ENDBRANCH   5  11
ENDBRANCH   1   8
BRANCH   2  14
ATOM     14  C   UNL     1      -0.027  -6.786  -0.034  0.00  0.00    +0.135 A 
ATOM     15  C   UNL     1       0.003  -8.156  -0.047  0.00  0.00    +0.080 A 
ATOM     16  S   UNL     1       1.653  -8.484  -0.063  0.00  0.00    -0.075 S 
ATOM     17  C   UNL     1       2.247  -6.802  -0.052  0.00  0.00    +0.110 A 
ATOM     18  N   UNL     1       1.118  -6.117  -0.042  0.00  0.00    -0.234 NA
BRANCH  17  19
ATOM     19  C   UNL     1       3.640  -6.304  -0.058  0.00  0.00    +0.026 A 
ATOM     20  C   UNL     1       3.894  -4.932  -0.041  0.00  0.00    +0.013 A 
ATOM     21  C   UNL     1       5.194  -4.473  -0.047  0.00  0.00    +0.021 A 
ATOM     22  C   UNL     1       6.248  -5.371  -0.070  0.00  0.00    +0.042 A 
ATOM     23  C   UNL     1       6.004  -6.734  -0.087  0.00  0.00    +0.040 A 
ATOM     24  C   UNL     1       4.706  -7.205  -0.075  0.00  0.00    +0.052 A 
ATOM     25 CL   UNL     1       4.401  -8.914  -0.089  0.00  0.00    -0.083 Cl
ATOM     26 CL   UNL     1       7.883  -4.786  -0.079  0.00  0.00    -0.083 Cl
ENDBRANCH  17  19
ENDBRANCH   2  14
TORSDOF 5
