REMARK  Name = ZINC25061558
REMARK  6 active torsions:
REMARK  status: ('A' for Active; 'I' for Inactive)
REMARK    1  A    between atoms: C_4  and  N_15
REMARK    2  A    between atoms: C_6  and  S_7
REMARK    3  A    between atoms: S_7  and  N_10
REMARK    4  A    between atoms: C_16  and  C_18
REMARK    5  A    between atoms: C_18  and  N_19
REMARK    6  A    between atoms: C_27  and  C_29
REMARK                            x       y       z     vdW  Elec       q    Type
REMARK                         _______ _______ _______ _____ _____    ______ ____
ROOT
ATOM      1  N   UNL     1       7.623   0.909   1.111  0.00  0.00    -0.286 N 
ATOM      2  C   UNL     1       6.338   0.553   0.911  0.00  0.00    +0.201 C 
ATOM      3  O   UNL     1       5.561   0.537   1.841  0.00  0.00    -0.278 OA
ATOM      4  H   UNL     1       8.342   0.864   0.281  0.00  0.00    +0.155 HD
ENDROOT
BRANCH   1   8
ATOM      5  C   UNL     1       8.867   2.180   4.880  0.00  0.00    +0.030 A 
ATOM      6  C   UNL     1       9.498   2.661   3.747  0.00  0.00    +0.024 A 
ATOM      7  C   UNL     1       9.088   2.241   2.496  0.00  0.00    +0.062 A 
ATOM      8  C   UNL     1       8.041   1.335   2.377  0.00  0.00    +0.054 A 
ATOM      9  C   UNL     1       7.407   0.859   3.517  0.00  0.00    +0.053 A 
ATOM     10  C   UNL     1       7.825   1.279   4.765  0.00  0.00    +0.107 A 
ATOM     11 CL   UNL     1       9.881   2.845   1.074  0.00  0.00    -0.082 Cl
BRANCH  10  12
ATOM     12  S   UNL     1       7.024   0.670   6.211  0.00  0.00    +0.061 S 
ATOM     13  O   UNL     1       6.441  -0.577   5.858  0.00  0.00    -0.153 OA
ATOM     14  O   UNL     1       7.956   0.801   7.277  0.00  0.00    -0.153 OA
BRANCH  12  15
ATOM     15  N   UNL     1       5.772   1.700   6.548  0.00  0.00    -0.177 NA
ATOM     16  C   UNL     1       5.849   2.890   7.408  0.00  0.00    +0.109 C 
ATOM     17  C   UNL     1       4.441   3.520   7.446  0.00  0.00    +0.018 C 
ATOM     18  C   UNL     1       3.520   2.329   7.072  0.00  0.00    +0.018 C 
ATOM     19  C   UNL     1       4.394   1.572   6.041  0.00  0.00    +0.109 C 
ENDBRANCH  12  15
ENDBRANCH  10  12
ENDBRANCH   1   8
BRANCH   2  20
ATOM     20  C   UNL     1       5.869   0.173  -0.470  0.00  0.00    +0.020 C 
BRANCH  20  21
ATOM     21  N   UNL     1       4.441  -0.171  -0.424  0.00  0.00    +0.390 N 
ATOM     22  C   UNL     1       4.219  -1.389   0.368  0.00  0.00    -0.072 C 
ATOM     23  C   UNL     1       2.815  -1.935   0.053  0.00  0.00    +0.024 C 
ATOM     24  C   UNL     1       1.859  -0.788   0.104  0.00  0.00    -0.010 A 
ATOM     25  C   UNL     1       2.177   0.537   0.114  0.00  0.00    -0.051 A 
ATOM     26  C   UNL     1       1.112   1.432   0.167  0.00  0.00    +0.010 A 
ATOM     27  C   UNL     1      -0.160   0.969   0.205  0.00  0.00    +0.045 A 
ATOM     28  S   UNL     1       0.090  -0.800   0.168  0.00  0.00    -0.101 S 
ATOM     29  C   UNL     1       3.643   0.960   0.066  0.00  0.00    -0.033 C 
ATOM     30  H   UNL     1       4.105  -0.384  -1.450  0.00  0.00    -0.080 HD
BRANCH  29  31
ATOM     31  C   UNL     1       3.806   2.152  -0.879  0.00  0.00    -0.020 C 
ATOM     32  C   UNL     1       4.689   3.309  -0.409  0.00  0.00    +0.002 C 
ATOM     33  C   UNL     1       3.169   3.478  -0.460  0.00  0.00    +0.002 C 
ENDBRANCH  29  31
ENDBRANCH  20  21
ENDBRANCH   2  20
TORSDOF 6
