REMARK  Name = ZINC60158209
REMARK  11 active torsions:
REMARK  status: ('A' for Active; 'I' for Inactive)
REMARK    1  A    between atoms: C_1  and  C_2
REMARK    2  A    between atoms: C_4  and  C_8
REMARK    3  A    between atoms: C_5  and  C_7
REMARK    4  A    between atoms: C_8  and  C_10
REMARK    5  A    between atoms: C_8  and  N_11
REMARK    6  A    between atoms: C_12  and  C_14
REMARK    7  A    between atoms: C_14  and  N_15
REMARK    8  A    between atoms: C_21  and  C_24
REMARK    9  A    between atoms: C_24  and  C_25
REMARK   10  A    between atoms: C_24  and  C_26
REMARK   11  A    between atoms: C_24  and  C_27
REMARK                            x       y       z     vdW  Elec       q    Type
REMARK                         _______ _______ _______ _____ _____    ______ ____
ROOT
ATOM      1  N   UNL     1      -5.539  -4.933   2.084  0.00  0.00    -0.215 N 
ATOM      2  C   UNL     1      -6.266  -5.816   1.369  0.00  0.00    +0.247 C 
ATOM      3  O   UNL     1      -6.530  -5.763   0.187  0.00  0.00    -0.273 OA
ATOM      4  C   UNL     1      -6.683  -6.885   2.353  0.00  0.00    +0.113 C 
ATOM      5  C   UNL     1      -6.118  -8.239   1.937  0.00  0.00    +0.035 C 
ATOM      6  C   UNL     1      -6.717  -8.651   0.590  0.00  0.00    +0.006 C 
ATOM      7  C   UNL     1      -8.240  -8.732   0.714  0.00  0.00    -0.005 C 
ATOM      8  C   UNL     1      -8.795  -7.362   1.111  0.00  0.00    +0.006 C 
ATOM      9  C   UNL     1      -8.203  -6.945   2.460  0.00  0.00    +0.035 C 
ATOM     10  N   UNL     1      -6.094  -6.449   3.624  0.00  0.00    -0.285 N 
ATOM     11  C   UNL     1      -5.439  -5.301   3.367  0.00  0.00    +0.310 C 
ATOM     12  O   UNL     1      -4.829  -4.668   4.206  0.00  0.00    -0.252 OA
ATOM     13  H   UNL     1      -6.159  -6.901   4.480  0.00  0.00    +0.151 HD
ENDROOT
BRANCH   7  14
ATOM     14  C   UNL     1      -8.839  -9.154  -0.629  0.00  0.00    -0.035 C 
ATOM     15  C   UNL     1      -8.286 -10.525  -1.026  0.00  0.00    +0.011 C 
ATOM     16  C   UNL     1     -10.362  -9.235  -0.506  0.00  0.00    +0.011 C 
ATOM     17  C   UNL     1      -8.468  -8.126  -1.700  0.00  0.00    +0.011 C 
ENDBRANCH   7  14
BRANCH   1  18
ATOM     18  C   UNL     1      -4.929  -3.724   1.524  0.00  0.00    +0.213 C 
BRANCH  18  20
ATOM     19  N   UNL     1      -2.786  -3.079   0.471  0.00  0.00    -0.307 N 
ATOM     20  C   UNL     1      -3.542  -4.045   1.030  0.00  0.00    +0.231 C 
ATOM     21  O   UNL     1      -3.106  -5.171   1.135  0.00  0.00    -0.274 OA
ATOM     22  H   UNL     1      -3.135  -2.178   0.387  0.00  0.00    +0.149 HD
BRANCH  19  23
ATOM     23  C   UNL     1      -1.437  -3.390  -0.009  0.00  0.00    +0.103 C 
ATOM     24  C   UNL     1      -1.518  -3.946  -1.432  0.00  0.00    +0.033 C 
BRANCH  23  28
ATOM     25  C   UNL     1      -0.018   1.503   0.010  0.00  0.00    +0.086 C 
ATOM     26  C   UNL     1       0.002  -0.004   0.002  0.00  0.00    +0.103 A 
ATOM     27  C   UNL     1      -1.078  -0.805   0.003  0.00  0.00    +0.050 A 
ATOM     28  C   UNL     1      -0.601  -2.136  -0.007  0.00  0.00    +0.013 A 
ATOM     29  C   UNL     1       0.742  -2.069  -0.013  0.00  0.00    +0.107 A 
ATOM     30  O   UNL     1       1.102  -0.775  -0.013  0.00  0.00    -0.465 OA
ATOM     31  C   UNL     1       1.684  -3.245  -0.023  0.00  0.00    +0.086 C 
ENDBRANCH  23  28
ENDBRANCH  19  23
ENDBRANCH  18  20
ENDBRANCH   1  18
TORSDOF 5
