REMARK  Name = ZINC52636797
REMARK  11 active torsions:
REMARK  status: ('A' for Active; 'I' for Inactive)
REMARK    1  A    between atoms: C_1  and  C_2
REMARK    2  A    between atoms: C_2  and  C_3
REMARK    3  A    between atoms: C_2  and  C_4
REMARK    4  A    between atoms: C_4  and  C_5
REMARK    5  A    between atoms: C_5  and  C_7
REMARK    6  A    between atoms: C_5  and  N_17
REMARK    7  A    between atoms: C_7  and  O_9
REMARK    8  A    between atoms: O_9  and  C_10
REMARK    9  A    between atoms: C_10  and  C_11
REMARK   10  A    between atoms: C_35  and  C_36
REMARK   11  A    between atoms: C_35  and  C_37
REMARK                            x       y       z     vdW  Elec       q    Type
REMARK                         _______ _______ _______ _____ _____    ______ ____
ROOT
ATOM      1  N   UNL     1      -0.876  -2.426  -1.433  0.00  0.00    -0.269 N 
ATOM      2  C   UNL     1      -1.400  -2.063  -2.632  0.00  0.00    +0.235 C 
ATOM      3  O   UNL     1      -2.400  -1.399  -2.809  0.00  0.00    -0.274 OA
ATOM      4  C   UNL     1      -0.507  -2.638  -3.704  0.00  0.00    +0.149 C 
ATOM      5  C   UNL     1      -1.300  -3.169  -4.906  0.00  0.00    +0.062 C 
ATOM      6  C   UNL     1      -0.434  -4.286  -5.450  0.00  0.00    -0.035 C 
ATOM      7  C   UNL     1      -0.730  -5.368  -6.154  0.00  0.00    -0.001 A 
ATOM      8  C   UNL     1      -1.999  -5.852  -6.723  0.00  0.00    +0.010 A 
ATOM      9  C   UNL     1      -1.944  -7.034  -7.392  0.00  0.00    +0.001 A 
ATOM     10  C   UNL     1      -0.768  -7.774  -7.551  0.00  0.00    +0.002 A 
ATOM     11  C   UNL     1       0.443  -7.402  -7.067  0.00  0.00    +0.026 A 
ATOM     12  C   UNL     1       0.514  -6.174  -6.347  0.00  0.00    +0.043 A 
ATOM     13  N   UNL     1       1.530  -5.582  -5.793  0.00  0.00    -0.376 N 
ATOM     14  C   UNL     1       1.073  -4.315  -5.212  0.00  0.00    +0.120 C 
ATOM     15  C   UNL     1       1.305  -4.295  -3.696  0.00  0.00    +0.116 C 
ATOM     16  N   UNL     1       0.126  -3.796  -3.023  0.00  0.00    -0.268 NA
ATOM     17  C   UNL     1       0.331  -3.250  -1.666  0.00  0.00    +0.087 C 
ATOM     18  C   UNL     1       1.590  -2.382  -1.617  0.00  0.00    +0.049 C 
ATOM     19  C   UNL     1       0.416  -4.381  -0.639  0.00  0.00    +0.049 C 
ATOM     20  H   UNL     1       2.438  -5.923  -5.767  0.00  0.00    +0.160 HD
ENDROOT
BRANCH   1  21
ATOM     21  C   UNL     1      -1.416  -2.058  -0.121  0.00  0.00    +0.187 C 
BRANCH  21  22
ATOM     22  C   UNL     1      -2.819  -2.590   0.013  0.00  0.00    +0.328 C 
ATOM     23  O   UNL     1      -3.318  -3.213  -0.894  0.00  0.00    -0.249 OA
BRANCH  22  24
ATOM     24  O   UNL     1      -3.515  -2.372   1.139  0.00  0.00    -0.459 OA
BRANCH  24  25
ATOM     25  C   UNL     1      -4.840  -2.905   1.197  0.00  0.00    +0.267 C 
BRANCH  25  26
ATOM     26  C   UNL     1      -5.461  -2.563   2.527  0.00  0.00    -0.010 A 
ATOM     27  C   UNL     1      -5.312  -3.420   3.601  0.00  0.00    +0.007 A 
ATOM     28  C   UNL     1      -5.882  -3.107   4.820  0.00  0.00    +0.000 A 
ATOM     29  C   UNL     1      -6.601  -1.935   4.966  0.00  0.00    +0.000 A 
ATOM     30  C   UNL     1      -6.750  -1.077   3.892  0.00  0.00    +0.000 A 
ATOM     31  C   UNL     1      -6.176  -1.389   2.674  0.00  0.00    +0.007 A 
ENDBRANCH  25  26
ENDBRANCH  24  25
ENDBRANCH  22  24
ENDBRANCH  21  22
BRANCH  21  32
ATOM     32  C   UNL     1      -1.433  -0.534   0.013  0.00  0.00    +0.037 C 
BRANCH  32  34
ATOM     33  C   UNL     1      -0.019   1.526   0.010  0.00  0.00    +0.007 C 
ATOM     34  C   UNL     1       0.002  -0.004   0.002  0.00  0.00    -0.015 C 
ATOM     35  C   UNL     1       0.742  -0.511   1.242  0.00  0.00    +0.007 C 
ENDBRANCH  32  34
ENDBRANCH  21  32
ENDBRANCH   1  21
TORSDOF 7
