REMARK  Name = ZINC48952877
REMARK  3 active torsions:
REMARK  status: ('A' for Active; 'I' for Inactive)
REMARK    1  A    between atoms: C_3  and  C_8
REMARK    2  A    between atoms: N_10  and  N_11
REMARK    3  A    between atoms: N_14  and  C_15
REMARK                            x       y       z     vdW  Elec       q    Type
REMARK                         _______ _______ _______ _____ _____    ______ ____
ROOT
ATOM      1  N   UNL     1       5.667   2.118  -2.343  0.00  0.00    -0.218 N 
ATOM      2  C   UNL     1       6.529   1.658  -3.272  0.00  0.00    +0.316 C 
ATOM      3  O   UNL     1       7.622   2.176  -3.396  0.00  0.00    -0.251 OA
ATOM      4  N   UNL     1       6.180   0.624  -4.063  0.00  0.00    -0.294 N 
ATOM      5  H   UNL     1       5.919   2.862  -1.774  0.00  0.00    +0.174 HD
ATOM      6  H   UNL     1       5.308   0.211  -3.963  0.00  0.00    +0.151 HD
ENDROOT
BRANCH   4   7
ATOM      7  C   UNL     1       7.117   0.124  -5.072  0.00  0.00    +0.097 C 
ATOM      8  C   UNL     1       8.068  -0.896  -4.425  0.00  0.00    +0.046 C 
ATOM      9  C   UNL     1       8.831  -1.635  -5.561  0.00  0.00    +0.168 C 
ATOM     10  S   UNL     1       7.473  -1.868  -6.784  0.00  0.00    -0.029 S 
ATOM     11  O   UNL     1       7.955  -1.540  -8.079  0.00  0.00    -0.174 OA
ATOM     12  O   UNL     1       6.865  -3.134  -6.564  0.00  0.00    -0.174 OA
ATOM     13  C   UNL     1       6.325  -0.548  -6.220  0.00  0.00    +0.188 C 
ENDBRANCH   4   7
BRANCH   1  16
ATOM     14  C   UNL     1       3.546   1.980  -1.271  0.00  0.00    +0.233 C 
ATOM     15  O   UNL     1       3.861   2.911  -0.560  0.00  0.00    -0.274 OA
ATOM     16  N   UNL     1       4.408   1.521  -2.200  0.00  0.00    -0.233 N 
ATOM     17  H   UNL     1       4.156   0.777  -2.769  0.00  0.00    +0.173 HD
BRANCH  14  20
ATOM     18  C   UNL     1      -0.018   1.496   0.010  0.00  0.00    +0.027 C 
ATOM     19  C   UNL     1       1.411   2.043  -0.000  0.00  0.00    +0.017 C 
ATOM     20  C   UNL     1       2.192   1.338  -1.117  0.00  0.00    +0.080 C 
ATOM     21  C   UNL     1       2.356  -0.135  -0.738  0.00  0.00    +0.039 C 
ATOM     22  C   UNL     1       1.033  -0.714  -0.328  0.00  0.00    -0.030 C 
ATOM     23  C   UNL     1       0.002  -0.004   0.002  0.00  0.00    -0.031 C 
ENDBRANCH  14  20
ENDBRANCH   1  16
TORSDOF 3
