REMARK  Name = ZINC12282122
REMARK  7 active torsions:
REMARK  status: ('A' for Active; 'I' for Inactive)
REMARK    1  A    between atoms: C_1  and  O_2
REMARK    2  A    between atoms: O_2  and  C_3
REMARK    3  A    between atoms: C_8  and  C_9
REMARK    4  A    between atoms: C_13  and  O_15
REMARK    5  A    between atoms: O_15  and  C_16
REMARK    6  A    between atoms: C_21  and  C_22
REMARK    7  A    between atoms: C_21  and  N_51
REMARK                            x       y       z     vdW  Elec       q    Type
REMARK                         _______ _______ _______ _____ _____    ______ ____
ROOT
ATOM      1  C   UNL     1      -2.495  -0.003   0.025  0.00  0.00    -0.010 A 
ATOM      2  C   UNL     1      -3.489  -0.335  -0.896  0.00  0.00    +0.014 A 
ATOM      3  C   UNL     1      -4.692   0.338  -0.873  0.00  0.00    -0.018 A 
ATOM      4  C   UNL     1      -4.925   1.332   0.057  0.00  0.00    +0.163 A 
ATOM      5  C   UNL     1      -3.936   1.673   0.976  0.00  0.00    +0.162 A 
ATOM      6  C   UNL     1      -2.722   1.009   0.957  0.00  0.00    +0.058 A 
ATOM      7  O   UNL     1      -6.131   1.964   0.089  0.00  0.00    -0.490 OA
ATOM      8  C   UNL     1      -7.234   1.160   0.526  0.00  0.00    +0.211 C 
ATOM      9  C   UNL     1      -7.819   0.379  -0.631  0.00  0.00    -0.036 C 
ATOM     10  C   UNL     1      -5.768   0.005  -1.889  0.00  0.00    -0.039 C 
ATOM     11  N   UNL     1      -6.891  -0.639  -1.167  0.00  0.00    +0.388 N 
ATOM     12  H   UNL     1      -6.510  -1.183  -0.383  0.00  0.00    -0.081 HD
ENDROOT
BRANCH   1  18
ATOM     13  C   UNL     1       0.002  -0.004   0.002  0.00  0.00    +0.128 A 
ATOM     14  C   UNL     1       1.210  -0.683  -0.019  0.00  0.00    +0.047 A 
ATOM     15  C   UNL     1       1.228  -2.064  -0.021  0.00  0.00    +0.023 A 
ATOM     16  C   UNL     1       0.042  -2.779  -0.013  0.00  0.00    +0.042 A 
ATOM     17  C   UNL     1      -1.169  -2.114   0.002  0.00  0.00    +0.032 A 
ATOM     18  C   UNL     1      -1.198  -0.722   0.010  0.00  0.00    +0.025 A 
ATOM     19 CL   UNL     1       0.076  -4.514  -0.022  0.00  0.00    -0.084 Cl
BRANCH  13  21
ATOM     20  C   UNL     1       1.248   2.021   0.001  0.00  0.00    +0.277 C 
ATOM     21  O   UNL     1      -0.016   1.355   0.009  0.00  0.00    -0.495 OA
ENDBRANCH  13  21
ENDBRANCH   1  18
BRANCH   5  22
ATOM     22  O   UNL     1      -4.161   2.656   1.889  0.00  0.00    -0.491 OA
ATOM     23  C   UNL     1      -3.100   2.951   2.799  0.00  0.00    +0.277 C 
ENDBRANCH   5  22
BRANCH  11  24
ATOM     24  C   UNL     1      -7.614  -1.549  -2.070  0.00  0.00    -0.024 C 
BRANCH  24  25
ATOM     25  C   UNL     1      -8.131  -0.812  -3.279  0.00  0.00    -0.001 A 
ATOM     26  C   UNL     1      -7.511  -0.719  -4.473  0.00  0.00    +0.020 A 
ATOM     27  C   UNL     1      -8.334   0.054  -5.316  0.00  0.00    +0.019 A 
ATOM     28  C   UNL     1      -9.425   0.403  -4.606  0.00  0.00    +0.082 A 
ATOM     29  N   UNL     1      -9.309  -0.130  -3.356  0.00  0.00    -0.366 N 
ATOM     30  H   UNL     1      -9.957  -0.038  -2.640  0.00  0.00    +0.165 HD
ENDBRANCH  24  25
ENDBRANCH  11  24
TORSDOF 5
