REMARK  Name = ZINC10671585
REMARK  5 active torsions:
REMARK  status: ('A' for Active; 'I' for Inactive)
REMARK    1  A    between atoms: C_1  and  C_2
REMARK    2  A    between atoms: C_2  and  C_4
REMARK    3  A    between atoms: C_2  and  N_20
REMARK    4  A    between atoms: N_6  and  N_7
REMARK    5  A    between atoms: C_8  and  C_10
REMARK                            x       y       z     vdW  Elec       q    Type
REMARK                         _______ _______ _______ _____ _____    ______ ____
ROOT
ATOM      1  C   UNL     1       2.969   9.026  -0.577  0.00  0.00    +0.249 C 
ATOM      2  O   UNL     1       1.956   9.576  -0.954  0.00  0.00    -0.272 OA
ATOM      3  N   UNL     1       4.157   9.652  -0.689  0.00  0.00    -0.233 N 
ATOM      4  H   UNL     1       4.967   9.212  -0.387  0.00  0.00    +0.173 HD
ENDROOT
BRANCH   3   5
ATOM      5  N   UNL     1       4.222  10.938  -1.240  0.00  0.00    -0.229 N 
ATOM      6  C   UNL     1       5.411  11.564  -1.352  0.00  0.00    +0.278 C 
ATOM      7  O   UNL     1       6.426  11.012  -0.974  0.00  0.00    -0.267 OA
ATOM      8  H   UNL     1       3.412  11.378  -1.542  0.00  0.00    +0.173 HD
BRANCH   6   9
ATOM      9  C   UNL     1       5.480  12.925  -1.936  0.00  0.00    +0.127 A 
ATOM     10  C   UNL     1       6.725  13.561  -2.045  0.00  0.00    +0.034 A 
ATOM     11  C   UNL     1       6.802  14.814  -2.581  0.00  0.00    +0.012 A 
ATOM     12  C   UNL     1       5.611  15.430  -3.011  0.00  0.00    +0.000 A 
ATOM     13  C   UNL     1       5.617  16.717  -3.572  0.00  0.00    +0.010 A 
ATOM     14  C   UNL     1       4.446  17.280  -3.977  0.00  0.00    +0.001 A 
ATOM     15  C   UNL     1       3.238  16.596  -3.843  0.00  0.00    +0.002 A 
ATOM     16  C   UNL     1       3.194  15.348  -3.304  0.00  0.00    +0.028 A 
ATOM     17  C   UNL     1       4.384  14.731  -2.873  0.00  0.00    +0.072 A 
ATOM     18  N   UNL     1       4.370  13.507  -2.347  0.00  0.00    -0.242 NA
ENDBRANCH   6   9
ENDBRANCH   3   5
BRANCH   1  20
ATOM     19  C   UNL     1       3.436   7.674   1.449  0.00  0.00    +0.038 C 
ATOM     20  C   UNL     1       2.898   7.643   0.017  0.00  0.00    +0.157 C 
BRANCH  20  21
ATOM     21  N   UNL     1       1.507   7.186   0.027  0.00  0.00    -0.312 N 
ATOM     22  C   UNL     1       1.224   5.835   0.023  0.00  0.00    +0.160 A 
ATOM     23  N   UNL     1       0.053   5.238   0.030  0.00  0.00    -0.225 NA
ATOM     24  C   UNL     1      -0.075   3.893   0.024  0.00  0.00    +0.080 A 
ATOM     25  C   UNL     1      -1.265   3.130   0.031  0.00  0.00    +0.029 A 
ATOM     26  C   UNL     1      -1.219   1.760   0.017  0.00  0.00    +0.002 A 
ATOM     27  C   UNL     1      -0.013   1.076   0.008  0.00  0.00    +0.001 A 
ATOM     28  C   UNL     1       1.171   1.791   0.001  0.00  0.00    +0.017 A 
ATOM     29  C   UNL     1       1.135   3.162   0.008  0.00  0.00    +0.041 A 
ATOM     30  S   UNL     1       2.356   4.452   0.004  0.00  0.00    -0.052 S 
ATOM     31  H   UNL     1       0.784   7.832   0.037  0.00  0.00    +0.149 HD
ENDBRANCH  20  21
ENDBRANCH   1  20
TORSDOF 4
