REMARK  Name = ZINC01465521
REMARK  4 active torsions:
REMARK  status: ('A' for Active; 'I' for Inactive)
REMARK    1  A    between atoms: C_1  and  O_2
REMARK    2  A    between atoms: O_2  and  C_3
REMARK    3  A    between atoms: C_3  and  C_5
REMARK    4  A    between atoms: C_9  and  N_10
REMARK                            x       y       z     vdW  Elec       q    Type
REMARK                         _______ _______ _______ _____ _____    ______ ____
ROOT
ATOM      1  C   UNL     1      -0.018   1.459   0.010  0.00  0.00    +0.091 A 
ATOM      2  C   UNL     1      -1.279   2.201   0.020  0.00  0.00    -0.021 A 
ATOM      3  C   UNL     1      -1.154   3.540   0.033  0.00  0.00    -0.004 A 
ATOM      4  S   UNL     1       0.598   3.832   0.017  0.00  0.00    -0.077 S 
ATOM      5  C   UNL     1       1.157   2.194   0.003  0.00  0.00    +0.086 A 
ATOM      6  C   UNL     1      -2.491   4.231   0.053  0.00  0.00    +0.043 C 
ATOM      7  C   UNL     1      -3.489   3.136   0.491  0.00  0.00    +0.010 C 
ATOM      8  C   UNL     1      -2.768   1.853   0.032  0.00  0.00    +0.037 C 
ENDROOT
BRANCH   5   9
ATOM      9  N   UNL     1       2.462   1.731  -0.012  0.00  0.00    -0.277 N 
ATOM     10  C   UNL     1       3.514   2.628  -0.017  0.00  0.00    +0.225 A 
ATOM     11  N   UNL     1       3.274   3.936  -0.014  0.00  0.00    -0.184 NA
ATOM     12  C   UNL     1       4.282   4.791  -0.014  0.00  0.00    +0.228 A 
ATOM     13  N   UNL     1       5.530   4.347  -0.028  0.00  0.00    -0.187 NA
ATOM     14  C   UNL     1       5.771   3.045  -0.036  0.00  0.00    +0.228 A 
ATOM     15  N   UNL     1       4.767   2.184  -0.031  0.00  0.00    -0.184 NA
ATOM     16 CL   UNL     1       7.408   2.467  -0.055  0.00  0.00    -0.041 Cl
ATOM     17 CL   UNL     1       3.970   6.499  -0.003  0.00  0.00    -0.041 Cl
ATOM     18  H   UNL     1       2.638   0.777  -0.018  0.00  0.00    +0.156 HD
ENDBRANCH   5   9
BRANCH   1  19
ATOM     19  C   UNL     1       0.002  -0.004   0.002  0.00  0.00    +0.342 C 
ATOM     20  O   UNL     1       0.020  -0.618   1.052  0.00  0.00    -0.245 OA
BRANCH  19  22
ATOM     21  C   UNL     1       0.021  -2.123  -1.102  0.00  0.00    +0.280 C 
ATOM     22  O   UNL     1       0.001  -0.672  -1.170  0.00  0.00    -0.464 OA
ENDBRANCH  19  22
ENDBRANCH   1  19
TORSDOF 3
