REMARK  Name = ZINC50948429
REMARK  7 active torsions:
REMARK  status: ('A' for Active; 'I' for Inactive)
REMARK    1  A    between atoms: C_1  and  C_2
REMARK    2  A    between atoms: C_2  and  C_4
REMARK    3  A    between atoms: C_2  and  O_20
REMARK    4  A    between atoms: C_6  and  C_7
REMARK    5  A    between atoms: C_6  and  C_9
REMARK    6  A    between atoms: N_11  and  C_12
REMARK    7  A    between atoms: O_20  and  C_21
REMARK                            x       y       z     vdW  Elec       q    Type
REMARK                         _______ _______ _______ _____ _____    ______ ____
ROOT
ATOM      1  C   UNL     1      -2.074  -0.664   0.332  0.00  0.00    +0.218 C 
ATOM      2  O   UNL     1      -2.893   0.099  -0.413  0.00  0.00    -0.287 OA
ATOM      3  C   UNL     1      -2.584  -1.431   1.337  0.00  0.00    +0.159 C 
ENDROOT
BRANCH   3   4
ATOM      4  C   UNL     1      -1.679  -2.144   2.249  0.00  0.00    +0.262 C 
ATOM      5  O   UNL     1      -0.478  -1.961   2.180  0.00  0.00    -0.269 OA
ATOM      6  N   UNL     1      -2.179  -3.000   3.162  0.00  0.00    -0.281 N 
ATOM      7  H   UNL     1      -3.128  -3.200   3.170  0.00  0.00    +0.155 HD
BRANCH   6   8
ATOM      8  C   UNL     1      -1.329  -3.601   4.097  0.00  0.00    +0.035 A 
ATOM      9  C   UNL     1      -0.214  -2.917   4.564  0.00  0.00    +0.026 A 
ATOM     10  C   UNL     1       0.624  -3.511   5.487  0.00  0.00    +0.041 A 
ATOM     11  C   UNL     1       0.353  -4.788   5.948  0.00  0.00    +0.142 A 
ATOM     12  C   UNL     1      -0.759  -5.473   5.485  0.00  0.00    +0.078 A 
ATOM     13  C   UNL     1      -1.603  -4.880   4.565  0.00  0.00    +0.046 A 
ATOM     14 CL   UNL     1      -1.096  -7.074   6.065  0.00  0.00    -0.081 Cl
ATOM     15  F   UNL     1       1.175  -5.368   6.851  0.00  0.00    -0.204 F 
ENDBRANCH   6   8
ENDBRANCH   3   4
BRANCH   1  17
ATOM     16  C   UNL     1       0.089   0.406   0.900  0.00  0.00    +0.061 C 
ATOM     17  C   UNL     1      -0.593  -0.672   0.055  0.00  0.00    +0.242 C 
BRANCH  17  18
ATOM     18  O   UNL     1      -0.366  -0.407  -1.330  0.00  0.00    -0.481 OA
BRANCH  18  19
ATOM     19  C   UNL     1       0.812  -0.836  -1.855  0.00  0.00    +0.122 A 
ATOM     20  C   UNL     1       1.775  -1.401  -1.032  0.00  0.00    +0.045 A 
ATOM     21  C   UNL     1       2.971  -1.837  -1.569  0.00  0.00    +0.004 A 
ATOM     22  C   UNL     1       3.209  -1.709  -2.925  0.00  0.00    +0.000 A 
ATOM     23  C   UNL     1       2.252  -1.146  -3.747  0.00  0.00    +0.004 A 
ATOM     24  C   UNL     1       1.051  -0.715  -3.217  0.00  0.00    +0.045 A 
ENDBRANCH  18  19
ENDBRANCH  17  18
ENDBRANCH   1  17
BRANCH   3  25
ATOM     25  C   UNL     1      -4.002  -1.541   1.504  0.00  0.00    +0.108 C 
ATOM     26  N   UNL     1      -5.127  -1.629   1.637  0.00  0.00    -0.191 NA
ENDBRANCH   3  25
TORSDOF 6
