REMARK  Name = ZINC09095230
REMARK  6 active torsions:
REMARK  status: ('A' for Active; 'I' for Inactive)
REMARK    1  A    between atoms: C_1  and  C_2
REMARK    2  A    between atoms: C_2  and  C_3
REMARK    3  A    between atoms: C_13  and  C_15
REMARK    4  A    between atoms: C_23  and  C_25
REMARK    5  A    between atoms: C_25  and  C_26
REMARK    6  A    between atoms: C_25  and  C_27
REMARK                            x       y       z     vdW  Elec       q    Type
REMARK                         _______ _______ _______ _____ _____    ______ ____
ROOT
ATOM      1  C   UNL     1       0.341  -3.597   2.952  0.00  0.00    +0.034 C 
ATOM      2  N   UNL     1      -0.282  -4.595   2.461  0.00  0.00    -0.253 NA
ATOM      3  C   UNL     1      -0.149  -5.066   1.190  0.00  0.00    +0.089 A 
ATOM      4  C   UNL     1      -0.117  -6.459   1.028  0.00  0.00    +0.030 A 
ATOM      5  C   UNL     1       0.015  -7.017  -0.223  0.00  0.00    +0.002 A 
ATOM      6  C   UNL     1       0.118  -6.204  -1.340  0.00  0.00    +0.002 A 
ATOM      7  C   UNL     1       0.090  -4.835  -1.204  0.00  0.00    +0.030 A 
ATOM      8  C   UNL     1      -0.044  -4.245   0.062  0.00  0.00    +0.091 A 
ATOM      9  N   UNL     1      -0.065  -2.885   0.109  0.00  0.00    -0.234 NA
ATOM     10  C   UNL     1       0.527  -2.162   0.991  0.00  0.00    +0.115 C 
ATOM     11  C   UNL     1       1.306  -2.785   2.120  0.00  0.00    +0.127 C 
ATOM     12  N   UNL     1       0.453  -0.792   0.899  0.00  0.00    -0.273 N 
ATOM     13  C   UNL     1      -0.236  -0.221  -0.109  0.00  0.00    +0.221 C 
ATOM     14  O   UNL     1      -0.790  -0.915  -0.935  0.00  0.00    -0.275 OA
ATOM     15  H   UNL     1       0.896  -0.237   1.559  0.00  0.00    +0.156 HD
ENDROOT
BRANCH  11  16
ATOM     16  C   UNL     1       2.382  -3.681   1.563  0.00  0.00    -0.032 A 
ATOM     17  C   UNL     1       2.788  -4.795   2.272  0.00  0.00    +0.007 A 
ATOM     18  C   UNL     1       3.772  -5.621   1.760  0.00  0.00    +0.038 A 
ATOM     19  C   UNL     1       4.358  -5.324   0.541  0.00  0.00    +0.123 A 
ATOM     20  C   UNL     1       3.954  -4.204  -0.166  0.00  0.00    +0.038 A 
ATOM     21  C   UNL     1       2.967  -3.384   0.346  0.00  0.00    +0.007 A 
ATOM     22  F   UNL     1       5.324  -6.126   0.042  0.00  0.00    -0.205 F 
ENDBRANCH  11  16
BRANCH  13  23
ATOM     23  C   UNL     1      -0.317   1.280  -0.210  0.00  0.00    +0.069 C 
ATOM     24  C   UNL     1       1.092   1.859  -0.350  0.00  0.00    +0.017 C 
ATOM     25  C   UNL     1      -1.151   1.665  -1.434  0.00  0.00    +0.017 C 
ENDBRANCH  13  23
BRANCH   1  27
ATOM     26  C   UNL     1      -0.897  -4.188   5.018  0.00  0.00    +0.010 C 
ATOM     27  C   UNL     1       0.112  -3.222   4.394  0.00  0.00    +0.048 C 
ENDBRANCH   1  27
TORSDOF 3
