REMARK  Name = ZINC00179167
REMARK  7 active torsions:
REMARK  status: ('A' for Active; 'I' for Inactive)
REMARK    1  A    between atoms: C_1  and  C_2
REMARK    2  A    between atoms: C_2  and  C_3
REMARK    3  A    between atoms: C_2  and  C_4
REMARK    4  A    between atoms: C_4  and  C_5
REMARK    5  A    between atoms: C_7  and  C_25
REMARK    6  A    between atoms: C_8  and  N_24
REMARK    7  A    between atoms: C_15  and  C_18
REMARK                            x       y       z     vdW  Elec       q    Type
REMARK                         _______ _______ _______ _____ _____    ______ ____
ROOT
ATOM      1  C   UNL     1      -1.416  -2.058  -0.121  0.00  0.00    +0.071 C 
ATOM      2  C   UNL     1      -0.855  -2.433  -1.464  0.00  0.00    +0.094 C 
ATOM      3  C   UNL     1      -1.677  -2.817  -2.470  0.00  0.00    +0.198 C 
ATOM      4  O   UNL     1      -3.008  -2.872  -2.295  0.00  0.00    -0.445 OA
ATOM      5  C   UNL     1      -3.527  -2.966  -1.056  0.00  0.00    +0.115 C 
ATOM      6  C   UNL     1      -2.821  -2.588   0.021  0.00  0.00    +0.041 C 
ATOM      7  C   UNL     1      -3.370  -2.674   1.315  0.00  0.00    +0.164 C 
ATOM      8  O   UNL     1      -2.700  -2.338   2.271  0.00  0.00    -0.292 OA
ATOM      9  C   UNL     1      -4.772  -3.174   1.536  0.00  0.00    +0.088 C 
ATOM     10  C   UNL     1      -5.609  -2.870   0.288  0.00  0.00    +0.034 C 
ATOM     11  C   UNL     1      -4.928  -3.513  -0.911  0.00  0.00    +0.083 C 
ENDROOT
BRANCH  10  12
ATOM     12  C   UNL     1      -6.993  -3.442   0.456  0.00  0.00    -0.043 A 
ATOM     13  C   UNL     1      -7.161  -4.801   0.651  0.00  0.00    +0.004 A 
ATOM     14  C   UNL     1      -8.431  -5.325   0.804  0.00  0.00    +0.000 A 
ATOM     15  C   UNL     1      -9.533  -4.491   0.763  0.00  0.00    +0.000 A 
ATOM     16  C   UNL     1      -9.365  -3.133   0.569  0.00  0.00    +0.000 A 
ATOM     17  C   UNL     1      -8.095  -2.608   0.420  0.00  0.00    +0.004 A 
ENDBRANCH  10  12
BRANCH   3  18
ATOM     18  N   UNL     1      -1.142  -3.156  -3.688  0.00  0.00    -0.328 N 
ATOM     19  H   UNL     1      -0.182  -3.119  -3.823  0.00  0.00    +0.145 HD
ATOM     20  H   UNL     1      -1.723  -3.432  -4.414  0.00  0.00    +0.145 HD
ENDBRANCH   3  18
BRANCH   2  21
ATOM     21  C   UNL     1       0.560  -2.383  -1.682  0.00  0.00    +0.100 C 
ATOM     22  N   UNL     1       1.682  -2.343  -1.855  0.00  0.00    -0.191 NA
ENDBRANCH   2  21
BRANCH   1  23
ATOM     23  C   UNL     1      -1.433  -0.534   0.013  0.00  0.00    +0.017 C 
BRANCH  23  25
ATOM     24  C   UNL     1      -0.019   1.526   0.010  0.00  0.00    +0.007 C 
ATOM     25  C   UNL     1       0.002  -0.004   0.002  0.00  0.00    -0.016 C 
ATOM     26  C   UNL     1       0.742  -0.511   1.242  0.00  0.00    +0.007 C 
ENDBRANCH  23  25
ENDBRANCH   1  23
TORSDOF 5
