REMARK  Name = ZINC37523031
REMARK  4 active torsions:
REMARK  status: ('A' for Active; 'I' for Inactive)
REMARK    1  A    between atoms: C_1  and  C_2
REMARK    2  A    between atoms: C_5  and  N_8
REMARK    3  A    between atoms: N_14  and  C_20
REMARK    4  A    between atoms: C_17  and  C_19
REMARK                            x       y       z     vdW  Elec       q    Type
REMARK                         _______ _______ _______ _____ _____    ______ ____
ROOT
ATOM      1  N   UNL     1      -0.134  -4.300  -0.198  0.00  0.00    -0.269 N 
ATOM      2  C   UNL     1       0.174  -4.851   0.992  0.00  0.00    +0.307 C 
ATOM      3  O   UNL     1       0.342  -4.142   1.966  0.00  0.00    -0.252 OA
ATOM      4  N   UNL     1       0.297  -6.189   1.103  0.00  0.00    -0.273 N 
ATOM      5  C   UNL     1       0.267  -7.062  -0.082  0.00  0.00    +0.129 C 
ATOM      6  C   UNL     1       1.608  -7.794  -0.169  0.00  0.00    +0.132 C 
ATOM      7  N   UNL     1       1.983  -8.342   1.127  0.00  0.00    -0.268 N 
ATOM      8  C   UNL     1       1.518  -7.904   2.298  0.00  0.00    +0.240 C 
ATOM      9  O   UNL     1       1.965  -8.388   3.316  0.00  0.00    -0.273 OA
ATOM     10  C   UNL     1       0.471  -6.835   2.413  0.00  0.00    +0.161 C 
ATOM     11  C   UNL     1      -0.851  -7.465   2.854  0.00  0.00    +0.038 C 
ATOM     12  H   UNL     1      -0.402  -4.865  -0.940  0.00  0.00    +0.156 HD
ENDROOT
BRANCH   1  17
ATOM     13  C   UNL     1       0.134   1.327  -0.873  0.00  0.00    +0.044 C 
ATOM     14  C   UNL     1       0.063  -0.168  -0.693  0.00  0.00    -0.050 A 
ATOM     15  C   UNL     1       0.206  -1.001  -1.788  0.00  0.00    +0.005 A 
ATOM     16  C   UNL     1       0.141  -2.371  -1.627  0.00  0.00    +0.023 A 
ATOM     17  C   UNL     1      -0.067  -2.912  -0.365  0.00  0.00    +0.035 A 
ATOM     18  C   UNL     1      -0.210  -2.072   0.732  0.00  0.00    +0.023 A 
ATOM     19  C   UNL     1      -0.139  -0.703   0.566  0.00  0.00    +0.005 A 
ENDBRANCH   1  17
BRANCH   7  20
ATOM     20  C   UNL     1       2.894  -9.405   1.145  0.00  0.00    +0.036 A 
ATOM     21  C   UNL     1       2.499 -10.652   1.610  0.00  0.00    +0.025 A 
ATOM     22  C   UNL     1       3.400 -11.699   1.627  0.00  0.00    +0.022 A 
ATOM     23  C   UNL     1       4.696 -11.505   1.181  0.00  0.00    +0.041 A 
ATOM     24  C   UNL     1       5.092 -10.262   0.718  0.00  0.00    +0.022 A 
ATOM     25  C   UNL     1       4.193  -9.214   0.694  0.00  0.00    +0.025 A 
ATOM     26 CL   UNL     1       5.826 -12.822   1.204  0.00  0.00    -0.084 Cl
ENDBRANCH   7  20
TORSDOF 2
