REMARK  Name = ZINC66472255
REMARK  11 active torsions:
REMARK  status: ('A' for Active; 'I' for Inactive)
REMARK    1  A    between atoms: C_1  and  C_2
REMARK    2  A    between atoms: C_5  and  N_27
REMARK    3  A    between atoms: C_7  and  N_8
REMARK    4  A    between atoms: C_9  and  C_11
REMARK    5  A    between atoms: C_11  and  C_13
REMARK    6  A    between atoms: C_11  and  N_14
REMARK    7  A    between atoms: N_14  and  C_15
REMARK    8  A    between atoms: N_14  and  C_16
REMARK    9  A    between atoms: C_16  and  C_17
REMARK   10  A    between atoms: C_21  and  O_23
REMARK   11  A    between atoms: O_23  and  C_24
REMARK                            x       y       z     vdW  Elec       q    Type
REMARK                         _______ _______ _______ _____ _____    ______ ____
ROOT
ATOM      1  C   UNL     1      -0.154   0.034   4.866  0.00  0.00    +0.016 C 
ATOM      2  C   UNL     1       1.039   0.987   4.958  0.00  0.00    -0.004 C 
ENDROOT
BRANCH   1   4
ATOM      3  N   UNL     1      -0.638  -0.233   2.455  0.00  0.00    -0.287 N 
ATOM      4  C   UNL     1      -0.082  -0.739   3.574  0.00  0.00    +0.203 C 
ATOM      5  O   UNL     1       0.476  -1.815   3.541  0.00  0.00    -0.277 OA
ATOM      6  H   UNL     1      -1.027   0.655   2.465  0.00  0.00    +0.155 HD
BRANCH   3  13
ATOM      7  C   UNL     1      -2.777   0.175   0.624  0.00  0.00    +0.045 C 
ATOM      8  C   UNL     1      -1.680  -0.823   0.357  0.00  0.00    -0.029 A 
ATOM      9  C   UNL     1      -1.690  -1.569  -0.805  0.00  0.00    +0.007 A 
ATOM     10  C   UNL     1      -0.684  -2.484  -1.050  0.00  0.00    +0.033 A 
ATOM     11  C   UNL     1       0.336  -2.657  -0.132  0.00  0.00    +0.128 A 
ATOM     12  C   UNL     1       0.352  -1.915   1.032  0.00  0.00    +0.056 A 
ATOM     13  C   UNL     1      -0.654  -0.990   1.278  0.00  0.00    +0.038 A 
BRANCH  11  14
ATOM     14  N   UNL     1       1.411  -3.640  -0.398  0.00  0.00    +0.056 N 
ATOM     15  O   UNL     1       1.397  -4.290  -1.417  0.00  0.00    -0.126 OA
ATOM     16  O   UNL     1       2.303  -3.791   0.404  0.00  0.00    -0.126 OA
ENDBRANCH  11  14
ENDBRANCH   3  13
ENDBRANCH   1   4
BRANCH   1  17
ATOM     17  N   UNL     1      -0.122  -0.902   5.998  0.00  0.00    +0.388 N 
ATOM     18  C   UNL     1      -1.303  -1.774   5.947  0.00  0.00    -0.095 C 
ATOM     19  H   UNL     1       0.714  -1.464   5.946  0.00  0.00    -0.081 HD
BRANCH  17  20
ATOM     20  C   UNL     1      -0.125  -0.146   7.258  0.00  0.00    -0.042 C 
BRANCH  20  21
ATOM     21  C   UNL     1       0.032  -1.099   8.415  0.00  0.00    -0.060 A 
ATOM     22  C   UNL     1      -1.087  -1.655   9.008  0.00  0.00    +0.002 A 
ATOM     23  C   UNL     1      -0.946  -2.529  10.070  0.00  0.00    +0.004 A 
ATOM     24  C   UNL     1       0.313  -2.848  10.542  0.00  0.00    +0.046 A 
ATOM     25  C   UNL     1       1.436  -2.291   9.949  0.00  0.00    +0.127 A 
ATOM     26  C   UNL     1       1.293  -1.419   8.879  0.00  0.00    +0.047 A 
BRANCH  25  27
ATOM     27  O   UNL     1       2.675  -2.603  10.411  0.00  0.00    -0.434 OA
BRANCH  27  28
ATOM     28  C   UNL     1       2.748  -3.513  11.511  0.00  0.00    +0.541 C 
ATOM     29  F   UNL     1       2.063  -2.975  12.606  0.00  0.00    -0.166 F 
ATOM     30  F   UNL     1       2.164  -4.731  11.148  0.00  0.00    -0.166 F 
ENDBRANCH  27  28
ENDBRANCH  25  27
ENDBRANCH  20  21
ENDBRANCH  17  20
ENDBRANCH   1  17
TORSDOF 8
