REMARK  Name = ZINC09743800
REMARK  7 active torsions:
REMARK  status: ('A' for Active; 'I' for Inactive)
REMARK    1  A    between atoms: C_6  and  N_7
REMARK    2  A    between atoms: C_8  and  C_10
REMARK    3  A    between atoms: N_12  and  C_13
REMARK    4  A    between atoms: C_13  and  C_14
REMARK    5  A    between atoms: C_14  and  C_15
REMARK    6  A    between atoms: N_21  and  S_22
REMARK    7  A    between atoms: S_22  and  C_25
REMARK                            x       y       z     vdW  Elec       q    Type
REMARK                         _______ _______ _______ _____ _____    ______ ____
ROOT
ATOM      1  C   UNL     1      -0.870   1.178  -2.204  0.00  0.00    +0.039 C 
ENDROOT
BRANCH   1   2
ATOM      2  C   UNL     1      -1.353   1.929  -0.962  0.00  0.00    +0.081 C 
ATOM      3  C   UNL     1      -0.578   1.442   0.266  0.00  0.00    +0.021 C 
ATOM      4  C   UNL     1      -0.965   2.292   1.479  0.00  0.00    +0.003 C 
ATOM      5  C   UNL     1      -0.590   3.753   1.220  0.00  0.00    +0.017 C 
ATOM      6  C   UNL     1      -1.365   4.267   0.002  0.00  0.00    +0.110 C 
ATOM      7  N   UNL     1      -1.111   3.369  -1.133  0.00  0.00    -0.173 NA
BRANCH   7   8
ATOM      8  S   UNL     1      -0.564   3.967  -2.576  0.00  0.00    +0.061 S 
ATOM      9  O   UNL     1      -0.147   5.303  -2.330  0.00  0.00    -0.153 OA
ATOM     10  O   UNL     1       0.307   2.985  -3.119  0.00  0.00    -0.153 OA
BRANCH   8  11
ATOM     11  C   UNL     1      -1.951   4.064  -3.659  0.00  0.00    +0.106 A 
ATOM     12  C   UNL     1      -2.187   3.053  -4.572  0.00  0.00    +0.031 A 
ATOM     13  C   UNL     1      -3.277   3.125  -5.418  0.00  0.00    +0.040 A 
ATOM     14  C   UNL     1      -4.127   4.216  -5.359  0.00  0.00    +0.124 A 
ATOM     15  C   UNL     1      -3.887   5.231  -4.448  0.00  0.00    +0.040 A 
ATOM     16  C   UNL     1      -2.800   5.154  -3.599  0.00  0.00    +0.031 A 
ATOM     17  F   UNL     1      -5.191   4.290  -6.189  0.00  0.00    -0.205 F 
ENDBRANCH   8  11
ENDBRANCH   7   8
ENDBRANCH   1   2
BRANCH   1  18
ATOM     18  C   UNL     1      -1.294  -0.289  -2.110  0.00  0.00    +0.106 C 
BRANCH  18  21
ATOM     19  C   UNL     1      -1.158  -2.304  -3.474  0.00  0.00    +0.299 C 
ATOM     20  O   UNL     1      -1.788  -2.892  -2.619  0.00  0.00    -0.265 OA
ATOM     21  N   UNL     1      -0.817  -1.012  -3.292  0.00  0.00    -0.308 N 
ATOM     22  H   UNL     1      -0.257  -0.562  -3.943  0.00  0.00    +0.149 HD
BRANCH  19  24
ATOM     23  N   UNL     1      -1.101  -4.302  -4.910  0.00  0.00    -0.278 N 
ATOM     24  C   UNL     1      -0.760  -3.011  -4.728  0.00  0.00    +0.303 C 
ATOM     25  O   UNL     1      -0.130  -2.422  -5.583  0.00  0.00    -0.265 OA
ATOM     26  H   UNL     1      -1.676  -4.747  -4.269  0.00  0.00    +0.155 HD
BRANCH  23  32
ATOM     27  C   UNL     1      -1.417  -5.964  -6.632  0.00  0.00    +0.025 A 
ATOM     28  C   UNL     1      -0.946  -6.648  -7.736  0.00  0.00    +0.022 A 
ATOM     29  C   UNL     1       0.319  -6.381  -8.228  0.00  0.00    +0.041 A 
ATOM     30  C   UNL     1       1.114  -5.425  -7.621  0.00  0.00    +0.022 A 
ATOM     31  C   UNL     1       0.646  -4.734  -6.521  0.00  0.00    +0.025 A 
ATOM     32  C   UNL     1      -0.624  -5.000  -6.024  0.00  0.00    +0.034 A 
ATOM     33 CL   UNL     1       0.911  -7.248  -9.611  0.00  0.00    -0.084 Cl
ENDBRANCH  23  32
ENDBRANCH  19  24
ENDBRANCH  18  21
ENDBRANCH   1  18
TORSDOF 7
