REMARK  Name = ZINC48861741
REMARK  5 active torsions:
REMARK  status: ('A' for Active; 'I' for Inactive)
REMARK    1  A    between atoms: C_1  and  C_2
REMARK    2  A    between atoms: C_7  and  N_10
REMARK    3  A    between atoms: N_13  and  C_14
REMARK    4  A    between atoms: C_19  and  O_20
REMARK    5  A    between atoms: O_20  and  C_21
REMARK                            x       y       z     vdW  Elec       q    Type
REMARK                         _______ _______ _______ _____ _____    ______ ____
ROOT
ATOM      1  N   UNL     1      -0.613  -2.541   1.260  0.00  0.00    -0.296 N 
ATOM      2  C   UNL     1      -0.874  -3.774   1.740  0.00  0.00    +0.304 C 
ATOM      3  O   UNL     1       0.031  -4.463   2.169  0.00  0.00    -0.252 OA
ATOM      4  N   UNL     1      -2.137  -4.243   1.742  0.00  0.00    -0.266 N 
ATOM      5  H   UNL     1      -1.335  -1.992   0.918  0.00  0.00    +0.151 HD
ATOM      6  H   UNL     1      -2.868  -3.670   1.460  0.00  0.00    +0.156 HD
ENDROOT
BRANCH   1  12
ATOM      7  C   UNL     1      -0.025   1.543   0.060  0.00  0.00    +0.007 C 
ATOM      8  C   UNL     1      -0.001   0.013   0.040  0.00  0.00    -0.012 C 
ATOM      9  C   UNL     1       0.719  -0.469  -1.220  0.00  0.00    +0.003 C 
ATOM     10  C   UNL     1       0.743  -1.999  -1.241  0.00  0.00    +0.002 C 
ATOM     11  C   UNL     1       1.480  -2.514  -0.003  0.00  0.00    +0.022 C 
ATOM     12  C   UNL     1       0.760  -2.032   1.258  0.00  0.00    +0.075 C 
ATOM     13  C   UNL     1       0.737  -0.502   1.278  0.00  0.00    +0.025 C 
ENDBRANCH   1  12
BRANCH   4  14
ATOM     14  C   UNL     1      -2.396  -5.558   2.153  0.00  0.00    +0.078 A 
ATOM     15  C   UNL     1      -1.640  -6.132   3.164  0.00  0.00    +0.042 A 
ATOM     16  C   UNL     1      -1.897  -7.429   3.567  0.00  0.00    +0.020 A 
ATOM     17  C   UNL     1      -2.907  -8.157   2.964  0.00  0.00    +0.019 A 
ATOM     18  C   UNL     1      -3.665  -7.590   1.956  0.00  0.00    +0.048 A 
ATOM     19  C   UNL     1      -3.417  -6.289   1.551  0.00  0.00    +0.141 A 
ATOM     20 BR   UNL     1      -0.865  -8.211   4.945  0.00  0.00    -0.050 Br
BRANCH  19  21
ATOM     21  O   UNL     1      -4.166  -5.728   0.564  0.00  0.00    -0.493 OA
ATOM     22  C   UNL     1      -5.196  -6.537  -0.008  0.00  0.00    +0.277 C 
ENDBRANCH  19  21
ENDBRANCH   4  14
TORSDOF 3
