REMARK  Name = ZINC00801837
REMARK  6 active torsions:
REMARK  status: ('A' for Active; 'I' for Inactive)
REMARK    1  A    between atoms: C_1  and  C_2
REMARK    2  A    between atoms: C_2  and  O_3
REMARK    3  A    between atoms: O_3  and  C_4
REMARK    4  A    between atoms: C_4  and  C_6
REMARK    5  A    between atoms: C_12  and  N_46
REMARK    6  A    between atoms: N_17  and  C_20
REMARK                            x       y       z     vdW  Elec       q    Type
REMARK                         _______ _______ _______ _____ _____    ______ ____
ROOT
ATOM      1  C   UNL     1       0.012   1.231  -2.378  0.00  0.00    +0.029 C 
ATOM      2  C   UNL     1       0.143  -0.291  -2.590  0.00  0.00    +0.090 C 
ATOM      3  C   UNL     1       1.638  -0.523  -2.580  0.00  0.00    +0.225 C 
ATOM      4  O   UNL     1       2.183  -1.597  -2.717  0.00  0.00    -0.275 OA
ATOM      5  N   UNL     1       2.264   0.646  -2.397  0.00  0.00    -0.212 N 
ATOM      6  C   UNL     1       1.447   1.699  -2.271  0.00  0.00    +0.213 C 
ATOM      7  O   UNL     1       1.800   2.845  -2.098  0.00  0.00    -0.277 OA
ENDROOT
BRANCH   5   8
ATOM      8  C   UNL     1       3.661   0.758  -2.341  0.00  0.00    +0.045 A 
ATOM      9  C   UNL     1       4.361   0.200  -1.280  0.00  0.00    +0.025 A 
ATOM     10  C   UNL     1       5.737   0.311  -1.227  0.00  0.00    +0.023 A 
ATOM     11  C   UNL     1       6.418   0.979  -2.230  0.00  0.00    +0.059 A 
ATOM     12  C   UNL     1       5.722   1.537  -3.289  0.00  0.00    +0.061 A 
ATOM     13  C   UNL     1       4.345   1.423  -3.349  0.00  0.00    +0.045 A 
ATOM     14 CL   UNL     1       6.579   2.373  -4.546  0.00  0.00    -0.082 Cl
ATOM     15 CL   UNL     1       8.147   1.116  -2.160  0.00  0.00    -0.082 Cl
ENDBRANCH   5   8
BRANCH   1  21
ATOM     16  C   UNL     1      -2.866   1.441   0.041  0.00  0.00    +0.081 C 
ATOM     17  C   UNL     1      -2.159   0.912   1.292  0.00  0.00    +0.011 C 
ATOM     18  C   UNL     1      -0.718   1.430   1.311  0.00  0.00    -0.018 C 
ATOM     19  C   UNL     1      -0.006   0.987   0.031  0.00  0.00    -0.078 C 
ATOM     20  C   UNL     1      -2.092   0.999  -1.203  0.00  0.00    -0.063 C 
ATOM     21  N   UNL     1      -0.721   1.549  -1.135  0.00  0.00    +0.388 N 
ATOM     22  H   UNL     1      -0.777   2.569  -1.032  0.00  0.00    -0.081 HD
BRANCH  16  23
ATOM     23  C   UNL     1      -4.267   0.889  -0.016  0.00  0.00    +0.308 C 
ATOM     24  O   UNL     1      -4.612   0.211  -0.955  0.00  0.00    -0.251 OA
BRANCH  23  25
ATOM     25  O   UNL     1      -5.133   1.151   0.976  0.00  0.00    -0.465 OA
BRANCH  25  27
ATOM     26  C   UNL     1      -7.303   0.989   2.070  0.00  0.00    +0.048 C 
ATOM     27  C   UNL     1      -6.465   0.586   0.854  0.00  0.00    +0.229 C 
ENDBRANCH  25  27
ENDBRANCH  23  25
ENDBRANCH  16  23
ENDBRANCH   1  21
TORSDOF 5
