REMARK  Name = ZINC08771595
REMARK  4 active torsions:
REMARK  status: ('A' for Active; 'I' for Inactive)
REMARK    1  A    between atoms: C_10  and  N_12
REMARK    2  A    between atoms: C_13  and  C_15
REMARK    3  A    between atoms: C_15  and  N_16
REMARK    4  A    between atoms: C_21  and  O_29
REMARK                            x       y       z     vdW  Elec       q    Type
REMARK                         _______ _______ _______ _____ _____    ______ ____
ROOT
ATOM      1  N   UNL     1       6.869   2.958  -0.781  0.00  0.00    -0.290 N 
ATOM      2  C   UNL     1       7.737   3.754  -1.438  0.00  0.00    +0.307 C 
ATOM      3  O   UNL     1       7.998   3.536  -2.605  0.00  0.00    -0.252 OA
ATOM      4  N   UNL     1       8.314   4.791  -0.800  0.00  0.00    -0.245 N 
ATOM      5  C   UNL     1       8.026   5.081   0.614  0.00  0.00    +0.210 C 
ATOM      6  C   UNL     1       7.908   6.572   0.794  0.00  0.00    +0.206 C 
ATOM      7  N   UNL     1       8.528   7.402   0.018  0.00  0.00    -0.214 NA
ATOM      8  C   UNL     1       9.314   6.972  -1.018  0.00  0.00    +0.089 A 
ATOM      9  C   UNL     1       9.222   5.639  -1.454  0.00  0.00    +0.064 A 
ATOM     10  C   UNL     1      10.005   5.188  -2.498  0.00  0.00    +0.026 A 
ATOM     11  C   UNL     1      10.893   6.054  -3.114  0.00  0.00    +0.002 A 
ATOM     12  C   UNL     1      10.998   7.366  -2.687  0.00  0.00    +0.002 A 
ATOM     13  C   UNL     1      10.209   7.835  -1.645  0.00  0.00    +0.030 A 
ATOM     14  H   UNL     1       6.660   3.132   0.150  0.00  0.00    +0.151 HD
ENDROOT
BRANCH   6  15
ATOM     15  O   UNL     1       7.137   7.055   1.791  0.00  0.00    -0.494 OA
ATOM     16  H   UNL     1       7.115   8.020   1.838  0.00  0.00    +0.293 HD
ENDBRANCH   6  15
BRANCH   1  17
ATOM     17  C   UNL     1       6.241   1.831  -1.474  0.00  0.00    +0.201 C 
BRANCH  17  19
ATOM     18  N   UNL     1       4.631   0.029  -0.946  0.00  0.00    -0.307 N 
ATOM     19  C   UNL     1       5.321   1.107  -0.525  0.00  0.00    +0.231 C 
ATOM     20  O   UNL     1       5.202   1.495   0.618  0.00  0.00    -0.274 OA
ATOM     21  H   UNL     1       4.726  -0.282  -1.860  0.00  0.00    +0.149 HD
BRANCH  18  31
ATOM     22  C   UNL     1      -0.017   1.375   0.010  0.00  0.00    +0.000 A 
ATOM     23  C   UNL     1       1.174   2.078   0.002  0.00  0.00    +0.000 A 
ATOM     24  C   UNL     1       2.372   1.395  -0.010  0.00  0.00    +0.006 A 
ATOM     25  C   UNL     1       2.393   0.006  -0.017  0.00  0.00    -0.024 A 
ATOM     26  C   UNL     1       1.208  -0.694  -0.015  0.00  0.00    -0.042 A 
ATOM     27  C   UNL     1       0.002  -0.004   0.002  0.00  0.00    +0.004 A 
ATOM     28  C   UNL     1       1.155  -2.199  -0.038  0.00  0.00    +0.035 C 
ATOM     29  C   UNL     1       2.501  -2.790   0.375  0.00  0.00    +0.007 C 
ATOM     30  C   UNL     1       3.599  -2.130  -0.467  0.00  0.00    +0.027 C 
ATOM     31  C   UNL     1       3.737  -0.675  -0.023  0.00  0.00    +0.103 C 
ENDBRANCH  18  31
ENDBRANCH  17  19
ENDBRANCH   1  17
TORSDOF 4
