REMARK  Name = ZINC00334636
REMARK  5 active torsions:
REMARK  status: ('A' for Active; 'I' for Inactive)
REMARK    1  A    between atoms: C_1  and  C_2
REMARK    2  A    between atoms: C_2  and  O_3
REMARK    3  A    between atoms: O_3  and  C_4
REMARK    4  A    between atoms: C_7  and  C_14
REMARK    5  A    between atoms: C_19  and  C_21
REMARK                            x       y       z     vdW  Elec       q    Type
REMARK                         _______ _______ _______ _____ _____    ______ ____
ROOT
ATOM      1  C   UNL     1       1.200   3.166  -0.105  0.00  0.00    +0.128 A 
ATOM      2  C   UNL     1       1.170   1.807   0.139  0.00  0.00    +0.047 A 
ATOM      3  C   UNL     1      -0.019   1.104   0.184  0.00  0.00    +0.012 A 
ATOM      4  C   UNL     1      -1.239   1.755  -0.022  0.00  0.00    -0.015 A 
ATOM      5  C   UNL     1      -1.235   3.199  -0.276  0.00  0.00    -0.007 A 
ATOM      6  C   UNL     1       0.002   3.883  -0.316  0.00  0.00    +0.024 A 
ATOM      7  C   UNL     1       0.015   5.265  -0.565  0.00  0.00    +0.012 A 
ATOM      8  C   UNL     1      -1.161   5.924  -0.766  0.00  0.00    +0.001 A 
ATOM      9  C   UNL     1      -2.377   5.247  -0.727  0.00  0.00    +0.001 A 
ATOM     10  C   UNL     1      -2.423   3.905  -0.486  0.00  0.00    +0.009 A 
ENDROOT
BRANCH   4  11
ATOM     11  C   UNL     1      -2.455   1.035   0.020  0.00  0.00    +0.043 C 
ATOM     12  C   UNL     1      -2.446  -0.345  -0.092  0.00  0.00    +0.152 C 
ATOM     13  C   UNL     1      -3.612  -1.237  -0.203  0.00  0.00    +0.364 C 
ATOM     14  O   UNL     1      -4.787  -0.919  -0.216  0.00  0.00    -0.243 OA
ATOM     15  O   UNL     1      -3.099  -2.483  -0.289  0.00  0.00    -0.402 OA
ATOM     16  C   UNL     1      -1.755  -2.401  -0.231  0.00  0.00    +0.232 C 
ATOM     17  N   UNL     1      -1.357  -1.164  -0.116  0.00  0.00    -0.205 NA
BRANCH  16  18
ATOM     18  C   UNL     1      -0.848  -3.565  -0.289  0.00  0.00    +0.037 A 
ATOM     19  C   UNL     1       0.535  -3.380  -0.227  0.00  0.00    +0.013 A 
ATOM     20  C   UNL     1       1.376  -4.472  -0.277  0.00  0.00    +0.001 A 
ATOM     21  C   UNL     1       0.853  -5.747  -0.400  0.00  0.00    +0.000 A 
ATOM     22  C   UNL     1      -0.516  -5.937  -0.468  0.00  0.00    +0.001 A 
ATOM     23  C   UNL     1      -1.369  -4.855  -0.413  0.00  0.00    +0.013 A 
ENDBRANCH  16  18
ENDBRANCH   4  11
BRANCH   1  24
ATOM     24  O   UNL     1       2.388   3.817  -0.142  0.00  0.00    -0.492 OA
BRANCH  24  26
ATOM     25  C   UNL     1       4.798   3.934  -0.001  0.00  0.00    +0.048 C 
ATOM     26  C   UNL     1       3.563   3.034   0.079  0.00  0.00    +0.226 C 
ENDBRANCH  24  26
ENDBRANCH   1  24
TORSDOF 4
