REMARK  Name = ZINC41546925
REMARK  4 active torsions:
REMARK  status: ('A' for Active; 'I' for Inactive)
REMARK    1  A    between atoms: C_8  and  C_10
REMARK    2  A    between atoms: C_10  and  C_12
REMARK    3  A    between atoms: C_10  and  C_14
REMARK    4  A    between atoms: C_14  and  C_16
REMARK                            x       y       z     vdW  Elec       q    Type
REMARK                         _______ _______ _______ _____ _____    ______ ____
ROOT
ATOM      1  C   UNL     1       3.642  -3.377  -0.051  0.00  0.00    +0.243 C 
ENDROOT
BRANCH   1   9
ATOM      2  C   UNL     1      -0.017   1.373   0.010  0.00  0.00    +0.002 A 
ATOM      3  C   UNL     1       1.170   2.091   0.002  0.00  0.00    +0.004 A 
ATOM      4  C   UNL     1       2.384   1.437  -0.013  0.00  0.00    +0.048 A 
ATOM      5  C   UNL     1       2.421   0.051  -0.021  0.00  0.00    +0.155 A 
ATOM      6  C   UNL     1       1.223  -0.680  -0.013  0.00  0.00    +0.110 A 
ATOM      7  C   UNL     1       0.002  -0.004   0.002  0.00  0.00    +0.031 A 
ATOM      8  N   UNL     1       1.572  -1.995  -0.024  0.00  0.00    -0.212 NA
ATOM      9  C   UNL     1       2.868  -2.084  -0.037  0.00  0.00    +0.221 A 
ATOM     10  O   UNL     1       3.419  -0.860  -0.036  0.00  0.00    -0.438 OA
ENDBRANCH   1   9
BRANCH   1  11
ATOM     11  C   UNL     1       4.478  -3.435  -1.262  0.00  0.00    +0.083 C 
ATOM     12  N   UNL     1       5.122  -3.480  -2.196  0.00  0.00    -0.195 NA
ENDBRANCH   1  11
BRANCH   1  13
ATOM     13  C   UNL     1       4.522  -3.450   1.170  0.00  0.00    +0.163 C 
ATOM     14  O   UNL     1       4.880  -2.434   1.717  0.00  0.00    -0.295 OA
BRANCH  13  15
ATOM     15  C   UNL     1       4.955  -4.789   1.708  0.00  0.00    +0.061 C 
ATOM     16  C   UNL     1       6.259  -4.629   2.500  0.00  0.00    +0.015 C 
ATOM     17  C   UNL     1       6.768  -6.021   2.881  0.00  0.00    +0.027 C 
ATOM     18  C   UNL     1       5.661  -6.825   3.498  0.00  0.00    -0.031 C 
ATOM     19  C   UNL     1       4.405  -6.530   3.394  0.00  0.00    -0.030 C 
ATOM     20  C   UNL     1       3.878  -5.339   2.645  0.00  0.00    +0.038 C 
ENDBRANCH  13  15
ENDBRANCH   1  13
TORSDOF 4
