REMARK  Name = ZINC31822988
REMARK  9 active torsions:
REMARK  status: ('A' for Active; 'I' for Inactive)
REMARK    1  A    between atoms: C_1  and  C_2
REMARK    2  A    between atoms: C_3  and  C_28
REMARK    3  A    between atoms: C_7  and  N_27
REMARK    4  A    between atoms: C_9  and  S_11
REMARK    5  A    between atoms: S_11  and  C_12
REMARK    6  A    between atoms: C_12  and  C_14
REMARK    7  A    between atoms: C_12  and  C_15
REMARK    8  A    between atoms: N_17  and  C_18
REMARK    9  A    between atoms: N_17  and  C_19
REMARK                            x       y       z     vdW  Elec       q    Type
REMARK                         _______ _______ _______ _____ _____    ______ ____
ROOT
ATOM      1  C   UNL     1       4.265  -9.790   4.498  0.00  0.00    +0.045 C 
ATOM      2  C   UNL     1       4.154  -9.824   2.995  0.00  0.00    -0.028 A 
ATOM      3  C   UNL     1       4.219 -10.989   2.337  0.00  0.00    -0.008 A 
ATOM      4  S   UNL     1       4.042 -10.512   0.628  0.00  0.00    -0.073 S 
ATOM      5  C   UNL     1       3.887  -8.759   0.845  0.00  0.00    +0.115 A 
ATOM      6  C   UNL     1       3.977  -8.592   2.244  0.00  0.00    +0.050 A 
ATOM      7  C   UNL     1       3.881  -7.251   2.708  0.00  0.00    +0.129 A 
ATOM      8  N   UNL     1       3.719  -6.273   1.833  0.00  0.00    -0.207 NA
ATOM      9  C   UNL     1       3.642  -6.500   0.527  0.00  0.00    +0.192 A 
ATOM     10  N   UNL     1       3.720  -7.730   0.037  0.00  0.00    -0.214 NA
ATOM     11  C   UNL     1       4.399 -12.373   2.905  0.00  0.00    +0.052 C 
ENDROOT
BRANCH   7  12
ATOM     12  N   UNL     1       3.956  -6.973   4.061  0.00  0.00    -0.343 N 
ATOM     13  H   UNL     1       3.881  -5.934   4.414  0.00  0.00    +0.144 HD
ATOM     14  H   UNL     1       4.091  -7.791   4.784  0.00  0.00    +0.144 HD
ENDBRANCH   7  12
BRANCH   9  15
ATOM     15  S   UNL     1       3.426  -5.143  -0.575  0.00  0.00    -0.073 S 
BRANCH  15  16
ATOM     16  C   UNL     1       3.382  -3.777   0.613  0.00  0.00    +0.137 C 
ATOM     17  C   UNL     1       4.741  -3.662   1.307  0.00  0.00    +0.029 C 
BRANCH  16  18
ATOM     18  C   UNL     1       3.077  -2.491  -0.111  0.00  0.00    +0.229 C 
ATOM     19  O   UNL     1       3.260  -2.411  -1.308  0.00  0.00    -0.274 OA
ATOM     20  N   UNL     1       2.600  -1.431   0.570  0.00  0.00    -0.299 N 
ATOM     21  C   UNL     1       2.379  -1.528   2.015  0.00  0.00    +0.132 C 
BRANCH  20  22
ATOM     22  C   UNL     1       2.304  -0.181  -0.133  0.00  0.00    +0.098 C 
ATOM     23  C   UNL     1       3.172   0.949   0.445  0.00  0.00    +0.046 C 
ATOM     24  C   UNL     1       2.623   2.303  -0.089  0.00  0.00    +0.168 C 
ATOM     25  S   UNL     1       0.809   2.003   0.032  0.00  0.00    -0.029 S 
ATOM     26  O   UNL     1       0.185   2.461  -1.160  0.00  0.00    -0.174 OA
ATOM     27  O   UNL     1       0.346   2.473   1.290  0.00  0.00    -0.174 OA
ATOM     28  C   UNL     1       0.805   0.164   0.041  0.00  0.00    +0.188 C 
ENDBRANCH  20  22
ENDBRANCH  16  18
ENDBRANCH  15  16
ENDBRANCH   9  15
TORSDOF 5
