REMARK  Name = ZINC34860794
REMARK  4 active torsions:
REMARK  status: ('A' for Active; 'I' for Inactive)
REMARK    1  A    between atoms: C_1  and  C_2
REMARK    2  A    between atoms: C_6  and  C_7
REMARK    3  A    between atoms: N_8  and  N_9
REMARK    4  A    between atoms: C_10  and  C_12
REMARK                            x       y       z     vdW  Elec       q    Type
REMARK                         _______ _______ _______ _____ _____    ______ ____
ROOT
ATOM      1  N   UNL     1      -0.032  -2.439   3.315  0.00  0.00    -0.204 N 
ATOM      2  C   UNL     1      -0.213  -3.306   4.332  0.00  0.00    +0.276 C 
ATOM      3  O   UNL     1      -0.390  -2.891   5.458  0.00  0.00    -0.270 OA
ATOM      4  H   UNL     1       0.110  -2.771   2.415  0.00  0.00    +0.177 HD
ENDROOT
BRANCH   2   5
ATOM      5  C   UNL     1      -0.196  -4.790   4.069  0.00  0.00    +0.297 C 
ATOM      6  C   UNL     1       1.205  -5.218   3.611  0.00  0.00    +0.283 C 
ATOM      7  O   UNL     1       1.190  -6.631   3.385  0.00  0.00    -0.484 OA
ATOM      8  C   UNL     1       0.605  -7.398   4.345  0.00  0.00    +0.162 A 
ATOM      9  C   UNL     1       0.865  -8.760   4.381  0.00  0.00    +0.049 A 
ATOM     10  C   UNL     1       0.275  -9.552   5.348  0.00  0.00    +0.004 A 
ATOM     11  C   UNL     1      -0.576  -8.990   6.281  0.00  0.00    +0.004 A 
ATOM     12  C   UNL     1      -0.838  -7.633   6.252  0.00  0.00    +0.049 A 
ATOM     13  C   UNL     1      -0.248  -6.832   5.285  0.00  0.00    +0.163 A 
ATOM     14  O   UNL     1      -0.510  -5.497   5.274  0.00  0.00    -0.472 OA
ENDBRANCH   2   5
BRANCH   1  16
ATOM     15  C   UNL     1       0.232  -0.227   2.601  0.00  0.00    +0.145 C 
ATOM     16  N   UNL     1      -0.048  -1.060   3.559  0.00  0.00    -0.187 NA
BRANCH  15  22
ATOM     17  C   UNL     1       0.719   1.446   0.055  0.00  0.00    +0.045 C 
ATOM     18  C   UNL     1       0.987  -0.034   0.147  0.00  0.00    -0.035 A 
ATOM     19  C   UNL     1       1.483  -0.729  -0.931  0.00  0.00    +0.011 A 
ATOM     20  C   UNL     1       1.714  -2.063  -0.814  0.00  0.00    +0.046 A 
ATOM     21  S   UNL     1       1.224  -2.387   0.872  0.00  0.00    -0.095 S 
ATOM     22  C   UNL     1       0.747  -0.726   1.322  0.00  0.00    +0.035 A 
ENDBRANCH  15  22
ENDBRANCH   1  16
TORSDOF 3
