REMARK  Name = ZINC48311508
REMARK  7 active torsions:
REMARK  status: ('A' for Active; 'I' for Inactive)
REMARK    1  A    between atoms: C_1  and  C_2
REMARK    2  A    between atoms: C_4  and  C_7
REMARK    3  A    between atoms: C_17  and  C_33
REMARK    4  A    between atoms: C_18  and  C_32
REMARK    5  A    between atoms: C_22  and  C_24
REMARK    6  A    between atoms: C_24  and  N_25
REMARK    7  A    between atoms: C_28  and  C_31
REMARK                            x       y       z     vdW  Elec       q    Type
REMARK                         _______ _______ _______ _____ _____    ______ ____
ROOT
ATOM      1  C   UNL     1      -0.843  -2.834  -0.493  0.00  0.00    +0.285 C 
ATOM      2  O   UNL     1       0.184  -2.392  -0.971  0.00  0.00    -0.267 OA
ATOM      3  N   UNL     1      -0.834  -4.023   0.141  0.00  0.00    -0.292 N 
ATOM      4  C   UNL     1      -2.091  -4.647   0.578  0.00  0.00    +0.127 C 
ATOM      5  C   UNL     1      -2.172  -6.057  -0.021  0.00  0.00    +0.125 C 
ATOM      6  N   UNL     1      -0.906  -6.754   0.244  0.00  0.00    -0.312 N 
ATOM      7  C   UNL     1       0.351  -6.130  -0.193  0.00  0.00    +0.125 C 
ATOM      8  C   UNL     1       0.432  -4.723   0.401  0.00  0.00    +0.127 C 
ATOM      9  C   UNL     1      -0.897  -7.975   0.894  0.00  0.00    +0.133 A 
ATOM     10  C   UNL     1      -0.776  -9.183   0.154  0.00  0.00    +0.051 A 
ATOM     11  C   UNL     1      -0.651  -9.387  -1.278  0.00  0.00    -0.028 A 
ATOM     12  C   UNL     1      -0.549 -10.636  -1.756  0.00  0.00    -0.008 A 
ATOM     13  S   UNL     1      -0.616 -11.649  -0.290  0.00  0.00    -0.074 S 
ATOM     14  C   UNL     1      -0.778 -10.367   0.924  0.00  0.00    +0.114 A 
ATOM     15  N   UNL     1      -0.885 -10.332   2.238  0.00  0.00    -0.227 NA
ATOM     16  C   UNL     1      -0.994  -9.179   2.869  0.00  0.00    +0.116 A 
ATOM     17  N   UNL     1      -0.994  -8.033   2.213  0.00  0.00    -0.219 NA
ATOM     18  C   UNL     1      -0.412 -11.078  -3.190  0.00  0.00    +0.052 C 
ATOM     19  C   UNL     1      -0.636  -8.208  -2.217  0.00  0.00    +0.045 C 
ENDROOT
BRANCH   1  23
ATOM     20  C   UNL     1      -4.248   0.704  -1.771  0.00  0.00    +0.069 C 
ATOM     21  C   UNL     1      -3.616  -0.519  -1.158  0.00  0.00    +0.081 A 
ATOM     22  C   UNL     1      -2.278  -0.919  -1.313  0.00  0.00    +0.080 A 
ATOM     23  C   UNL     1      -2.099  -2.068  -0.606  0.00  0.00    +0.222 A 
ATOM     24  O   UNL     1      -3.276  -2.380  -0.028  0.00  0.00    -0.350 OA
ATOM     25  N   UNL     1      -4.214  -1.383  -0.389  0.00  0.00    -0.083 NA
ENDBRANCH   1  23
BRANCH  16  26
ATOM     26  C   UNL     1      -1.115  -9.169   4.371  0.00  0.00    -0.001 C 
BRANCH  26  27
ATOM     27  N   UNL     1       0.225  -9.096   4.969  0.00  0.00    +0.384 N 
ATOM     28  C   UNL     1       0.850  -7.817   4.613  0.00  0.00    -0.078 C 
ATOM     29  C   UNL     1       2.276  -7.769   5.165  0.00  0.00    -0.016 C 
ATOM     30  C   UNL     1       2.231  -7.910   6.690  0.00  0.00    -0.018 C 
ATOM     31  C   UNL     1       1.512  -9.213   7.051  0.00  0.00    -0.016 C 
ATOM     32  C   UNL     1       0.114  -9.207   6.428  0.00  0.00    -0.078 C 
ATOM     33  C   UNL     1       3.658  -7.944   7.242  0.00  0.00    +0.007 C 
ATOM     34  H   UNL     1       0.791  -9.854   4.617  0.00  0.00    -0.081 HD
ENDBRANCH  26  27
ENDBRANCH  16  26
TORSDOF 3
