REMARK  Name = ZINC20436571
REMARK  4 active torsions:
REMARK  status: ('A' for Active; 'I' for Inactive)
REMARK    1  A    between atoms: C_1  and  C_2
REMARK    2  A    between atoms: C_7  and  N_8
REMARK    3  A    between atoms: C_18  and  C_19
REMARK    4  A    between atoms: C_18  and  C_25
REMARK                            x       y       z     vdW  Elec       q    Type
REMARK                         _______ _______ _______ _____ _____    ______ ____
ROOT
ATOM      1  N   UNL     1       3.883   1.153  -0.263  0.00  0.00    -0.232 N 
ATOM      2  C   UNL     1       5.181   0.792  -0.260  0.00  0.00    +0.255 C 
ATOM      3  O   UNL     1       5.897   1.085   0.678  0.00  0.00    -0.269 OA
ATOM      4  C   UNL     1       5.725   0.034  -1.399  0.00  0.00    +0.058 A 
ATOM      5  C   UNL     1       6.994  -0.540  -1.357  0.00  0.00    +0.015 A 
ATOM      6  C   UNL     1       7.452  -1.256  -2.443  0.00  0.00    +0.001 A 
ATOM      7  C   UNL     1       6.662  -1.408  -3.572  0.00  0.00    +0.002 A 
ATOM      8  C   UNL     1       5.403  -0.840  -3.628  0.00  0.00    +0.024 A 
ATOM      9  C   UNL     1       4.929  -0.115  -2.549  0.00  0.00    +0.042 A 
ATOM     10  N   UNL     1       3.674   0.484  -2.563  0.00  0.00    -0.310 N 
ATOM     11  C   UNL     1       2.964   0.667  -1.292  0.00  0.00    +0.236 C 
ATOM     12  H   UNL     1       3.212   0.817  -3.504  0.00  0.00    +0.149 HD
ENDROOT
BRANCH   1  19
ATOM     13  C   UNL     1       4.352   3.944  -0.561  0.00  0.00    +0.045 C 
ATOM     14  C   UNL     1       3.614   3.382   0.626  0.00  0.00    -0.029 A 
ATOM     15  C   UNL     1       3.142   4.229   1.611  0.00  0.00    +0.005 A 
ATOM     16  C   UNL     1       2.464   3.714   2.701  0.00  0.00    +0.000 A 
ATOM     17  C   UNL     1       2.252   2.352   2.806  0.00  0.00    +0.002 A 
ATOM     18  C   UNL     1       2.725   1.499   1.829  0.00  0.00    +0.024 A 
ATOM     19  C   UNL     1       3.407   2.013   0.732  0.00  0.00    +0.042 A 
ENDBRANCH   1  19
BRANCH  11  20
ATOM     20  C   UNL     1       2.376  -0.650  -0.855  0.00  0.00    +0.005 A 
ATOM     21  C   UNL     1       1.312  -0.673   0.028  0.00  0.00    +0.008 A 
ATOM     22  C   UNL     1       0.770  -1.880   0.426  0.00  0.00    +0.000 A 
ATOM     23  C   UNL     1       1.298  -3.066  -0.052  0.00  0.00    +0.000 A 
ATOM     24  C   UNL     1       2.365  -3.043  -0.930  0.00  0.00    +0.000 A 
ATOM     25  C   UNL     1       2.904  -1.835  -1.331  0.00  0.00    +0.008 A 
ENDBRANCH  11  20
BRANCH  11  26
ATOM     26  C   UNL     1       1.853   1.667  -1.482  0.00  0.00    +0.402 C 
ATOM     27  O   UNL     1       1.541   2.403  -0.575  0.00  0.00    -0.242 OA
ATOM     28  O   UNL     1       1.209   1.740  -2.657  0.00  0.00    -0.242 OA
ENDBRANCH  11  26
TORSDOF 3
