REMARK  Name = ZINC65264862
REMARK  6 active torsions:
REMARK  status: ('A' for Active; 'I' for Inactive)
REMARK    1  A    between atoms: C_1  and  N_2
REMARK    2  A    between atoms: C_6  and  S_13
REMARK    3  A    between atoms: N_9  and  C_12
REMARK    4  A    between atoms: S_13  and  N_16
REMARK    5  A    between atoms: N_16  and  C_17
REMARK    6  A    between atoms: C_17  and  C_18
REMARK                            x       y       z     vdW  Elec       q    Type
REMARK                         _______ _______ _______ _____ _____    ______ ____
ROOT
ATOM      1  S   UNL     1      -4.040  -4.297  -0.002  0.00  0.00    +0.059 S 
ATOM      2  O   UNL     1      -3.351  -5.415   0.540  0.00  0.00    -0.153 OA
ATOM      3  O   UNL     1      -5.249  -3.803   0.557  0.00  0.00    -0.153 OA
ENDROOT
BRANCH   1   9
ATOM      4  C   UNL     1      -0.018   1.461   0.010  0.00  0.00    +0.154 C 
ATOM      5  N   UNL     1       0.002  -0.004   0.002  0.00  0.00    -0.295 N 
ATOM      6  C   UNL     1      -1.116  -0.835   0.003  0.00  0.00    +0.070 A 
ATOM      7  C   UNL     1      -2.481  -0.592   0.010  0.00  0.00    +0.030 A 
ATOM      8  C   UNL     1      -3.368  -1.651   0.009  0.00  0.00    +0.030 A 
ATOM      9  C   UNL     1      -2.899  -2.954  -0.000  0.00  0.00    +0.107 A 
ATOM     10  C   UNL     1      -1.541  -3.205  -0.007  0.00  0.00    +0.056 A 
ATOM     11  C   UNL     1      -0.643  -2.148  -0.007  0.00  0.00    +0.071 A 
ATOM     12  N   UNL     1       0.748  -2.075  -0.013  0.00  0.00    -0.295 N 
ATOM     13  C   UNL     1       1.104  -0.777  -0.013  0.00  0.00    +0.330 A 
ATOM     14  O   UNL     1       2.249  -0.365  -0.022  0.00  0.00    -0.246 OA
ATOM     15  C   UNL     1       1.666  -3.217  -0.023  0.00  0.00    +0.154 C 
ENDBRANCH   1   9
BRANCH   1  16
ATOM     16  N   UNL     1      -4.364  -4.662  -1.584  0.00  0.00    -0.186 NA
ATOM     17  H   UNL     1      -5.258  -4.535  -1.938  0.00  0.00    +0.148 HD
BRANCH  16  18
ATOM     18  C   UNL     1      -3.300  -5.176  -2.450  0.00  0.00    +0.141 C 
BRANCH  18  19
ATOM     19  C   UNL     1      -3.909  -5.768  -3.695  0.00  0.00    -0.024 A 
ATOM     20  C   UNL     1      -4.075  -7.115  -3.803  0.00  0.00    +0.005 A 
ATOM     21  C   UNL     1      -4.636  -7.679  -4.946  0.00  0.00    +0.001 A 
ATOM     22  C   UNL     1      -5.032  -6.901  -5.990  0.00  0.00    +0.008 A 
ATOM     23  C   UNL     1      -4.876  -5.507  -5.916  0.00  0.00    -0.018 A 
ATOM     24  C   UNL     1      -4.312  -4.931  -4.750  0.00  0.00    -0.013 A 
ATOM     25  C   UNL     1      -4.161  -3.536  -4.674  0.00  0.00    +0.009 A 
ATOM     26  C   UNL     1      -4.563  -2.758  -5.715  0.00  0.00    +0.001 A 
ATOM     27  C   UNL     1      -5.124  -3.323  -6.859  0.00  0.00    +0.001 A 
ATOM     28  C   UNL     1      -5.273  -4.670  -6.974  0.00  0.00    +0.008 A 
ENDBRANCH  18  19
ENDBRANCH  16  18
ENDBRANCH   1  16
TORSDOF 4
