REMARK  Name = ZINC43235640
REMARK  3 active torsions:
REMARK  status: ('A' for Active; 'I' for Inactive)
REMARK    1  A    between atoms: C_1  and  C_2
REMARK    2  A    between atoms: C_2  and  C_4
REMARK    3  A    between atoms: C_2  and  N_14
REMARK                            x       y       z     vdW  Elec       q    Type
REMARK                         _______ _______ _______ _____ _____    ______ ____
ROOT
ATOM      1  N   UNL     1      -1.421  -0.523  -0.059  0.00  0.00    -0.293 N 
ATOM      2  C   UNL     1      -1.986  -0.742  -1.263  0.00  0.00    +0.303 C 
ATOM      3  O   UNL     1      -1.329  -0.602  -2.277  0.00  0.00    -0.253 OA
ATOM      4  N   UNL     1      -3.278  -1.116  -1.344  0.00  0.00    -0.285 N 
ATOM      5  C   UNL     1      -3.937  -1.254  -2.650  0.00  0.00    +0.114 C 
ATOM      6  C   UNL     1      -5.213  -0.405  -2.651  0.00  0.00    +0.084 C 
ATOM      7  C   UNL     1      -6.085  -0.799  -1.457  0.00  0.00    +0.173 C 
ATOM      8  C   UNL     1      -5.329  -0.542  -0.152  0.00  0.00    +0.084 C 
ATOM      9  C   UNL     1      -4.053  -1.399  -0.128  0.00  0.00    +0.114 C 
ATOM     10  O   UNL     1      -7.295  -0.031  -1.471  0.00  0.00    -0.346 OA
ATOM     11  C   UNL     1      -8.392  -0.963  -1.560  0.00  0.00    +0.191 C 
ATOM     12  C   UNL     1      -7.772  -2.284  -1.042  0.00  0.00    +0.191 C 
ATOM     13  O   UNL     1      -6.419  -2.194  -1.550  0.00  0.00    -0.346 OA
ATOM     14  H   UNL     1      -1.921  -0.709   0.751  0.00  0.00    +0.151 HD
ENDROOT
BRANCH   1  16
ATOM     15  C   UNL     1      -0.089   1.525   0.038  0.00  0.00    +0.033 C 
ATOM     16  C   UNL     1      -0.054  -0.004   0.026  0.00  0.00    +0.102 C 
BRANCH  16  17
ATOM     17  C   UNL     1       0.594  -0.502   1.292  0.00  0.00    -0.020 A 
ATOM     18  C   UNL     1      -0.170  -0.818   2.373  0.00  0.00    +0.006 A 
ATOM     19  C   UNL     1       0.412  -1.280   3.552  0.00  0.00    +0.001 A 
ATOM     20  C   UNL     1       1.761  -1.427   3.657  0.00  0.00    +0.008 A 
ATOM     21  C   UNL     1       2.582  -1.111   2.562  0.00  0.00    -0.018 A 
ATOM     22  C   UNL     1       1.990  -0.647   1.361  0.00  0.00    -0.013 A 
ATOM     23  C   UNL     1       2.811  -0.336   0.263  0.00  0.00    +0.009 A 
ATOM     24  C   UNL     1       4.160  -0.489   0.366  0.00  0.00    +0.001 A 
ATOM     25  C   UNL     1       4.741  -0.951   1.546  0.00  0.00    +0.001 A 
ATOM     26  C   UNL     1       3.979  -1.249   2.633  0.00  0.00    +0.008 A 
ENDBRANCH  16  17
ENDBRANCH   1  16
TORSDOF 2
