REMARK  Name = ZINC64652831
REMARK  5 active torsions:
REMARK  status: ('A' for Active; 'I' for Inactive)
REMARK    1  A    between atoms: C_7  and  C_10
REMARK    2  A    between atoms: C_10  and  C_11
REMARK    3  A    between atoms: C_11  and  N_12
REMARK    4  A    between atoms: C_13  and  C_15
REMARK    5  A    between atoms: C_15  and  C_16
REMARK                            x       y       z     vdW  Elec       q    Type
REMARK                         _______ _______ _______ _____ _____    ______ ____
ROOT
ATOM      1  N   UNL     1      -0.204  -5.014  -1.462  0.00  0.00    -0.315 N 
ATOM      2  C   UNL     1      -0.741  -5.440  -2.623  0.00  0.00    +0.215 C 
ATOM      3  O   UNL     1      -0.410  -4.923  -3.669  0.00  0.00    -0.276 OA
ATOM      4  H   UNL     1      -0.469  -5.428  -0.626  0.00  0.00    +0.149 HD
ENDROOT
BRANCH   1   5
ATOM      5  C   UNL     1       0.778  -3.928  -1.464  0.00  0.00    +0.108 C 
BRANCH   5   6
ATOM      6  C   UNL     1       1.225  -3.642  -0.029  0.00  0.00    +0.052 C 
BRANCH   6  13
ATOM      7  C   UNL     1       0.837   0.889   0.585  0.00  0.00    +0.001 A 
ATOM      8  C   UNL     1       2.057   1.574   0.500  0.00  0.00    +0.002 A 
ATOM      9  C   UNL     1       3.229   0.949   0.260  0.00  0.00    +0.026 A 
ATOM     10  C   UNL     1       3.268  -0.461   0.081  0.00  0.00    +0.043 A 
ATOM     11  N   UNL     1       4.261  -1.284  -0.159  0.00  0.00    -0.380 N 
ATOM     12  C   UNL     1       3.727  -2.647  -0.253  0.00  0.00    +0.144 C 
ATOM     13  C   UNL     1       2.236  -2.524  -0.030  0.00  0.00    -0.040 C 
ATOM     14  C   UNL     1       1.993  -1.208   0.166  0.00  0.00    -0.001 A 
ATOM     15  C   UNL     1       0.763  -0.453   0.430  0.00  0.00    +0.010 A 
ATOM     16  H   UNL     1       5.193  -1.033  -0.258  0.00  0.00    +0.160 HD
ENDBRANCH   6  13
ENDBRANCH   5   6
ENDBRANCH   1   5
BRANCH   2  17
ATOM     17  C   UNL     1      -1.752  -6.557  -2.622  0.00  0.00    +0.119 C 
BRANCH  17  18
ATOM     18  C   UNL     1      -2.084  -6.947  -4.064  0.00  0.00    +0.098 C 
ATOM     19  C   UNL     1      -0.787  -7.441  -4.748  0.00  0.00    +0.095 C 
ATOM     20  S   UNL     1      -1.068  -9.267  -4.692  0.00  0.00    -0.117 S 
ATOM     21  C   UNL     1      -2.908  -9.190  -4.766  0.00  0.00    +0.222 C 
ATOM     22  N   UNL     1      -3.167  -7.918  -4.039  0.00  0.00    -0.266 N 
ATOM     23  C   UNL     1      -4.355  -7.744  -3.401  0.00  0.00    +0.246 C 
ATOM     24  O   UNL     1      -4.695  -6.638  -3.021  0.00  0.00    -0.270 OA
ATOM     25  C   UNL     1      -5.195  -8.872  -3.184  0.00  0.00    +0.031 C 
ATOM     26  C   UNL     1      -4.745 -10.107  -3.463  0.00  0.00    +0.014 C 
ATOM     27  N   UNL     1      -3.468 -10.274  -3.952  0.00  0.00    -0.320 N 
ATOM     28  C   UNL     1      -5.582 -11.346  -3.295  0.00  0.00    +0.051 C 
ATOM     29  C   UNL     1      -6.766 -11.077  -2.369  0.00  0.00    +0.006 C 
ATOM     30  C   UNL     1      -7.483  -9.814  -2.860  0.00  0.00    +0.005 C 
ATOM     31  C   UNL     1      -6.567  -8.616  -2.616  0.00  0.00    +0.042 C 
ATOM     32  H   UNL     1      -2.953 -11.072  -3.754  0.00  0.00    +0.148 HD
ENDBRANCH  17  18
ENDBRANCH   2  17
TORSDOF 5
