REMARK  Name = ZINC09090114
REMARK  7 active torsions:
REMARK  status: ('A' for Active; 'I' for Inactive)
REMARK    1  A    between atoms: C_1  and  C_2
REMARK    2  A    between atoms: C_2  and  C_3
REMARK    3  A    between atoms: C_3  and  C_4
REMARK    4  A    between atoms: C_4  and  C_5
REMARK    5  A    between atoms: C_5  and  C_6
REMARK    6  A    between atoms: C_6  and  N_7
REMARK    7  A    between atoms: N_22  and  C_24
REMARK                            x       y       z     vdW  Elec       q    Type
REMARK                         _______ _______ _______ _____ _____    ______ ____
ROOT
ATOM      1  N   UNL     1       1.484   8.232  -2.727  0.00  0.00    -0.225 N 
ATOM      2  C   UNL     1       0.752   7.534  -1.847  0.00  0.00    +0.240 C 
ATOM      3  O   UNL     1      -0.208   6.910  -2.244  0.00  0.00    -0.274 OA
ATOM      4  C   UNL     1       1.089   7.502  -0.384  0.00  0.00    +0.143 C 
ATOM      5  C   UNL     1       1.344   6.058   0.055  0.00  0.00    +0.064 C 
ATOM      6  C   UNL     1       0.043   5.299   0.097  0.00  0.00    -0.017 A 
ATOM      7  C   UNL     1       0.095   3.892   0.151  0.00  0.00    -0.013 A 
ATOM      8  C   UNL     1       1.329   3.217   0.147  0.00  0.00    +0.009 A 
ATOM      9  C   UNL     1       1.352   1.857   0.201  0.00  0.00    +0.001 A 
ATOM     10  C   UNL     1       0.170   1.121   0.262  0.00  0.00    +0.001 A 
ATOM     11  C   UNL     1      -1.042   1.741   0.264  0.00  0.00    +0.008 A 
ATOM     12  C   UNL     1      -1.105   3.144   0.214  0.00  0.00    -0.018 A 
ATOM     13  C   UNL     1      -2.337   3.820   0.220  0.00  0.00    +0.010 A 
ATOM     14  C   UNL     1      -2.362   5.175   0.159  0.00  0.00    +0.024 A 
ATOM     15  C   UNL     1      -1.176   5.931   0.090  0.00  0.00    +0.033 A 
ATOM     16  N   UNL     1      -1.307   7.318   0.015  0.00  0.00    -0.331 N 
ATOM     17  C   UNL     1      -0.099   8.036   0.428  0.00  0.00    +0.130 C 
ATOM     18  C   UNL     1      -2.477   7.777   0.774  0.00  0.00    +0.129 C 
ATOM     19  C   UNL     1       2.304   8.338  -0.099  0.00  0.00    +0.237 C 
ATOM     20  O   UNL     1       2.708   8.421   1.041  0.00  0.00    -0.274 OA
ATOM     21  N   UNL     1       2.954   8.995  -1.069  0.00  0.00    -0.239 N 
ATOM     22  C   UNL     1       2.557   8.944  -2.350  0.00  0.00    +0.315 C 
ATOM     23  O   UNL     1       3.185   9.558  -3.189  0.00  0.00    -0.252 OA
ATOM     24  H   UNL     1       3.841   9.599  -0.826  0.00  0.00    +0.159 HD
ENDROOT
BRANCH   1  25
ATOM     25  C   UNL     1       1.102   8.216  -4.141  0.00  0.00    +0.118 C 
BRANCH  25  26
ATOM     26  C   UNL     1       1.809   7.059  -4.848  0.00  0.00    +0.019 C 
BRANCH  26  27
ATOM     27  C   UNL     1       1.410   7.043  -6.325  0.00  0.00    +0.002 C 
BRANCH  27  28
ATOM     28  C   UNL     1       2.117   5.885  -7.032  0.00  0.00    -0.000 C 
BRANCH  28  30
ATOM     29  C   UNL     1       2.425   4.711  -9.216  0.00  0.00    +0.004 C 
ATOM     30  C   UNL     1       1.718   5.869  -8.509  0.00  0.00    -0.003 C 
ENDBRANCH  28  30
ENDBRANCH  27  28
ENDBRANCH  26  27
ENDBRANCH  25  26
ENDBRANCH   1  25
TORSDOF 5
