REMARK  Name = ZINC38740213
REMARK  6 active torsions:
REMARK  status: ('A' for Active; 'I' for Inactive)
REMARK    1  A    between atoms: C_1  and  C_2
REMARK    2  A    between atoms: C_9  and  C_10
REMARK    3  A    between atoms: C_9  and  C_11
REMARK    4  A    between atoms: C_13  and  N_15
REMARK    5  A    between atoms: C_16  and  C_18
REMARK    6  A    between atoms: C_24  and  C_26
REMARK                            x       y       z     vdW  Elec       q    Type
REMARK                         _______ _______ _______ _____ _____    ______ ____
ROOT
ATOM      1  C   UNL     1      -0.986  -0.470   5.588  0.00  0.00    +0.087 C 
ATOM      2  C   UNL     1      -1.955   0.709   5.476  0.00  0.00    +0.013 C 
ATOM      3  C   UNL     1      -1.167   2.020   5.481  0.00  0.00    +0.001 C 
ATOM      4  C   UNL     1      -0.374   2.134   6.785  0.00  0.00    +0.001 C 
ATOM      5  C   UNL     1       0.595   0.955   6.897  0.00  0.00    +0.013 C 
ATOM      6  C   UNL     1      -0.193  -0.356   6.892  0.00  0.00    +0.087 C 
ENDROOT
BRANCH   6   7
ATOM      7  C   UNL     1       0.762  -1.517   7.002  0.00  0.00    +0.219 C 
ATOM      8  O   UNL     1       1.922  -1.380   6.678  0.00  0.00    -0.275 OA
ATOM      9  N   UNL     1       0.326  -2.707   7.462  0.00  0.00    -0.298 N 
ATOM     10  C   UNL     1      -1.099  -2.920   7.752  0.00  0.00    +0.126 C 
ATOM     11  C   UNL     1      -1.584  -4.139   6.958  0.00  0.00    +0.125 C 
ATOM     12  N   UNL     1      -0.643  -5.247   7.177  0.00  0.00    -0.314 N 
ATOM     13  C   UNL     1       0.782  -5.033   6.886  0.00  0.00    +0.125 C 
ATOM     14  C   UNL     1       1.266  -3.816   7.675  0.00  0.00    +0.126 C 
ATOM     15  C   UNL     1      -1.092  -6.474   7.651  0.00  0.00    +0.099 A 
ATOM     16  C   UNL     1      -2.417  -6.615   8.050  0.00  0.00    +0.042 A 
ATOM     17  C   UNL     1      -2.851  -7.841   8.519  0.00  0.00    +0.005 A 
ATOM     18  C   UNL     1      -1.942  -8.890   8.574  0.00  0.00    +0.018 A 
ATOM     19  C   UNL     1      -0.642  -8.679   8.161  0.00  0.00    +0.084 A 
ATOM     20  N   UNL     1      -0.257  -7.499   7.713  0.00  0.00    -0.350 N 
ATOM     21  H   UNL     1       0.662  -7.379   7.425  0.00  0.00    +0.166 HD
ENDBRANCH   6   7
BRANCH   1  23
ATOM     22  N   UNL     1      -0.512  -0.540   3.162  0.00  0.00    -0.312 N 
ATOM     23  C   UNL     1      -0.035  -0.451   4.419  0.00  0.00    +0.217 C 
ATOM     24  O   UNL     1       1.159  -0.356   4.610  0.00  0.00    -0.275 OA
ATOM     25  H   UNL     1      -1.467  -0.616   3.009  0.00  0.00    +0.149 HD
BRANCH  22  35
ATOM     26  C   UNL     1      -0.190   1.503   0.659  0.00  0.00    +0.009 C 
ATOM     27  C   UNL     1      -0.326  -0.017   0.787  0.00  0.00    +0.010 C 
ATOM     28  C   UNL     1       0.131  -0.713  -0.494  0.00  0.00    -0.000 C 
ATOM     29  C   UNL     1      -0.188  -2.226  -0.396  0.00  0.00    +0.008 C 
ATOM     30  C   UNL     1       1.156  -2.302   0.359  0.00  0.00    -0.003 C 
ATOM     31  C   UNL     1       1.600  -1.137  -0.538  0.00  0.00    -0.029 C 
ATOM     32  C   UNL     1       2.058  -1.596  -1.937  0.00  0.00    +0.011 C 
ATOM     33  C   UNL     1       2.618  -0.185   0.082  0.00  0.00    +0.011 C 
ATOM     34  C   UNL     1       0.992  -1.922   1.829  0.00  0.00    +0.026 C 
ATOM     35  C   UNL     1       0.419  -0.522   2.017  0.00  0.00    +0.076 C 
ENDBRANCH  22  35
ENDBRANCH   1  23
TORSDOF 3
