REMARK  Name = ZINC15723198
REMARK  4 active torsions:
REMARK  status: ('A' for Active; 'I' for Inactive)
REMARK    1  A    between atoms: C_1  and  C_2
REMARK    2  A    between atoms: C_14  and  C_15
REMARK    3  A    between atoms: N_17  and  C_18
REMARK    4  A    between atoms: C_24  and  C_26
REMARK                            x       y       z     vdW  Elec       q    Type
REMARK                         _______ _______ _______ _____ _____    ______ ____
ROOT
ATOM      1  C   UNL     1       6.084   2.165  -0.234  0.00  0.00    +0.008 C 
ATOM      2  C   UNL     1       4.797   1.370  -0.468  0.00  0.00    -0.009 C 
ATOM      3  C   UNL     1       4.833   0.075   0.353  0.00  0.00    +0.010 C 
ATOM      4  C   UNL     1       3.647  -0.792  -0.067  0.00  0.00    +0.056 C 
ATOM      5  C   UNL     1       2.370   0.003  -0.029  0.00  0.00    +0.050 A 
ATOM      6  C   UNL     1       2.345   1.353  -0.015  0.00  0.00    -0.008 A 
ATOM      7  C   UNL     1       1.104   2.014   0.002  0.00  0.00    +0.118 A 
ATOM      8  N   UNL     1      -0.016   1.329   0.009  0.00  0.00    -0.235 NA
ATOM      9  C   UNL     1       0.002  -0.004   0.002  0.00  0.00    +0.168 A 
ATOM     10  N   UNL     1       1.185  -0.682  -0.017  0.00  0.00    -0.218 N 
ATOM     11  N   UNL     1       0.902  -2.052  -0.020  0.00  0.00    -0.172 NA
ATOM     12  C   UNL     1      -0.393  -2.230  -0.004  0.00  0.00    +0.150 A 
ATOM     13  C   UNL     1      -1.021  -0.972   0.010  0.00  0.00    +0.100 A 
ATOM     14  C   UNL     1       3.594   2.193  -0.013  0.00  0.00    +0.041 C 
ENDROOT
BRANCH  13  15
ATOM     15  C   UNL     1      -2.464  -0.716   0.031  0.00  0.00    +0.249 C 
ATOM     16  O   UNL     1      -2.880   0.428   0.042  0.00  0.00    -0.270 OA
ATOM     17  N   UNL     1      -3.331  -1.748   0.037  0.00  0.00    -0.308 N 
ATOM     18  H   UNL     1      -3.000  -2.660   0.028  0.00  0.00    +0.149 HD
BRANCH  17  19
ATOM     19  C   UNL     1      -4.773  -1.493   0.057  0.00  0.00    +0.076 C 
ATOM     20  C   UNL     1      -5.235  -1.288   1.501  0.00  0.00    +0.022 C 
ATOM     21  C   UNL     1      -4.928  -2.545   2.318  0.00  0.00    +0.002 C 
ATOM     22  C   UNL     1      -5.665  -3.740   1.712  0.00  0.00    +0.000 C 
ATOM     23  C   UNL     1      -5.204  -3.945   0.268  0.00  0.00    +0.005 C 
ATOM     24  C   UNL     1      -5.511  -2.688  -0.549  0.00  0.00    +0.006 C 
ATOM     25  C   UNL     1      -5.050  -2.893  -1.994  0.00  0.00    +0.009 C 
ENDBRANCH  17  19
ENDBRANCH  13  15
TORSDOF 2
