REMARK  Name = ZINC39466116
REMARK  6 active torsions:
REMARK  status: ('A' for Active; 'I' for Inactive)
REMARK    1  A    between atoms: C_1  and  C_2
REMARK    2  A    between atoms: C_2  and  C_3
REMARK    3  A    between atoms: C_2  and  S_4
REMARK    4  A    between atoms: S_4  and  P_7
REMARK    5  A    between atoms: C_15  and  O_24
REMARK    6  A    between atoms: O_24  and  C_25
REMARK                            x       y       z     vdW  Elec       q    Type
REMARK                         _______ _______ _______ _____ _____    ______ ____
ROOT
ATOM      1  P   UNL     1      -1.503  -2.736   0.180  0.00  0.00    +0.419 P 
ATOM      2  O   UNL     1      -0.828  -3.088   1.450  0.00  0.00    -0.246 OA
ATOM      3  N   UNL     1      -2.989  -3.457   0.101  0.00  0.00    -0.161 NA
ATOM      4  N   UNL     1      -3.010  -4.786  -0.259  0.00  0.00    -0.224 NA
ATOM      5  C   UNL     1      -4.399  -5.269  -0.301  0.00  0.00    +0.108 C 
ATOM      6  C   UNL     1      -4.387  -6.796  -0.369  0.00  0.00    +0.052 C 
ATOM      7  C   UNL     1      -3.489  -7.247  -1.492  0.00  0.00    -0.038 A 
ATOM      8  C   UNL     1      -3.634  -8.537  -1.978  0.00  0.00    +0.051 A 
ATOM      9  C   UNL     1      -2.828  -8.989  -3.009  0.00  0.00    +0.139 A 
ATOM     10  C   UNL     1      -1.871  -8.144  -3.555  0.00  0.00    +0.083 A 
ATOM     11  C   UNL     1      -1.731  -6.860  -3.069  0.00  0.00    +0.029 A 
ATOM     12  C   UNL     1      -2.540  -6.407  -2.035  0.00  0.00    -0.022 A 
ATOM     13  C   UNL     1      -2.344  -4.997  -1.544  0.00  0.00    +0.130 C 
ATOM     14  C   UNL     1      -0.843  -4.708  -1.439  0.00  0.00    +0.195 C 
ATOM     15  O   UNL     1      -0.664  -3.323  -1.083  0.00  0.00    -0.298 OA
ATOM     16 CL   UNL     1      -0.854  -8.700  -4.848  0.00  0.00    -0.080 Cl
ATOM     17  H   UNL     1      -3.804  -2.969   0.298  0.00  0.00    +0.152 HD
ENDROOT
BRANCH   1  18
ATOM     18  S   UNL     1      -1.700  -0.632   0.015  0.00  0.00    +0.058 S 
ATOM     19  O   UNL     1      -2.359  -0.234   1.209  0.00  0.00    -0.164 OA
ATOM     20  O   UNL     1      -2.308  -0.423  -1.252  0.00  0.00    -0.164 OA
BRANCH  18  22
ATOM     21  C   UNL     1      -0.019   1.526   0.010  0.00  0.00    +0.032 C 
ATOM     22  C   UNL     1       0.002  -0.004   0.002  0.00  0.00    +0.136 C 
ATOM     23  C   UNL     1       0.742  -0.511   1.242  0.00  0.00    +0.032 C 
ENDBRANCH  18  22
ENDBRANCH   1  18
BRANCH   9  24
ATOM     24  O   UNL     1      -2.971 -10.255  -3.483  0.00  0.00    -0.494 OA
ATOM     25  C   UNL     1      -3.976 -11.067  -2.871  0.00  0.00    +0.277 C 
ENDBRANCH   9  24
TORSDOF 3
