REMARK  Name = ZINC08745450
REMARK  4 active torsions:
REMARK  status: ('A' for Active; 'I' for Inactive)
REMARK    1  A    between atoms: C_4  and  C_7
REMARK    2  A    between atoms: C_7  and  C_8
REMARK    3  A    between atoms: C_7  and  C_14
REMARK    4  A    between atoms: C_20  and  C_22
REMARK                            x       y       z     vdW  Elec       q    Type
REMARK                         _______ _______ _______ _____ _____    ______ ____
ROOT
ATOM      1  C   UNL     1       1.106   2.087  -0.122  0.00  0.00    +0.228 C 
ATOM      2  O   UNL     1       1.130   2.852  -1.062  0.00  0.00    -0.275 OA
ATOM      3  N   UNL     1       2.081   2.132   0.808  0.00  0.00    -0.291 N 
ATOM      4  C   UNL     1       2.176   1.264   1.996  0.00  0.00    +0.108 C 
ATOM      5  C   UNL     1       3.030   2.069   3.007  0.00  0.00    +0.021 C 
ATOM      6  C   UNL     1       4.058   2.756   2.070  0.00  0.00    +0.032 C 
ATOM      7  C   UNL     1       3.230   3.050   0.801  0.00  0.00    +0.144 C 
ENDROOT
BRANCH   7   8
ATOM      8  C   UNL     1       4.069   2.812  -0.428  0.00  0.00    +0.158 A 
ATOM      9  N   UNL     1       4.434   1.649  -0.903  0.00  0.00    -0.132 NA
ATOM     10  N   UNL     1       5.144   1.804  -1.965  0.00  0.00    -0.129 NA
ATOM     11  C   UNL     1       5.270   3.095  -2.227  0.00  0.00    +0.161 A 
ATOM     12  N   UNL     1       4.579   3.769  -1.250  0.00  0.00    -0.285 N 
ATOM     13  C   UNL     1       4.523   5.131  -1.259  0.00  0.00    +0.094 A 
ATOM     14  C   UNL     1       5.143   5.837  -2.228  0.00  0.00    +0.018 A 
ATOM     15  C   UNL     1       5.856   5.175  -3.243  0.00  0.00    +0.005 A 
ATOM     16  C   UNL     1       5.926   3.817  -3.243  0.00  0.00    +0.048 A 
ENDBRANCH   7   8
BRANCH   1  17
ATOM     17  C   UNL     1      -0.013   1.086   0.008  0.00  0.00    +0.135 C 
BRANCH  17  21
ATOM     18  C   UNL     1      -2.707   1.530  -3.277  0.00  0.00    +0.000 A 
ATOM     19  C   UNL     1      -2.403   2.618  -2.480  0.00  0.00    +0.000 A 
ATOM     20  C   UNL     1      -1.531   2.474  -1.417  0.00  0.00    +0.005 A 
ATOM     21  C   UNL     1      -0.964   1.242  -1.151  0.00  0.00    -0.031 A 
ATOM     22  C   UNL     1      -1.264   0.155  -1.950  0.00  0.00    +0.005 A 
ATOM     23  C   UNL     1      -2.139   0.298  -3.011  0.00  0.00    +0.000 A 
ENDBRANCH  17  21
BRANCH  17  24
ATOM     24  C   UNL     1      -0.752   1.323   1.300  0.00  0.00    -0.031 A 
ATOM     25  C   UNL     1      -1.173   2.597   1.631  0.00  0.00    +0.005 A 
ATOM     26  C   UNL     1      -1.854   2.814   2.814  0.00  0.00    +0.000 A 
ATOM     27  C   UNL     1      -2.107   1.758   3.670  0.00  0.00    +0.000 A 
ATOM     28  C   UNL     1      -1.681   0.485   3.341  0.00  0.00    +0.000 A 
ATOM     29  C   UNL     1      -1.003   0.267   2.156  0.00  0.00    +0.005 A 
ENDBRANCH  17  24
ENDBRANCH   1  17
TORSDOF 4
