REMARK  Name = ZINC58264447
REMARK  11 active torsions:
REMARK  status: ('A' for Active; 'I' for Inactive)
REMARK    1  A    between atoms: C_1  and  C_2
REMARK    2  A    between atoms: C_5  and  C_28
REMARK    3  A    between atoms: N_8  and  C_10
REMARK    4  A    between atoms: C_10  and  C_11
REMARK    5  A    between atoms: C_11  and  N_12
REMARK    6  A    between atoms: C_13  and  C_15
REMARK    7  A    between atoms: N_18  and  C_24
REMARK    8  A    between atoms: C_19  and  C_20
REMARK    9  A    between atoms: C_24  and  C_25
REMARK   10  A    between atoms: C_24  and  C_26
REMARK   11  A    between atoms: C_24  and  C_27
REMARK                            x       y       z     vdW  Elec       q    Type
REMARK                         _______ _______ _______ _____ _____    ______ ____
ROOT
ATOM      1  N   UNL     1       4.832  -2.936   2.018  0.00  0.00    -0.313 N 
ATOM      2  C   UNL     1       6.132  -2.869   2.364  0.00  0.00    +0.248 C 
ATOM      3  O   UNL     1       6.980  -2.685   1.512  0.00  0.00    -0.270 OA
ATOM      4  H   UNL     1       4.156  -3.083   2.699  0.00  0.00    +0.149 HD
ENDROOT
BRANCH   2   5
ATOM      5  C   UNL     1       6.528  -3.018   3.777  0.00  0.00    +0.086 A 
ATOM      6  C   UNL     1       5.663  -3.241   4.871  0.00  0.00    +0.148 A 
ATOM      7  N   UNL     1       6.390  -3.317   5.952  0.00  0.00    -0.178 NA
ATOM      8  N   UNL     1       7.736  -3.148   5.605  0.00  0.00    -0.254 N 
ATOM      9  C   UNL     1       7.814  -2.972   4.277  0.00  0.00    +0.154 A 
BRANCH   9  10
ATOM     10  C   UNL     1       9.075  -2.759   3.478  0.00  0.00    +0.435 C 
ATOM     11  F   UNL     1       9.525  -3.987   2.981  0.00  0.00    -0.164 F 
ATOM     12  F   UNL     1       8.810  -1.893   2.412  0.00  0.00    -0.164 F 
ATOM     13  F   UNL     1      10.059  -2.199   4.300  0.00  0.00    -0.164 F 
ENDBRANCH   9  10
BRANCH   8  14
ATOM     14  C   UNL     1       8.868  -3.167   6.535  0.00  0.00    +0.056 C 
ATOM     15  C   UNL     1       8.389  -3.628   7.913  0.00  0.00    +0.036 C 
ATOM     16  C   UNL     1       9.936  -4.132   6.017  0.00  0.00    +0.036 C 
ATOM     17  C   UNL     1       9.461  -1.761   6.645  0.00  0.00    +0.036 C 
ENDBRANCH   8  14
ENDBRANCH   2   5
BRANCH   1  18
ATOM     18  C   UNL     1       4.438  -2.788   0.615  0.00  0.00    +0.086 C 
BRANCH  18  19
ATOM     19  C   UNL     1       2.917  -2.904   0.497  0.00  0.00    -0.060 C 
BRANCH  19  25
ATOM     20  C   UNL     1       2.864   0.146  -3.332  0.00  0.00    +0.005 C 
ATOM     21  C   UNL     1       2.520  -1.266  -2.857  0.00  0.00    -0.031 C 
ATOM     22  C   UNL     1       1.025  -1.526  -3.064  0.00  0.00    +0.003 C 
ATOM     23  C   UNL     1       0.676  -2.912  -2.514  0.00  0.00    -0.031 C 
ATOM     24  C   UNL     1       1.079  -2.985  -1.039  0.00  0.00    -0.076 C 
ATOM     25  N   UNL     1       2.523  -2.755  -0.910  0.00  0.00    +0.381 N 
ATOM     26  C   UNL     1       2.855  -1.401  -1.370  0.00  0.00    -0.076 C 
ATOM     27  C   UNL     1       1.433  -3.981  -3.305  0.00  0.00    +0.005 C 
ATOM     28  H   UNL     1       3.021  -3.431  -1.470  0.00  0.00    -0.082 HD
ENDBRANCH  19  25
ENDBRANCH  18  19
ENDBRANCH   1  18
TORSDOF 6
