REMARK  Name = ZINC00530486
REMARK  2 active torsions:
REMARK  status: ('A' for Active; 'I' for Inactive)
REMARK    1  A    between atoms: C_5  and  C_7
REMARK    2  A    between atoms: C_10  and  C_18
REMARK                            x       y       z     vdW  Elec       q    Type
REMARK                         _______ _______ _______ _____ _____    ______ ____
ROOT
ATOM      1  C   UNL     1       1.229  -2.186  -0.022  0.00  0.00    +0.107 C 
ATOM      2  C   UNL     1       1.463  -2.689  -1.451  0.00  0.00    +0.059 C 
ATOM      3  C   UNL     1       1.539  -4.221  -1.454  0.00  0.00    +0.149 C 
ATOM      4  N   UNL     1       0.397  -4.752  -0.712  0.00  0.00    -0.225 N 
ATOM      5  C   UNL     1      -0.343  -4.034   0.168  0.00  0.00    +0.215 A 
ATOM      6  N   UNL     1      -1.277  -4.813   0.642  0.00  0.00    -0.202 NA
ATOM      7  C   UNL     1      -1.167  -6.027   0.093  0.00  0.00    +0.247 A 
ATOM      8  N   UNL     1      -0.156  -6.033  -0.740  0.00  0.00    -0.156 NA
ATOM      9  N   UNL     1      -0.069  -2.702   0.456  0.00  0.00    -0.307 N 
ATOM     10  H   UNL     1      -0.696  -2.142   0.940  0.00  0.00    +0.149 HD
ENDROOT
BRANCH   1  15
ATOM     11  C   UNL     1      -0.017   1.378   0.010  0.00  0.00    +0.000 A 
ATOM     12  C   UNL     1       1.171   2.086   0.002  0.00  0.00    +0.001 A 
ATOM     13  C   UNL     1       2.377   1.412  -0.013  0.00  0.00    +0.020 A 
ATOM     14  C   UNL     1       2.397   0.029  -0.021  0.00  0.00    +0.046 A 
ATOM     15  C   UNL     1       1.208  -0.679  -0.013  0.00  0.00    -0.009 A 
ATOM     16  C   UNL     1       0.002  -0.004   0.002  0.00  0.00    +0.007 A 
ATOM     17 CL   UNL     1       3.912  -0.818  -0.041  0.00  0.00    -0.083 Cl
ENDBRANCH   1  15
BRANCH   3  18
ATOM     18  C   UNL     1       1.500  -4.725  -2.874  0.00  0.00    +0.014 A 
ATOM     19  C   UNL     1       2.418  -5.465  -3.542  0.00  0.00    +0.013 A 
ATOM     20  C   UNL     1       2.168  -5.817  -4.856  0.00  0.00    +0.008 A 
ATOM     21  C   UNL     1       1.012  -5.412  -5.436  0.00  0.00    +0.045 A 
ATOM     22  S   UNL     1       0.230  -4.509  -4.110  0.00  0.00    -0.099 S 
ENDBRANCH   3  18
TORSDOF 2
