REMARK  Name = ZINC38577470
REMARK  4 active torsions:
REMARK  status: ('A' for Active; 'I' for Inactive)
REMARK    1  A    between atoms: C_1  and  C_2
REMARK    2  A    between atoms: C_2  and  C_21
REMARK    3  A    between atoms: C_11  and  S_19
REMARK    4  A    between atoms: S_19  and  C_20
REMARK                            x       y       z     vdW  Elec       q    Type
REMARK                         _______ _______ _______ _____ _____    ______ ____
ROOT
ATOM      1  C   UNL     1      -0.019   1.526   0.010  0.00  0.00    +0.041 C 
ATOM      2  C   UNL     1       0.002  -0.004   0.002  0.00  0.00    +0.068 C 
ATOM      3  C   UNL     1       0.715  -0.498  -1.266  0.00  0.00    +0.072 C 
ATOM      4  C   UNL     1       0.968  -1.977  -1.098  0.00  0.00    -0.007 C 
ATOM      5  C   UNL     1       1.298  -2.904  -2.026  0.00  0.00    +0.068 C 
ATOM      6  C   UNL     1       1.535  -2.882  -3.468  0.00  0.00    +0.170 A 
ATOM      7  N   UNL     1       1.510  -1.940  -4.388  0.00  0.00    -0.129 NA
ATOM      8  N   UNL     1       1.798  -2.453  -5.533  0.00  0.00    -0.137 NA
ATOM      9  C   UNL     1       2.020  -3.740  -5.407  0.00  0.00    +0.227 A 
ATOM     10  N   UNL     1       1.863  -4.053  -4.107  0.00  0.00    -0.281 N 
ATOM     11  C   UNL     1       1.969  -5.292  -3.338  0.00  0.00    +0.269 C 
ATOM     12  N   UNL     1       1.726  -5.285  -1.893  0.00  0.00    -0.229 NA
ATOM     13  C   UNL     1       1.415  -4.191  -1.275  0.00  0.00    +0.162 C 
ATOM     14  N   UNL     1       1.141  -3.900   0.031  0.00  0.00    -0.230 NA
ATOM     15  C   UNL     1       0.882  -2.629   0.160  0.00  0.00    +0.073 C 
ATOM     16  C   UNL     1       0.533  -1.876   1.426  0.00  0.00    +0.216 C 
ATOM     17  O   UNL     1       0.693  -0.476   1.160  0.00  0.00    -0.367 OA
ATOM     18  C   UNL     1      -1.434  -0.532   0.016  0.00  0.00    +0.041 C 
ENDROOT
BRANCH  11  19
ATOM     19  S   UNL     1       0.813  -6.482  -4.072  0.00  0.00    -0.116 S 
ATOM     20  C   UNL     1       1.772  -8.019  -4.173  0.00  0.00    +0.088 C 
ENDBRANCH  11  19
TORSDOF 1
