REMARK  Name = ZINC08643529
REMARK  10 active torsions:
REMARK  status: ('A' for Active; 'I' for Inactive)
REMARK    1  A    between atoms: C_2  and  C_3
REMARK    2  A    between atoms: C_3  and  N_4
REMARK    3  A    between atoms: C_5  and  C_7
REMARK    4  A    between atoms: C_7  and  C_8
REMARK    5  A    between atoms: C_10  and  O_30
REMARK    6  A    between atoms: C_12  and  O_29
REMARK    7  A    between atoms: C_14  and  C_17
REMARK    8  A    between atoms: C_17  and  N_18
REMARK    9  A    between atoms: N_18  and  S_19
REMARK   10  A    between atoms: S_19  and  C_22
REMARK                            x       y       z     vdW  Elec       q    Type
REMARK                         _______ _______ _______ _____ _____    ______ ____
ROOT
ATOM      1  C   UNL     1      -0.187   1.212   4.911  0.00  0.00    +0.158 C 
ATOM      2  C   UNL     1      -0.867   1.736   6.195  0.00  0.00    +0.175 C 
ATOM      3  C   UNL     1      -0.753   0.558   7.188  0.00  0.00    +0.175 C 
ATOM      4  C   UNL     1      -0.018  -0.539   6.386  0.00  0.00    +0.165 C 
ATOM      5  O   UNL     1      -0.286  -0.226   5.002  0.00  0.00    -0.366 OA
ENDROOT
BRANCH   3   6
ATOM      6  O   UNL     1       0.011   0.938   8.334  0.00  0.00    -0.387 OA
ATOM      7  H   UNL     1      -0.404   1.625   8.874  0.00  0.00    +0.210 HD
ENDBRANCH   3   6
BRANCH   2   8
ATOM      8  O   UNL     1      -0.175   2.882   6.695  0.00  0.00    -0.387 OA
ATOM      9  H   UNL     1      -0.560   3.253   7.501  0.00  0.00    +0.210 HD
ENDBRANCH   2   8
BRANCH   1  10
ATOM     10  C   UNL     1      -0.927   1.718   3.671  0.00  0.00    +0.130 C 
BRANCH  10  12
ATOM     11  N   UNL     1      -0.698   1.558   1.213  0.00  0.00    -0.304 N 
ATOM     12  C   UNL     1      -0.222   1.232   2.431  0.00  0.00    +0.216 C 
ATOM     13  O   UNL     1       0.774   0.548   2.529  0.00  0.00    -0.276 OA
ATOM     14  H   UNL     1      -1.495   2.106   1.135  0.00  0.00    +0.150 HD
BRANCH  11  15
ATOM     15  C   UNL     1      -0.013   1.086   0.008  0.00  0.00    +0.193 C 
BRANCH  15  17
ATOM     16  C   UNL     1      -1.292   1.962  -2.136  0.00  0.00    +0.005 C 
ATOM     17  C   UNL     1      -0.725   1.573  -1.185  0.00  0.00    -0.087 C 
ENDBRANCH  15  17
ENDBRANCH  11  15
ENDBRANCH  10  12
ENDBRANCH   1  10
BRANCH   4  18
ATOM     18  C   UNL     1      -0.573  -1.921   6.738  0.00  0.00    +0.140 C 
BRANCH  18  19
ATOM     19  N   UNL     1       0.168  -2.947   6.000  0.00  0.00    -0.187 NA
ATOM     20  H   UNL     1       0.729  -2.695   5.250  0.00  0.00    +0.148 HD
BRANCH  19  21
ATOM     21  S   UNL     1       0.049  -4.537   6.447  0.00  0.00    +0.058 S 
ATOM     22  O   UNL     1       0.851  -5.276   5.537  0.00  0.00    -0.153 OA
ATOM     23  O   UNL     1       0.254  -4.580   7.853  0.00  0.00    -0.153 OA
BRANCH  21  24
ATOM     24  C   UNL     1      -1.619  -5.033   6.167  0.00  0.00    +0.105 A 
ATOM     25  C   UNL     1      -2.558  -4.898   7.172  0.00  0.00    +0.030 A 
ATOM     26  C   UNL     1      -3.867  -5.281   6.951  0.00  0.00    +0.022 A 
ATOM     27  C   UNL     1      -4.235  -5.811   5.727  0.00  0.00    +0.041 A 
ATOM     28  C   UNL     1      -3.293  -5.951   4.723  0.00  0.00    +0.022 A 
ATOM     29  C   UNL     1      -1.986  -5.562   4.944  0.00  0.00    +0.030 A 
ATOM     30 CL   UNL     1      -5.878  -6.299   5.450  0.00  0.00    -0.084 Cl
ENDBRANCH  21  24
ENDBRANCH  19  21
ENDBRANCH  18  19
ENDBRANCH   4  18
TORSDOF 10
