REMARK  Name = ZINC65409933
REMARK  4 active torsions:
REMARK  status: ('A' for Active; 'I' for Inactive)
REMARK    1  A    between atoms: C_1  and  C_2
REMARK    2  A    between atoms: N_5  and  C_7
REMARK    3  A    between atoms: C_17  and  C_19
REMARK    4  A    between atoms: N_27  and  C_28
REMARK                            x       y       z     vdW  Elec       q    Type
REMARK                         _______ _______ _______ _____ _____    ______ ____
ROOT
ATOM      1  C   UNL     1      -0.018   1.503   0.010  0.00  0.00    +0.068 C 
ATOM      2  C   UNL     1       0.002  -0.004   0.002  0.00  0.00    +0.066 A 
ATOM      3  C   UNL     1       0.008  -0.812  -1.125  0.00  0.00    +0.023 A 
ATOM      4  C   UNL     1       0.033  -2.117  -0.710  0.00  0.00    +0.127 A 
ATOM      5  N   UNL     1       0.033  -2.117   0.631  0.00  0.00    -0.247 N 
ATOM      6  N   UNL     1       0.023  -0.780   1.060  0.00  0.00    -0.174 NA
ATOM      7  N   UNL     1       0.065  -3.178  -1.615  0.00  0.00    -0.270 N 
ATOM      8  C   UNL     1       0.275  -2.895  -2.918  0.00  0.00    +0.219 C 
ATOM      9  O   UNL     1       0.120  -3.772  -3.741  0.00  0.00    -0.275 OA
ATOM     10  C   UNL     1       0.695  -1.529  -3.381  0.00  0.00    +0.109 C 
ATOM     11  C   UNL     1      -0.014  -0.430  -2.583  0.00  0.00    +0.063 C 
ATOM     12  H   UNL     1      -0.059  -4.092  -1.316  0.00  0.00    +0.156 HD
ENDROOT
BRANCH  11  13
ATOM     13  C   UNL     1       0.705   0.881  -2.776  0.00  0.00    -0.037 A 
ATOM     14  C   UNL     1       2.044   0.987  -2.425  0.00  0.00    +0.006 A 
ATOM     15  C   UNL     1       2.715   2.166  -2.590  0.00  0.00    +0.030 A 
ATOM     16  C   UNL     1       2.053   3.271  -3.115  0.00  0.00    +0.089 A 
ATOM     17  C   UNL     1       0.697   3.170  -3.473  0.00  0.00    +0.113 A 
ATOM     18  C   UNL     1       0.034   1.948  -3.298  0.00  0.00    +0.036 A 
ATOM     19  N   UNL     1       0.309   4.369  -3.949  0.00  0.00    -0.129 NA
ATOM     20  N   UNL     1       1.290   5.200  -3.920  0.00  0.00    -0.065 NA
ATOM     21  N   UNL     1       2.427   4.562  -3.400  0.00  0.00    -0.247 N 
ATOM     22  C   UNL     1       3.751   5.156  -3.200  0.00  0.00    +0.175 C 
ENDBRANCH  11  13
BRANCH   5  23
ATOM     23  C   UNL     1       0.046  -3.301   1.494  0.00  0.00    +0.109 C 
ATOM     24  C   UNL     1       1.296  -3.275   2.377  0.00  0.00    +0.027 C 
ATOM     25  C   UNL     1       1.309  -4.511   3.279  0.00  0.00    +0.002 C 
ATOM     26  C   UNL     1       0.060  -4.512   4.162  0.00  0.00    +0.000 C 
ATOM     27  C   UNL     1      -1.189  -4.538   3.279  0.00  0.00    +0.002 C 
ATOM     28  C   UNL     1      -1.203  -3.302   2.378  0.00  0.00    +0.027 C 
ENDBRANCH   5  23
TORSDOF 2
