REMARK  Name = ZINC00673044
REMARK  9 active torsions:
REMARK  status: ('A' for Active; 'I' for Inactive)
REMARK    1  A    between atoms: C_1  and  C_2
REMARK    2  A    between atoms: C_2  and  C_3
REMARK    3  A    between atoms: N_5  and  C_6
REMARK    4  A    between atoms: C_9  and  C_12
REMARK    5  A    between atoms: C_12  and  C_25
REMARK    6  A    between atoms: N_13  and  N_14
REMARK    7  A    between atoms: C_15  and  C_17
REMARK    8  A    between atoms: C_19  and  C_23
REMARK    9  A    between atoms: N_21  and  C_22
REMARK                            x       y       z     vdW  Elec       q    Type
REMARK                         _______ _______ _______ _____ _____    ______ ____
ROOT
ATOM      1  C   UNL     1       3.136  -3.842  -6.202  0.00  0.00    +0.063 C 
ATOM      2  N   UNL     1       3.632  -3.027  -7.083  0.00  0.00    -0.184 NA
ATOM      3  C   UNL     1       3.170  -5.329  -6.448  0.00  0.00    +0.068 C 
ENDROOT
BRANCH   1   7
ATOM      4  C   UNL     1       1.417  -2.319  -2.632  0.00  0.00    +0.033 A 
ATOM      5  C   UNL     1       1.949  -1.445  -3.573  0.00  0.00    +0.024 A 
ATOM      6  C   UNL     1       2.508  -1.935  -4.733  0.00  0.00    +0.011 A 
ATOM      7  C   UNL     1       2.540  -3.313  -4.963  0.00  0.00    -0.002 A 
ATOM      8  C   UNL     1       2.005  -4.189  -4.014  0.00  0.00    +0.011 A 
ATOM      9  C   UNL     1       1.452  -3.691  -2.854  0.00  0.00    +0.024 A 
BRANCH   4  12
ATOM     10  C   UNL     1       0.175  -0.652  -1.478  0.00  0.00    +0.217 C 
ATOM     11  O   UNL     1       0.127   0.003  -2.498  0.00  0.00    -0.275 OA
ATOM     12  N   UNL     1       0.851  -1.818  -1.456  0.00  0.00    -0.286 N 
ATOM     13  H   UNL     1       0.946  -2.308  -0.625  0.00  0.00    +0.155 HD
BRANCH  10  15
ATOM     14  C   UNL     1      -1.209   1.173  -0.528  0.00  0.00    +0.013 C 
ATOM     15  C   UNL     1      -0.522  -0.162  -0.235  0.00  0.00    +0.093 C 
ENDBRANCH  10  15
ENDBRANCH   4  12
ENDBRANCH   1   7
BRANCH   2  16
ATOM     16  N   UNL     1       4.199  -3.530  -8.261  0.00  0.00    -0.201 N 
ATOM     17  C   UNL     1       4.715  -2.684  -9.175  0.00  0.00    +0.282 C 
ATOM     18  O   UNL     1       4.770  -1.492  -8.938  0.00  0.00    -0.267 OA
ATOM     19  H   UNL     1       4.221  -4.487  -8.419  0.00  0.00    +0.178 HD
BRANCH  17  20
ATOM     20  C   UNL     1       5.209  -3.202 -10.459  0.00  0.00    +0.139 A 
ATOM     21  C   UNL     1       4.485  -3.350 -11.631  0.00  0.00    +0.071 A 
ATOM     22  C   UNL     1       5.388  -3.875 -12.560  0.00  0.00    +0.075 A 
ATOM     23  N   UNL     1       6.543  -4.015 -11.962  0.00  0.00    -0.175 NA
ATOM     24  N   UNL     1       6.478  -3.627 -10.739  0.00  0.00    -0.261 N 
ATOM     25  C   UNL     1       7.592  -3.643  -9.788  0.00  0.00    +0.173 C 
ATOM     26  C   UNL     1       5.085  -4.219 -13.995  0.00  0.00    +0.069 C 
ATOM     27 BR   UNL     1       2.662  -2.933 -11.913  0.00  0.00    -0.046 Br
ENDBRANCH  17  20
ENDBRANCH   2  16
TORSDOF 5
