REMARK  Name = ZINC01587398
REMARK  4 active torsions:
REMARK  status: ('A' for Active; 'I' for Inactive)
REMARK    1  A    between atoms: C_1  and  O_2
REMARK    2  A    between atoms: O_2  and  C_3
REMARK    3  A    between atoms: C_11  and  O_16
REMARK    4  A    between atoms: O_16  and  C_17
REMARK                            x       y       z     vdW  Elec       q    Type
REMARK                         _______ _______ _______ _____ _____    ______ ____
ROOT
ATOM      1  C   UNL     1      -1.312   6.614   0.049  0.00  0.00    +0.322 C 
ATOM      2  N   UNL     1      -0.140   5.993   0.035  0.00  0.00    -0.178 NA
ATOM      3  C   UNL     1      -0.085   4.653   0.027  0.00  0.00    +0.153 C 
ATOM      4  C   UNL     1       1.139   3.986   0.012  0.00  0.00    +0.060 C 
ATOM      5  C   UNL     1       1.166   2.600   0.005  0.00  0.00    +0.037 C 
ATOM      6  C   UNL     1      -0.024   1.887   0.012  0.00  0.00    +0.060 C 
ATOM      7  C   UNL     1      -1.238   2.571   0.022  0.00  0.00    +0.153 C 
ATOM      8  N   UNL     1      -2.403   1.906   0.035  0.00  0.00    -0.178 NA
ATOM      9  C   UNL     1      -3.551   2.569   0.050  0.00  0.00    +0.322 C 
ATOM     10  N   UNL     1      -3.583   3.901   0.057  0.00  0.00    -0.160 NA
ATOM     11  C   UNL     1      -2.450   4.602   0.049  0.00  0.00    +0.238 C 
ATOM     12  N   UNL     1      -2.457   5.934   0.056  0.00  0.00    -0.160 NA
ATOM     13  N   UNL     1      -1.250   3.938   0.034  0.00  0.00    -0.204 N 
ATOM     14 BR   UNL     1       0.002  -0.004   0.002  0.00  0.00    -0.047 Br
ATOM     15 BR   UNL     1       2.755   4.968   0.001  0.00  0.00    -0.047 Br
ENDROOT
BRANCH   1  17
ATOM     16  C   UNL     1      -0.087   8.645   0.049  0.00  0.00    +0.280 C 
ATOM     17  O   UNL     1      -1.344   7.965   0.057  0.00  0.00    -0.466 OA
ENDBRANCH   1  17
BRANCH   9  18
ATOM     18  O   UNL     1      -4.714   1.880   0.058  0.00  0.00    -0.466 OA
ATOM     19  C   UNL     1      -5.921   2.644   0.074  0.00  0.00    +0.280 C 
ENDBRANCH   9  18
TORSDOF 2
