REMARK  Name = ZINC10273294
REMARK  6 active torsions:
REMARK  status: ('A' for Active; 'I' for Inactive)
REMARK    1  A    between atoms: C_1  and  C_2
REMARK    2  A    between atoms: C_3  and  C_21
REMARK    3  A    between atoms: C_4  and  C_19
REMARK    4  A    between atoms: C_5  and  S_9
REMARK    5  A    between atoms: C_7  and  C_8
REMARK    6  A    between atoms: S_9  and  C_10
REMARK                            x       y       z     vdW  Elec       q    Type
REMARK                         _______ _______ _______ _____ _____    ______ ____
ROOT
ATOM      1  C   UNL     1      -3.883   2.894   6.835  0.00  0.00    +0.046 C 
ATOM      2  C   UNL     1      -2.980   2.248   5.816  0.00  0.00    -0.025 A 
ATOM      3  C   UNL     1      -2.224   1.139   6.158  0.00  0.00    -0.026 A 
ATOM      4  C   UNL     1      -1.399   0.571   5.182  0.00  0.00    +0.087 A 
ATOM      5  C   UNL     1      -1.372   1.147   3.899  0.00  0.00    +0.116 A 
ATOM      6  N   UNL     1      -2.113   2.211   3.628  0.00  0.00    -0.244 NA
ATOM      7  C   UNL     1      -2.900   2.758   4.533  0.00  0.00    +0.043 A 
ATOM      8  C   UNL     1      -3.724   3.964   4.165  0.00  0.00    +0.066 C 
ATOM      9  C   UNL     1      -2.289   0.559   7.548  0.00  0.00    +0.045 C 
ENDROOT
BRANCH   4  10
ATOM     10  C   UNL     1      -0.598  -0.577   5.483  0.00  0.00    +0.102 C 
ATOM     11  N   UNL     1       0.038  -1.488   5.722  0.00  0.00    -0.191 NA
ENDBRANCH   4  10
BRANCH   5  12
ATOM     12  S   UNL     1      -0.343   0.453   2.648  0.00  0.00    -0.092 S 
BRANCH  12  13
ATOM     13  C   UNL     1      -0.717   1.573   1.277  0.00  0.00    +0.138 C 
ATOM     14  C   UNL     1      -0.013   1.086   0.008  0.00  0.00    +0.024 C 
ATOM     15  C   UNL     1      -0.735   1.583  -1.231  0.00  0.00    +0.003 C 
ATOM     16  C   UNL     1      -0.668   3.087  -1.417  0.00  0.00    +0.019 C 
ATOM     17  C   UNL     1      -1.450   3.808  -0.317  0.00  0.00    +0.104 C 
ATOM     18  N   UNL     1      -0.562   4.000   0.842  0.00  0.00    -0.314 N 
ATOM     19  C   UNL     1      -0.211   2.963   1.603  0.00  0.00    +0.226 C 
ATOM     20  O   UNL     1       0.517   3.134   2.558  0.00  0.00    -0.275 OA
ATOM     21  H   UNL     1      -0.232   4.888   1.053  0.00  0.00    +0.149 HD
ENDBRANCH  12  13
ENDBRANCH   5  12
TORSDOF 3
