REMARK  Name = ZINC59271125
REMARK  6 active torsions:
REMARK  status: ('A' for Active; 'I' for Inactive)
REMARK    1  A    between atoms: C_1  and  N_2
REMARK    2  A    between atoms: C_10  and  S_11
REMARK    3  A    between atoms: S_11  and  C_12
REMARK    4  A    between atoms: C_12  and  C_13
REMARK    5  A    between atoms: N_15  and  C_16
REMARK    6  A    between atoms: C_19  and  N_23
REMARK                            x       y       z     vdW  Elec       q    Type
REMARK                         _______ _______ _______ _____ _____    ______ ____
ROOT
ATOM      1  C   UNL     1       0.068  -1.471   5.208  0.00  0.00    +0.228 C 
ATOM      2  O   UNL     1       0.059  -0.312   5.568  0.00  0.00    -0.275 OA
ATOM      3  N   UNL     1       0.096  -2.460   6.123  0.00  0.00    -0.284 N 
ATOM      4  H   UNL     1       0.037  -3.386   5.838  0.00  0.00    +0.155 HD
ENDROOT
BRANCH   3   5
ATOM      5  C   UNL     1       0.211  -2.153   7.483  0.00  0.00    +0.048 A 
ATOM      6  C   UNL     1      -0.391  -1.010   7.992  0.00  0.00    +0.026 A 
ATOM      7  C   UNL     1      -0.276  -0.709   9.335  0.00  0.00    +0.034 A 
ATOM      8  C   UNL     1       0.439  -1.545  10.174  0.00  0.00    +0.127 A 
ATOM      9  C   UNL     1       1.039  -2.684   9.671  0.00  0.00    +0.049 A 
ATOM     10  C   UNL     1       0.923  -2.994   8.329  0.00  0.00    +0.041 A 
ATOM     11 BR   UNL     1       1.738  -4.557   7.644  0.00  0.00    -0.048 Br
BRANCH   8  12
ATOM     12  N   UNL     1       0.561  -1.219  11.612  0.00  0.00    +0.056 N 
ATOM     13  O   UNL     1       0.036  -0.222  12.053  0.00  0.00    -0.126 OA
ATOM     14  O   UNL     1       1.185  -1.948  12.347  0.00  0.00    -0.126 OA
ENDBRANCH   8  12
ENDBRANCH   3   5
BRANCH   1  15
ATOM     15  C   UNL     1       0.046  -1.803   3.739  0.00  0.00    +0.173 C 
BRANCH  15  16
ATOM     16  S   UNL     1       0.010  -0.268   2.772  0.00  0.00    -0.078 S 
BRANCH  16  26
ATOM     17  C   UNL     1      -0.060   1.462   0.012  0.00  0.00    +0.151 C 
ATOM     18  N   UNL     1      -0.042  -0.002   0.004  0.00  0.00    -0.322 N 
ATOM     19  C   UNL     1      -0.045  -0.818  -1.117  0.00  0.00    +0.069 A 
ATOM     20  C   UNL     1      -0.065  -0.576  -2.482  0.00  0.00    +0.029 A 
ATOM     21  C   UNL     1      -0.062  -1.633  -3.368  0.00  0.00    +0.022 A 
ATOM     22  C   UNL     1      -0.041  -2.941  -2.902  0.00  0.00    +0.043 A 
ATOM     23  C   UNL     1      -0.022  -3.199  -1.548  0.00  0.00    +0.050 A 
ATOM     24  C   UNL     1      -0.023  -2.139  -0.639  0.00  0.00    +0.092 A 
ATOM     25  N   UNL     1      -0.007  -2.073   0.718  0.00  0.00    -0.222 NA
ATOM     26  C   UNL     1      -0.013  -0.819   1.099  0.00  0.00    +0.170 A 
ATOM     27 CL   UNL     1      -0.038  -4.258  -4.031  0.00  0.00    -0.083 Cl
ENDBRANCH  16  26
ENDBRANCH  15  16
ENDBRANCH   1  15
TORSDOF 5
