REMARK  Name = ZINC40553223
REMARK  5 active torsions:
REMARK  status: ('A' for Active; 'I' for Inactive)
REMARK    1  A    between atoms: C_1  and  C_2
REMARK    2  A    between atoms: C_5  and  C_23
REMARK    3  A    between atoms: C_10  and  C_12
REMARK    4  A    between atoms: C_15  and  C_17
REMARK    5  A    between atoms: N_20  and  C_22
REMARK                            x       y       z     vdW  Elec       q    Type
REMARK                         _______ _______ _______ _____ _____    ______ ____
ROOT
ATOM      1  C   UNL     1       1.937   1.012   3.314  0.00  0.00    +0.133 A 
ATOM      2  C   UNL     1       2.495   1.793   4.289  0.00  0.00    +0.080 A 
ATOM      3  S   UNL     1       1.214   2.013   5.357  0.00  0.00    -0.075 S 
ATOM      4  C   UNL     1      -0.016   1.064   4.479  0.00  0.00    +0.112 A 
ATOM      5  N   UNL     1       0.663   0.656   3.422  0.00  0.00    -0.234 NA
ENDROOT
BRANCH   1  13
ATOM      6  C   UNL     1       0.659   2.494  -0.104  0.00  0.00    +0.009 C 
ATOM      7  C   UNL     1       0.256   1.033  -0.312  0.00  0.00    +0.004 C 
ATOM      8  C   UNL     1       0.967   0.478  -1.549  0.00  0.00    +0.009 C 
ATOM      9  C   UNL     1       2.482   0.597  -1.364  0.00  0.00    +0.004 C 
ATOM     10  C   UNL     1       2.910  -0.230  -0.148  0.00  0.00    +0.111 C 
ATOM     11  N   UNL     1       2.125   0.200   1.017  0.00  0.00    -0.296 N 
ATOM     12  C   UNL     1       0.659   0.211   0.916  0.00  0.00    +0.111 C 
ATOM     13  C   UNL     1       2.738   0.577   2.157  0.00  0.00    +0.265 C 
ATOM     14  O   UNL     1       3.952   0.557   2.230  0.00  0.00    -0.268 OA
ATOM     15  C   UNL     1       3.191   0.073  -2.615  0.00  0.00    +0.009 C 
ENDBRANCH   1  13
BRANCH   4  16
ATOM     16  C   UNL     1      -1.428   0.807   4.838  0.00  0.00    +0.045 A 
ATOM     17  C   UNL     1      -2.350   0.038   4.098  0.00  0.00    +0.145 A 
ATOM     18  N   UNL     1      -3.489   0.046   4.738  0.00  0.00    -0.179 NA
ATOM     19  N   UNL     1      -3.343   0.812   5.901  0.00  0.00    -0.274 N 
ATOM     20  C   UNL     1      -2.076   1.266   5.951  0.00  0.00    +0.118 A 
ATOM     21  C   UNL     1      -4.387   1.070   6.895  0.00  0.00    +0.172 C 
ENDBRANCH   4  16
TORSDOF 2
