REMARK  Name = ZINC64672749
REMARK  7 active torsions:
REMARK  status: ('A' for Active; 'I' for Inactive)
REMARK    1  A    between atoms: C_1  and  O_2
REMARK    2  A    between atoms: O_2  and  C_3
REMARK    3  A    between atoms: C_6  and  N_9
REMARK    4  A    between atoms: N_9  and  C_10
REMARK    5  A    between atoms: C_10  and  N_12
REMARK    6  A    between atoms: N_12  and  N_13
REMARK    7  A    between atoms: C_14  and  C_16
REMARK                            x       y       z     vdW  Elec       q    Type
REMARK                         _______ _______ _______ _____ _____    ______ ____
ROOT
ATOM      1  N   UNL     1       3.282  -4.388  -5.324  0.00  0.00    -0.245 N 
ATOM      2  H   UNL     1       3.381  -5.353  -5.340  0.00  0.00    +0.172 HD
ENDROOT
BRANCH   1   3
ATOM      3  N   UNL     1       3.853  -3.608  -6.338  0.00  0.00    -0.231 N 
ATOM      4  C   UNL     1       4.539  -4.198  -7.337  0.00  0.00    +0.258 C 
ATOM      5  O   UNL     1       4.663  -5.408  -7.357  0.00  0.00    -0.269 OA
ATOM      6  H   UNL     1       3.753  -2.643  -6.321  0.00  0.00    +0.173 HD
BRANCH   4   7
ATOM      7  C   UNL     1       5.136  -3.381  -8.398  0.00  0.00    +0.044 C 
ATOM      8  C   UNL     1       5.858  -3.826  -9.484  0.00  0.00    +0.008 A 
ATOM      9  C   UNL     1       6.245  -5.118  -9.920  0.00  0.00    +0.010 A 
ATOM     10  C   UNL     1       6.969  -5.266 -11.050  0.00  0.00    +0.001 A 
ATOM     11  C   UNL     1       7.369  -4.175 -11.838  0.00  0.00    +0.002 A 
ATOM     12  C   UNL     1       7.052  -2.903 -11.511  0.00  0.00    +0.026 A 
ATOM     13  C   UNL     1       6.265  -2.651 -10.294  0.00  0.00    +0.043 A 
ATOM     14  N   UNL     1       5.828  -1.550  -9.752  0.00  0.00    -0.380 N 
ATOM     15  C   UNL     1       5.082  -1.875  -8.532  0.00  0.00    +0.154 C 
ATOM     16  H   UNL     1       5.970  -0.656 -10.102  0.00  0.00    +0.160 HD
ENDBRANCH   4   7
ENDBRANCH   1   3
BRANCH   1  17
ATOM     17  C   UNL     1       2.596  -3.798  -4.325  0.00  0.00    +0.151 C 
ATOM     18  S   UNL     1       1.898  -4.752  -3.086  0.00  0.00    -0.017 S 
BRANCH  17  19
ATOM     19  N   UNL     1       2.458  -2.458  -4.302  0.00  0.00    -0.296 N 
ATOM     20  H   UNL     1       2.783  -1.924  -5.044  0.00  0.00    +0.154 HD
BRANCH  19  24
ATOM     21  C   UNL     1       0.638  -0.604  -1.040  0.00  0.00    +0.120 A 
ATOM     22  C   UNL     1       1.535  -1.643  -0.836  0.00  0.00    +0.047 A 
ATOM     23  C   UNL     1       2.138  -2.257  -1.916  0.00  0.00    +0.027 A 
ATOM     24  C   UNL     1       1.847  -1.835  -3.206  0.00  0.00    +0.033 A 
ATOM     25  C   UNL     1       0.949  -0.795  -3.410  0.00  0.00    +0.027 A 
ATOM     26  C   UNL     1       0.343  -0.185  -2.329  0.00  0.00    +0.047 A 
BRANCH  21  28
ATOM     27  C   UNL     1       0.396  -0.481   1.322  0.00  0.00    +0.277 C 
ATOM     28  O   UNL     1       0.045   0.001   0.024  0.00  0.00    -0.495 OA
ENDBRANCH  21  28
ENDBRANCH  19  24
ENDBRANCH  17  19
ENDBRANCH   1  17
TORSDOF 6
