REMARK  Name = ZINC40838954
REMARK  5 active torsions:
REMARK  status: ('A' for Active; 'I' for Inactive)
REMARK    1  A    between atoms: C_1  and  C_2
REMARK    2  A    between atoms: C_5  and  N_8
REMARK    3  A    between atoms: C_9  and  C_11
REMARK    4  A    between atoms: C_11  and  C_13
REMARK    5  A    between atoms: C_11  and  C_14
REMARK                            x       y       z     vdW  Elec       q    Type
REMARK                         _______ _______ _______ _____ _____    ______ ____
ROOT
ATOM      1  C   UNL     1       0.309  -6.349   1.121  0.00  0.00    +0.094 C 
ATOM      2  C   UNL     1       1.561  -6.742   0.335  0.00  0.00    +0.019 C 
ENDROOT
BRANCH   1   3
ATOM      3  C   UNL     1       0.424  -6.867   2.557  0.00  0.00    +0.149 C 
ATOM      4  C   UNL     1       0.565  -8.365   2.543  0.00  0.00    +0.231 C 
ATOM      5  O   UNL     1      -0.438  -9.035   2.672  0.00  0.00    -0.274 OA
ATOM      6  N   UNL     1       1.728  -8.994   2.397  0.00  0.00    -0.284 N 
ATOM      7  C   UNL     1       2.973  -8.395   2.227  0.00  0.00    +0.047 A 
ATOM      8  C   UNL     1       4.008  -9.121   1.649  0.00  0.00    +0.024 A 
ATOM      9  C   UNL     1       5.251  -8.545   1.477  0.00  0.00    +0.002 A 
ATOM     10  C   UNL     1       5.481  -7.241   1.877  0.00  0.00    +0.001 A 
ATOM     11  C   UNL     1       4.460  -6.506   2.451  0.00  0.00    +0.016 A 
ATOM     12  C   UNL     1       3.211  -7.078   2.624  0.00  0.00    +0.030 A 
ATOM     13  S   UNL     1       1.894  -6.145   3.348  0.00  0.00    -0.110 S 
ATOM     14  H   UNL     1       1.706  -9.964   2.411  0.00  0.00    +0.155 HD
ENDBRANCH   1   3
BRANCH   1  16
ATOM     15  N   UNL     1       0.059  -4.170  -0.021  0.00  0.00    -0.285 N 
ATOM     16  C   UNL     1       0.175  -4.848   1.138  0.00  0.00    +0.222 C 
ATOM     17  O   UNL     1       0.173  -4.251   2.193  0.00  0.00    -0.275 OA
ATOM     18  H   UNL     1      -0.017  -4.651  -0.860  0.00  0.00    +0.155 HD
BRANCH  15  23
ATOM     19  C   UNL     1       0.009   1.503   0.007  0.00  0.00    +0.044 C 
ATOM     20  C   UNL     1       0.022  -0.004  -0.001  0.00  0.00    -0.050 A 
ATOM     21  C   UNL     1       0.777  -0.692   0.931  0.00  0.00    +0.005 A 
ATOM     22  C   UNL     1       0.792  -2.073   0.927  0.00  0.00    +0.023 A 
ATOM     23  C   UNL     1       0.046  -2.771  -0.014  0.00  0.00    +0.033 A 
ATOM     24  C   UNL     1      -0.712  -2.077  -0.948  0.00  0.00    +0.023 A 
ATOM     25  C   UNL     1      -0.726  -0.696  -0.936  0.00  0.00    +0.005 A 
ENDBRANCH  15  23
ENDBRANCH   1  16
TORSDOF 3
