REMARK  Name = ZINC41572294
REMARK  6 active torsions:
REMARK  status: ('A' for Active; 'I' for Inactive)
REMARK    1  A    between atoms: C_1  and  N_2
REMARK    2  A    between atoms: C_6  and  C_7
REMARK    3  A    between atoms: C_7  and  C_9
REMARK    4  A    between atoms: C_7  and  N_16
REMARK    5  A    between atoms: N_16  and  S_17
REMARK    6  A    between atoms: S_17  and  C_20
REMARK                            x       y       z     vdW  Elec       q    Type
REMARK                         _______ _______ _______ _____ _____    ______ ____
ROOT
ATOM      1  C   UNL     1       0.203  -0.487   2.552  0.00  0.00    +0.172 C 
ENDROOT
BRANCH   1   7
ATOM      2  C   UNL     1       1.531   1.422   0.505  0.00  0.00    +0.150 C 
ATOM      3  N   UNL     1       0.760   0.221   0.174  0.00  0.00    -0.337 N 
ATOM      4  C   UNL     1       0.504  -0.260  -1.082  0.00  0.00    +0.104 A 
ATOM      5  C   UNL     1      -0.233  -1.377  -0.929  0.00  0.00    +0.102 A 
ATOM      6  N   UNL     1      -0.421  -1.573   0.385  0.00  0.00    -0.348 N 
ATOM      7  C   UNL     1       0.175  -0.623   1.052  0.00  0.00    +0.110 A 
ATOM      8  H   UNL     1      -0.919  -2.307   0.777  0.00  0.00    +0.166 HD
ENDBRANCH   1   7
BRANCH   1   9
ATOM      9  C   UNL     1       1.632  -0.481   3.030  0.00  0.00    -0.003 A 
ATOM     10  C   UNL     1       2.249   0.713   3.352  0.00  0.00    +0.007 A 
ATOM     11  C   UNL     1       3.560   0.719   3.790  0.00  0.00    +0.000 A 
ATOM     12  C   UNL     1       4.255  -0.471   3.906  0.00  0.00    +0.001 A 
ATOM     13  C   UNL     1       3.640  -1.666   3.584  0.00  0.00    +0.020 A 
ATOM     14  C   UNL     1       2.325  -1.672   3.151  0.00  0.00    +0.046 A 
ATOM     15 CL   UNL     1       1.550  -3.173   2.753  0.00  0.00    -0.083 Cl
ENDBRANCH   1   9
BRANCH   1  16
ATOM     16  N   UNL     1      -0.447   0.767   2.941  0.00  0.00    -0.175 NA
ATOM     17  H   UNL     1       0.050   1.600   2.913  0.00  0.00    +0.149 HD
BRANCH  16  18
ATOM     18  S   UNL     1      -2.029   0.763   3.430  0.00  0.00    +0.059 S 
ATOM     19  O   UNL     1      -2.356   2.106   3.761  0.00  0.00    -0.153 OA
ATOM     20  O   UNL     1      -2.753   0.021   2.458  0.00  0.00    -0.153 OA
BRANCH  18  21
ATOM     21  C   UNL     1      -2.109  -0.158   4.929  0.00  0.00    +0.105 A 
ATOM     22  C   UNL     1      -2.326  -1.523   4.890  0.00  0.00    +0.031 A 
ATOM     23  C   UNL     1      -2.388  -2.247   6.066  0.00  0.00    +0.040 A 
ATOM     24  C   UNL     1      -2.234  -1.605   7.283  0.00  0.00    +0.124 A 
ATOM     25  C   UNL     1      -2.017  -0.238   7.321  0.00  0.00    +0.040 A 
ATOM     26  C   UNL     1      -1.950   0.483   6.144  0.00  0.00    +0.031 A 
ATOM     27  F   UNL     1      -2.295  -2.312   8.432  0.00  0.00    -0.205 F 
ENDBRANCH  18  21
ENDBRANCH  16  18
ENDBRANCH   1  16
TORSDOF 5
