REMARK  Name = ZINC05603412
REMARK  2 active torsions:
REMARK  status: ('A' for Active; 'I' for Inactive)
REMARK    1  A    between atoms: N_20  and  N_21
REMARK    2  A    between atoms: C_22  and  C_23
REMARK                            x       y       z     vdW  Elec       q    Type
REMARK                         _______ _______ _______ _____ _____    ______ ____
ROOT
ATOM      1  C   UNL     1       1.055  -4.919  -0.033  0.00  0.00    +0.001 A 
ATOM      2  C   UNL     1       2.283  -4.271  -0.041  0.00  0.00    +0.001 A 
ATOM      3  C   UNL     1       2.351  -2.895  -0.035  0.00  0.00    +0.012 A 
ATOM      4  C   UNL     1       1.174  -2.149  -0.021  0.00  0.00    +0.030 A 
ATOM      5  C   UNL     1      -0.074  -2.805  -0.012  0.00  0.00    +0.029 A 
ATOM      6  C   UNL     1      -0.120  -4.199  -0.018  0.00  0.00    +0.012 A 
ATOM      7  C   UNL     1      -1.297  -1.992   0.004  0.00  0.00    +0.167 A 
ATOM      8  N   UNL     1      -1.217  -0.690   0.010  0.00  0.00    -0.145 NA
ATOM      9  N   UNL     1       0.002  -0.004   0.002  0.00  0.00    -0.175 N 
ATOM     10  C   UNL     1       1.195  -0.676  -0.013  0.00  0.00    +0.166 A 
ATOM     11  N   UNL     1       2.358  -0.056  -0.020  0.00  0.00    -0.227 NA
ATOM     12  C   UNL     1       2.453   1.282  -0.013  0.00  0.00    +0.079 A 
ATOM     13  C   UNL     1       3.693   1.933  -0.020  0.00  0.00    +0.028 A 
ATOM     14  C   UNL     1       3.740   3.297  -0.013  0.00  0.00    +0.002 A 
ATOM     15  C   UNL     1       2.574   4.053   0.002  0.00  0.00    +0.001 A 
ATOM     16  C   UNL     1       1.348   3.449   0.008  0.00  0.00    +0.015 A 
ATOM     17  C   UNL     1       1.268   2.056   0.001  0.00  0.00    +0.067 A 
ATOM     18  C   UNL     1      -0.016   1.351   0.009  0.00  0.00    +0.282 A 
ATOM     19  O   UNL     1      -1.069   1.965   0.018  0.00  0.00    -0.265 OA
ATOM     20  N   UNL     1      -2.538  -2.609   0.012  0.00  0.00    -0.219 N 
ATOM     21  H   UNL     1      -2.598  -3.577   0.008  0.00  0.00    +0.176 HD
ENDROOT
BRANCH  20  22
ATOM     22  N   UNL     1      -3.705  -1.834   0.027  0.00  0.00    -0.188 NA
ATOM     23  C   UNL     1      -4.870  -2.413   0.036  0.00  0.00    +0.145 C 
BRANCH  23  24
ATOM     24  C   UNL     1      -6.092  -1.602   0.051  0.00  0.00    +0.032 A 
ATOM     25  C   UNL     1      -7.413  -2.015   0.062  0.00  0.00    +0.017 A 
ATOM     26  C   UNL     1      -8.398  -1.054   0.076  0.00  0.00    +0.008 A 
ATOM     27  C   UNL     1      -8.047   0.258   0.079  0.00  0.00    +0.046 A 
ATOM     28  S   UNL     1      -6.264   0.175   0.070  0.00  0.00    -0.096 S 
ENDBRANCH  23  24
ENDBRANCH  20  22
TORSDOF 2
