REMARK  Name = ZINC12293543
REMARK  8 active torsions:
REMARK  status: ('A' for Active; 'I' for Inactive)
REMARK    1  A    between atoms: C_1  and  C_2
REMARK    2  A    between atoms: C_5  and  S_9
REMARK    3  A    between atoms: C_6  and  C_8
REMARK    4  A    between atoms: S_9  and  N_12
REMARK    5  A    between atoms: C_16  and  O_30
REMARK    6  A    between atoms: N_26  and  C_27
REMARK    7  A    between atoms: C_27  and  C_28
REMARK    8  A    between atoms: C_28  and  O_29
REMARK                            x       y       z     vdW  Elec       q    Type
REMARK                         _______ _______ _______ _____ _____    ______ ____
ROOT
ATOM      1  N   UNL     1       1.506  -5.005   0.635  0.00  0.00    -0.128 NA
ATOM      2  C   UNL     1       1.746  -6.276   0.840  0.00  0.00    +0.095 C 
ATOM      3  C   UNL     1       2.968  -6.763   1.529  0.00  0.00    +0.054 C 
ATOM      4  C   UNL     1       2.808  -7.827   2.356  0.00  0.00    +0.073 C 
ATOM      5  C   UNL     1       1.441  -8.406   2.558  0.00  0.00    +0.235 C 
ATOM      6  C   UNL     1       0.673  -8.447   1.272  0.00  0.00    +0.026 A 
ATOM      7  C   UNL     1       0.812  -7.355   0.405  0.00  0.00    +0.011 A 
ATOM      8  C   UNL     1       0.111  -7.313  -0.785  0.00  0.00    +0.010 A 
ATOM      9  C   UNL     1      -0.723  -8.367  -1.116  0.00  0.00    +0.001 A 
ATOM     10  C   UNL     1      -0.849  -9.448  -0.262  0.00  0.00    +0.000 A 
ATOM     11  C   UNL     1      -0.149  -9.490   0.923  0.00  0.00    +0.010 A 
ATOM     12  O   UNL     1       1.403  -9.606   3.278  0.00  0.00    -0.339 OA
ATOM     13  C   UNL     1       2.587 -10.352   3.469  0.00  0.00    +0.183 C 
ATOM     14  C   UNL     1       3.748  -9.471   3.913  0.00  0.00    +0.133 C 
ATOM     15  N   UNL     1       3.906  -8.356   2.981  0.00  0.00    -0.324 N 
ENDROOT
BRANCH   1  16
ATOM     16  S   UNL     1       0.042  -4.526   0.027  0.00  0.00    +0.099 S 
ATOM     17  O   UNL     1      -0.942  -5.340   0.651  0.00  0.00    -0.146 OA
ATOM     18  O   UNL     1       0.191  -4.457  -1.384  0.00  0.00    -0.146 OA
BRANCH  16  23
ATOM     19  C   UNL     1      -0.926   1.115   1.936  0.00  0.00    +0.044 C 
ATOM     20  C   UNL     1      -0.684  -0.294   1.459  0.00  0.00    -0.050 A 
ATOM     21  C   UNL     1      -0.521  -0.549   0.110  0.00  0.00    +0.005 A 
ATOM     22  C   UNL     1      -0.300  -1.841  -0.327  0.00  0.00    +0.029 A 
ATOM     23  C   UNL     1      -0.239  -2.878   0.585  0.00  0.00    +0.115 A 
ATOM     24  C   UNL     1      -0.401  -2.623   1.934  0.00  0.00    -0.023 A 
ATOM     25  C   UNL     1      -0.619  -1.330   2.371  0.00  0.00    +0.008 A 
ATOM     26  C   UNL     1      -0.336  -3.755   2.928  0.00  0.00    +0.046 C 
ENDBRANCH  16  23
ENDBRANCH   1  16
BRANCH   5  27
ATOM     27  O   UNL     1       0.749  -7.466   3.382  0.00  0.00    -0.356 OA
ATOM     28  H   UNL     1      -0.160  -7.721   3.592  0.00  0.00    +0.213 HD
ENDBRANCH   5  27
BRANCH  15  29
ATOM     29  C   UNL     1       5.237  -7.805   2.714  0.00  0.00    +0.133 C 
BRANCH  29  30
ATOM     30  C   UNL     1       5.532  -6.680   3.708  0.00  0.00    +0.174 C 
BRANCH  30  31
ATOM     31  O   UNL     1       5.603  -7.219   5.030  0.00  0.00    -0.393 OA
ATOM     32  H   UNL     1       5.787  -6.561   5.714  0.00  0.00    +0.209 HD
ENDBRANCH  30  31
ENDBRANCH  29  30
ENDBRANCH  15  29
TORSDOF 6
