REMARK  Name = ZINC56787037
REMARK  10 active torsions:
REMARK  status: ('A' for Active; 'I' for Inactive)
REMARK    1  A    between atoms: C_1  and  C_2
REMARK    2  A    between atoms: C_2  and  N_3
REMARK    3  A    between atoms: C_4  and  C_6
REMARK    4  A    between atoms: C_9  and  C_12
REMARK    5  A    between atoms: C_12  and  N_13
REMARK    6  A    between atoms: N_16  and  C_17
REMARK    7  A    between atoms: C_17  and  C_19
REMARK    8  A    between atoms: C_17  and  C_20
REMARK    9  A    between atoms: C_20  and  N_21
REMARK   10  A    between atoms: C_25  and  C_28
REMARK                            x       y       z     vdW  Elec       q    Type
REMARK                         _______ _______ _______ _____ _____    ______ ____
ROOT
ATOM      1  N   UNL     1       3.005  -4.419   7.100  0.00  0.00    -0.295 N 
ATOM      2  C   UNL     1       3.335  -4.752   8.364  0.00  0.00    +0.300 C 
ATOM      3  O   UNL     1       4.473  -5.088   8.628  0.00  0.00    -0.253 OA
ATOM      4  N   UNL     1       2.402  -4.711   9.336  0.00  0.00    -0.299 N 
ATOM      5  H   UNL     1       2.097  -4.151   6.890  0.00  0.00    +0.151 HD
ATOM      6  H   UNL     1       1.494  -4.443   9.126  0.00  0.00    +0.150 HD
ENDROOT
BRANCH   4   7
ATOM      7  C   UNL     1       2.760  -5.073  10.710  0.00  0.00    +0.055 C 
ATOM      8  C   UNL     1       3.309  -3.842  11.435  0.00  0.00    +0.026 C 
BRANCH   7   9
ATOM      9  C   UNL     1       1.517  -5.584  11.443  0.00  0.00    -0.057 C 
BRANCH   9  10
ATOM     10  N   UNL     1       0.929  -6.699  10.690  0.00  0.00    +0.381 N 
ATOM     11  C   UNL     1      -0.343  -7.089  11.311  0.00  0.00    -0.079 C 
ATOM     12  C   UNL     1      -1.000  -8.196  10.483  0.00  0.00    -0.018 C 
ATOM     13  C   UNL     1      -0.065  -9.408  10.427  0.00  0.00    -0.001 C 
ATOM     14  C   UNL     1       1.284  -8.972   9.847  0.00  0.00    -0.031 C 
ATOM     15  C   UNL     1       1.857  -7.836  10.698  0.00  0.00    -0.076 C 
ATOM     16  C   UNL     1       2.252 -10.158   9.858  0.00  0.00    +0.005 C 
ATOM     17  H   UNL     1       0.761  -6.409   9.738  0.00  0.00    -0.082 HD
ENDBRANCH   9  10
ENDBRANCH   7   9
ENDBRANCH   4   7
BRANCH   1  18
ATOM     18  C   UNL     1       4.019  -4.463   6.044  0.00  0.00    +0.141 C 
BRANCH  18  22
ATOM     19  C   UNL     1       2.259  -3.288   2.328  0.00  0.00    +0.037 A 
ATOM     20  C   UNL     1       2.834  -2.331   3.165  0.00  0.00    +0.013 A 
ATOM     21  C   UNL     1       3.400  -2.716   4.362  0.00  0.00    +0.006 A 
ATOM     22  C   UNL     1       3.399  -4.049   4.734  0.00  0.00    -0.030 A 
ATOM     23  C   UNL     1       2.830  -5.003   3.909  0.00  0.00    +0.006 A 
ATOM     24  C   UNL     1       2.255  -4.630   2.712  0.00  0.00    +0.013 A 
BRANCH  19  26
ATOM     25  N   UNL     1       1.654  -1.585   0.676  0.00  0.00    -0.312 N 
ATOM     26  C   UNL     1       1.649  -2.882   1.044  0.00  0.00    +0.244 C 
ATOM     27  O   UNL     1       1.145  -3.717   0.319  0.00  0.00    -0.270 OA
ATOM     28  H   UNL     1       2.057  -0.919   1.254  0.00  0.00    +0.149 HD
BRANCH  25  30
ATOM     29  C   UNL     1       1.190   0.331  -0.771  0.00  0.00    +0.024 C 
ATOM     30  C   UNL     1       1.051  -1.183  -0.597  0.00  0.00    +0.101 C 
ENDBRANCH  25  30
ENDBRANCH  19  26
ENDBRANCH  18  22
ENDBRANCH   1  18
TORSDOF 7
