REMARK  Name = ZINC11843251
REMARK  10 active torsions:
REMARK  status: ('A' for Active; 'I' for Inactive)
REMARK    1  A    between atoms: C_1  and  C_2
REMARK    2  A    between atoms: C_2  and  C_3
REMARK    3  A    between atoms: C_4  and  C_9
REMARK    4  A    between atoms: C_5  and  C_8
REMARK    5  A    between atoms: N_11  and  C_12
REMARK    6  A    between atoms: N_11  and  C_26
REMARK    7  A    between atoms: C_12  and  C_13
REMARK    8  A    between atoms: C_18  and  C_19
REMARK    9  A    between atoms: C_18  and  N_66
REMARK   10  A    between atoms: C_26  and  C_27
REMARK                            x       y       z     vdW  Elec       q    Type
REMARK                         _______ _______ _______ _____ _____    ______ ____
ROOT
ATOM      1  C   UNL     1      -1.194   2.119   0.019  0.00  0.00    +0.252 C 
ATOM      2  O   UNL     1      -2.239   1.496   0.021  0.00  0.00    -0.270 OA
ATOM      3  N   UNL     1      -0.018   1.461   0.010  0.00  0.00    -0.295 N 
ENDROOT
BRANCH   1   5
ATOM      4  C   UNL     1      -1.226   4.516  -1.118  0.00  0.00    +0.096 A 
ATOM      5  C   UNL     1      -1.214   3.592   0.027  0.00  0.00    +0.101 A 
ATOM      6  C   UNL     1      -1.220   4.443   1.106  0.00  0.00    +0.147 A 
ATOM      7  O   UNL     1      -1.239   5.681   0.608  0.00  0.00    -0.359 OA
ATOM      8  N   UNL     1      -1.245   5.707  -0.598  0.00  0.00    -0.082 NA
ATOM      9  C   UNL     1      -1.208   4.055   2.562  0.00  0.00    +0.090 C 
BRANCH   4  11
ATOM     10  C   UNL     1      -2.661   4.016  -3.077  0.00  0.00    +0.010 C 
ATOM     11  C   UNL     1      -1.220   4.157  -2.581  0.00  0.00    +0.056 C 
ENDBRANCH   4  11
ENDBRANCH   1   5
BRANCH   3  12
ATOM     12  C   UNL     1       0.002  -0.004   0.002  0.00  0.00    +0.111 C 
BRANCH  12  13
ATOM     13  C   UNL     1       0.023  -0.522   1.442  0.00  0.00    +0.003 C 
ATOM     14  C   UNL     1       1.333  -0.106   2.116  0.00  0.00    -0.014 C 
ATOM     15  C   UNL     1       1.375  -0.679   3.534  0.00  0.00    -0.078 C 
ATOM     16  C   UNL     1       0.003  -2.565   2.876  0.00  0.00    -0.078 C 
ATOM     17  C   UNL     1      -0.079  -2.050   1.438  0.00  0.00    -0.014 C 
ATOM     18  N   UNL     1       1.298  -2.154   3.460  0.00  0.00    +0.382 N 
ATOM     19  H   UNL     1       2.058  -2.497   2.861  0.00  0.00    -0.081 HD
BRANCH  18  20
ATOM     20  C   UNL     1       1.451  -2.736   4.809  0.00  0.00    -0.040 C 
BRANCH  20  21
ATOM     21  C   UNL     1       2.857  -2.486   5.289  0.00  0.00    -0.029 A 
ATOM     22  C   UNL     1       3.097  -1.531   6.258  0.00  0.00    +0.004 A 
ATOM     23  C   UNL     1       4.387  -1.301   6.699  0.00  0.00    +0.000 A 
ATOM     24  C   UNL     1       5.439  -2.028   6.171  0.00  0.00    +0.003 A 
ATOM     25  C   UNL     1       5.201  -2.984   5.202  0.00  0.00    +0.038 A 
ATOM     26  C   UNL     1       3.909  -3.217   4.763  0.00  0.00    +0.125 A 
ATOM     27  F   UNL     1       3.674  -4.155   3.820  0.00  0.00    -0.205 F 
ENDBRANCH  20  21
ENDBRANCH  18  20
ENDBRANCH  12  13
ENDBRANCH   3  12
BRANCH   3  28
ATOM     28  C   UNL     1       1.241   2.211   0.002  0.00  0.00    +0.139 C 
BRANCH  28  29
ATOM     29  C   UNL     1       1.665   2.479  -1.443  0.00  0.00    +0.136 C 
ATOM     30  C   UNL     1       2.989   3.268  -1.462  0.00  0.00    +0.035 C 
ATOM     31  C   UNL     1       3.958   2.363  -2.263  0.00  0.00    +0.031 C 
ATOM     32  C   UNL     1       2.979   1.460  -3.055  0.00  0.00    +0.160 C 
ATOM     33  O   UNL     1       1.899   1.235  -2.123  0.00  0.00    -0.375 OA
ENDBRANCH  28  29
ENDBRANCH   3  28
TORSDOF 8
