REMARK  Name = ZINC22852536
REMARK  5 active torsions:
REMARK  status: ('A' for Active; 'I' for Inactive)
REMARK    1  A    between atoms: C_3  and  C_6
REMARK    2  A    between atoms: C_11  and  O_30
REMARK    3  A    between atoms: C_12  and  C_14
REMARK    4  A    between atoms: C_14  and  C_16
REMARK    5  A    between atoms: C_14  and  N_24
REMARK                            x       y       z     vdW  Elec       q    Type
REMARK                         _______ _______ _______ _____ _____    ______ ____
ROOT
ATOM      1  C   UNL     1       3.524   0.211   0.026  0.00  0.00    +0.218 A 
ATOM      2  N   UNL     1       4.252   1.336   0.029  0.00  0.00    -0.197 NA
ATOM      3  C   UNL     1       5.519   1.029  -0.001  0.00  0.00    +0.200 A 
ATOM      4  N   UNL     1       5.665  -0.331  -0.024  0.00  0.00    -0.173 N 
ATOM      5  N   UNL     1       4.335  -0.825   0.001  0.00  0.00    -0.138 NA
ATOM      6  C   UNL     1       6.947  -0.822  -0.057  0.00  0.00    +0.228 A 
ATOM      7  C   UNL     1       7.996   0.007  -0.065  0.00  0.00    +0.076 A 
ATOM      8  S   UNL     1       7.199   1.606  -0.025  0.00  0.00    -0.047 S 
ENDROOT
BRANCH   1  11
ATOM      9  C   UNL     1      -0.107   0.686   0.100  0.00  0.00    +0.042 A 
ATOM     10  C   UNL     1       1.202   1.208   0.080  0.00  0.00    +0.053 A 
ATOM     11  C   UNL     1       2.048   0.144   0.054  0.00  0.00    +0.173 A 
ATOM     12  O   UNL     1       1.307  -0.981   0.057  0.00  0.00    -0.460 OA
ATOM     13  C   UNL     1       0.004  -0.657   0.084  0.00  0.00    +0.196 A 
ENDBRANCH   1  11
BRANCH   6  14
ATOM     14  O   UNL     1       7.152  -2.167  -0.081  0.00  0.00    -0.492 OA
ATOM     15  H   UNL     1       6.338  -2.689  -0.073  0.00  0.00    +0.294 HD
ENDBRANCH   6  14
BRANCH   7  16
ATOM     16  C   UNL     1       9.467  -0.321  -0.097  0.00  0.00    +0.131 C 
BRANCH  16  17
ATOM     17  C   UNL     1      10.131   0.224   1.141  0.00  0.00    -0.007 A 
ATOM     18  C   UNL     1      10.710   1.478   1.120  0.00  0.00    +0.008 A 
ATOM     19  C   UNL     1      11.319   1.978   2.256  0.00  0.00    +0.020 A 
ATOM     20  C   UNL     1      11.349   1.223   3.415  0.00  0.00    +0.042 A 
ATOM     21  C   UNL     1      10.768  -0.033   3.437  0.00  0.00    +0.040 A 
ATOM     22  C   UNL     1      10.155  -0.530   2.301  0.00  0.00    +0.047 A 
ATOM     23 CL   UNL     1       9.421  -2.103   2.329  0.00  0.00    -0.083 Cl
ATOM     24 CL   UNL     1      12.114   1.850   4.841  0.00  0.00    -0.083 Cl
ENDBRANCH  16  17
BRANCH  16  25
ATOM     25  N   UNL     1      10.078   0.287  -1.287  0.00  0.00    -0.287 NA
ATOM     26  C   UNL     1       9.307  -0.034  -2.497  0.00  0.00    +0.113 C 
ATOM     27  C   UNL     1       9.942   0.666  -3.701  0.00  0.00    +0.175 C 
ATOM     28  O   UNL     1      11.312   0.267  -3.810  0.00  0.00    -0.377 OA
ATOM     29  C   UNL     1      12.092   0.565  -2.649  0.00  0.00    +0.175 C 
ATOM     30  C   UNL     1      11.478  -0.136  -1.435  0.00  0.00    +0.113 C 
ENDBRANCH  16  25
ENDBRANCH   7  16
TORSDOF 5
