REMARK  Name = ZINC02108449
REMARK  7 active torsions:
REMARK  status: ('A' for Active; 'I' for Inactive)
REMARK    1  A    between atoms: C_1  and  C_2
REMARK    2  A    between atoms: C_2  and  C_4
REMARK    3  A    between atoms: C_2  and  N_15
REMARK    4  A    between atoms: N_6  and  C_7
REMARK    5  A    between atoms: C_7  and  C_8
REMARK    6  A    between atoms: C_8  and  C_9
REMARK    7  A    between atoms: C_18  and  C_34
REMARK                            x       y       z     vdW  Elec       q    Type
REMARK                         _______ _______ _______ _____ _____    ______ ____
ROOT
ATOM      1  N   UNL     1      -6.485  -1.419   4.016  0.00  0.00    -0.212 N 
ATOM      2  C   UNL     1      -6.657  -2.652   4.540  0.00  0.00    +0.253 C 
ATOM      3  O   UNL     1      -6.445  -3.716   3.998  0.00  0.00    -0.272 OA
ATOM      4  C   UNL     1      -7.169  -2.427   5.943  0.00  0.00    +0.153 C 
ATOM      5  C   UNL     1      -6.279  -3.084   6.971  0.00  0.00    +0.053 A 
ATOM      6  C   UNL     1      -5.720  -2.408   7.999  0.00  0.00    -0.015 A 
ATOM      7  C   UNL     1      -4.958  -3.378   8.766  0.00  0.00    +0.003 A 
ATOM      8  C   UNL     1      -4.186  -3.266   9.927  0.00  0.00    +0.010 A 
ATOM      9  C   UNL     1      -3.588  -4.413  10.386  0.00  0.00    +0.001 A 
ATOM     10  C   UNL     1      -3.736  -5.630   9.740  0.00  0.00    +0.002 A 
ATOM     11  C   UNL     1      -4.495  -5.769   8.591  0.00  0.00    +0.026 A 
ATOM     12  C   UNL     1      -5.115  -4.620   8.102  0.00  0.00    +0.047 A 
ATOM     13  N   UNL     1      -5.917  -4.403   7.020  0.00  0.00    -0.356 N 
ATOM     14  H   UNL     1      -6.189  -5.081   6.382  0.00  0.00    +0.166 HD
ATOM     15  C   UNL     1      -5.849  -0.931   8.274  0.00  0.00    +0.056 C 
ATOM     16  C   UNL     1      -7.000  -0.335   7.450  0.00  0.00    +0.115 C 
ATOM     17  N   UNL     1      -6.992  -0.967   6.125  0.00  0.00    -0.266 N 
ATOM     18  C   UNL     1      -6.734  -0.458   4.921  0.00  0.00    +0.313 C 
ATOM     19  O   UNL     1      -6.727   0.732   4.671  0.00  0.00    -0.252 OA
ATOM     20  C   UNL     1      -8.629  -2.856   6.095  0.00  0.00    +0.048 C 
ENDROOT
BRANCH   1  22
ATOM     21  C   UNL     1      -7.153  -0.345   1.923  0.00  0.00    +0.038 C 
ATOM     22  C   UNL     1      -6.072  -1.161   2.634  0.00  0.00    +0.168 C 
BRANCH  22  23
ATOM     23  C   UNL     1      -4.777  -0.390   2.632  0.00  0.00    +0.234 C 
ATOM     24  O   UNL     1      -4.251  -0.086   3.682  0.00  0.00    -0.274 OA
ATOM     25  N   UNL     1      -4.204  -0.039   1.464  0.00  0.00    -0.313 N 
ATOM     26  H   UNL     1      -4.624  -0.283   0.625  0.00  0.00    +0.149 HD
BRANCH  25  27
ATOM     27  C   UNL     1      -2.945   0.711   1.462  0.00  0.00    +0.109 C 
BRANCH  27  28
ATOM     28  C   UNL     1      -2.514   0.980   0.019  0.00  0.00    +0.054 C 
BRANCH  28  29
ATOM     29  C   UNL     1      -1.219   1.751   0.017  0.00  0.00    -0.046 A 
ATOM     30  C   UNL     1      -0.013   1.076   0.008  0.00  0.00    +0.004 A 
ATOM     31  C   UNL     1       1.175   1.783   0.000  0.00  0.00    +0.000 A 
ATOM     32  C   UNL     1       1.156   3.165   0.008  0.00  0.00    +0.000 A 
ATOM     33  C   UNL     1      -0.050   3.840   0.022  0.00  0.00    +0.000 A 
ATOM     34  C   UNL     1      -1.238   3.133   0.030  0.00  0.00    +0.004 A 
ENDBRANCH  28  29
ENDBRANCH  27  28
ENDBRANCH  25  27
ENDBRANCH  22  23
ENDBRANCH   1  22
TORSDOF 5
