REMARK  Name = ZINC06729723
REMARK  3 active torsions:
REMARK  status: ('A' for Active; 'I' for Inactive)
REMARK    1  A    between atoms: C_5  and  N_8
REMARK    2  A    between atoms: C_9  and  C_11
REMARK    3  A    between atoms: N_16  and  C_18
REMARK                            x       y       z     vdW  Elec       q    Type
REMARK                         _______ _______ _______ _____ _____    ______ ____
ROOT
ATOM      1  N   UNL     1      -2.379   4.811  -1.050  0.00  0.00    -0.312 N 
ATOM      2  C   UNL     1      -3.644   5.174  -0.761  0.00  0.00    +0.218 C 
ATOM      3  O   UNL     1      -4.298   4.521   0.024  0.00  0.00    -0.275 OA
ATOM      4  H   UNL     1      -1.856   5.334  -1.678  0.00  0.00    +0.149 HD
ENDROOT
BRANCH   1   9
ATOM      5  C   UNL     1      -0.013   1.086   0.008  0.00  0.00    +0.000 C 
ATOM      6  C   UNL     1      -0.706   1.569   1.298  0.00  0.00    +0.000 C 
ATOM      7  C   UNL     1      -0.286   2.990   1.562  0.00  0.00    +0.002 C 
ATOM      8  C   UNL     1      -1.284   4.014   0.986  0.00  0.00    +0.022 C 
ATOM      9  C   UNL     1      -1.793   3.628  -0.416  0.00  0.00    +0.073 C 
ATOM     10  C   UNL     1      -0.699   3.093  -1.299  0.00  0.00    +0.022 C 
ATOM     11  C   UNL     1      -0.690   1.555  -1.192  0.00  0.00    +0.002 C 
ENDBRANCH   1   9
BRANCH   2  12
ATOM     12  C   UNL     1      -4.246   6.392  -1.413  0.00  0.00    +0.101 C 
ATOM     13  C   UNL     1      -3.454   7.667  -1.043  0.00  0.00    +0.110 C 
ATOM     14  C   UNL     1      -4.181   8.217   0.165  0.00  0.00    +0.217 C 
ATOM     15  O   UNL     1      -3.731   9.044   0.929  0.00  0.00    -0.276 OA
ATOM     16  N   UNL     1      -5.399   7.657   0.267  0.00  0.00    -0.298 N 
ATOM     17  C   UNL     1      -5.639   6.703  -0.823  0.00  0.00    +0.121 C 
BRANCH  16  18
ATOM     18  C   UNL     1      -6.362   7.958   1.329  0.00  0.00    +0.076 C 
ATOM     19  C   UNL     1      -6.668   9.470   1.350  0.00  0.00    +0.022 C 
ATOM     20  C   UNL     1      -6.812   9.807   2.855  0.00  0.00    +0.002 C 
ATOM     21  C   UNL     1      -5.718   8.926   3.509  0.00  0.00    +0.002 C 
ATOM     22  C   UNL     1      -5.758   7.613   2.701  0.00  0.00    +0.022 C 
ENDBRANCH  16  18
ENDBRANCH   2  12
TORSDOF 3
