REMARK  Name = ZINC39037506
REMARK  5 active torsions:
REMARK  status: ('A' for Active; 'I' for Inactive)
REMARK    1  A    between atoms: C_1  and  O_2
REMARK    2  A    between atoms: O_2  and  C_3
REMARK    3  A    between atoms: N_11  and  C_12
REMARK    4  A    between atoms: C_12  and  C_14
REMARK    5  A    between atoms: N_20  and  C_22
REMARK                            x       y       z     vdW  Elec       q    Type
REMARK                         _______ _______ _______ _____ _____    ______ ____
ROOT
ATOM      1  C   UNL     1      -5.345  -6.290   0.030  0.00  0.00    +0.265 C 
ATOM      2  O   UNL     1      -4.179  -6.636   0.021  0.00  0.00    -0.271 OA
ENDROOT
BRANCH   1  11
ATOM      3  C   UNL     1      -1.201  -0.638   0.010  0.00  0.00    +0.121 A 
ATOM      4  C   UNL     1      -2.381   0.095   0.019  0.00  0.00    +0.048 A 
ATOM      5  C   UNL     1      -3.606  -0.530   0.028  0.00  0.00    +0.030 A 
ATOM      6  C   UNL     1      -3.695  -1.929   0.026  0.00  0.00    +0.055 A 
ATOM      7  C   UNL     1      -2.490  -2.646   0.016  0.00  0.00    +0.042 A 
ATOM      8  C   UNL     1      -1.264  -2.024   0.003  0.00  0.00    +0.062 A 
ATOM      9  S   UNL     1      -3.027  -4.337   0.017  0.00  0.00    -0.052 S 
ATOM     10  C   UNL     1      -4.688  -4.082   0.030  0.00  0.00    +0.164 A 
ATOM     11  N   UNL     1      -5.654  -4.998   0.035  0.00  0.00    -0.155 NA
ATOM     12  N   UNL     1      -4.822  -2.732   0.033  0.00  0.00    -0.335 N 
ATOM     13  H   UNL     1      -5.705  -2.331   0.041  0.00  0.00    +0.168 HD
BRANCH   3  15
ATOM     14  C   UNL     1      -0.017   1.425   0.010  0.00  0.00    +0.277 C 
ATOM     15  O   UNL     1       0.002  -0.004   0.002  0.00  0.00    -0.495 OA
ENDBRANCH   3  15
ENDBRANCH   1  11
BRANCH   1  16
ATOM     16  C   UNL     1      -6.438  -7.327   0.036  0.00  0.00    +0.231 C 
ATOM     17  C   UNL     1      -7.282  -7.165   1.278  0.00  0.00    +0.185 C 
ATOM     18  O   UNL     1      -8.223  -6.395   1.284  0.00  0.00    -0.290 OA
ATOM     19  C   UNL     1      -6.969  -7.911   2.426  0.00  0.00    +0.065 C 
ATOM     20  C   UNL     1      -5.924  -8.778   2.390  0.00  0.00    +0.097 C 
ATOM     21  N   UNL     1      -5.212  -8.910   1.230  0.00  0.00    -0.242 N 
ATOM     22  N   UNL     1      -5.841  -8.673   0.034  0.00  0.00    -0.217 NA
ATOM     23  H   UNL     1      -6.539  -9.377  -0.153  0.00  0.00    +0.146 HD
BRANCH  21  24
ATOM     24  C   UNL     1      -3.864  -9.281   1.262  0.00  0.00    +0.049 A 
ATOM     25  C   UNL     1      -3.149  -9.407   0.077  0.00  0.00    +0.026 A 
ATOM     26  C   UNL     1      -1.818  -9.773   0.112  0.00  0.00    +0.022 A 
ATOM     27  C   UNL     1      -1.196 -10.015   1.324  0.00  0.00    +0.041 A 
ATOM     28  C   UNL     1      -1.906  -9.890   2.506  0.00  0.00    +0.022 A 
ATOM     29  C   UNL     1      -3.236  -9.519   2.478  0.00  0.00    +0.026 A 
ATOM     30 CL   UNL     1       0.477 -10.476   1.363  0.00  0.00    -0.084 Cl
ENDBRANCH  21  24
ENDBRANCH   1  16
TORSDOF 4
