REMARK  Name = ZINC08882194
REMARK  4 active torsions:
REMARK  status: ('A' for Active; 'I' for Inactive)
REMARK    1  A    between atoms: C_1  and  C_2
REMARK    2  A    between atoms: C_2  and  C_4
REMARK    3  A    between atoms: C_2  and  N_23
REMARK    4  A    between atoms: C_9  and  N_12
REMARK                            x       y       z     vdW  Elec       q    Type
REMARK                         _______ _______ _______ _____ _____    ______ ____
ROOT
ATOM      1  C   UNL     1       0.821  -0.541   1.147  0.00  0.00    +0.236 C 
ATOM      2  O   UNL     1       1.844  -1.154   0.926  0.00  0.00    -0.274 OA
ATOM      3  N   UNL     1       0.420  -0.336   2.417  0.00  0.00    -0.300 N 
ATOM      4  C   UNL     1      -0.869   0.309   2.700  0.00  0.00    +0.110 C 
ATOM      5  C   UNL     1      -0.631   1.499   3.635  0.00  0.00    +0.044 C 
ATOM      6  C   UNL     1       0.120   1.022   4.880  0.00  0.00    +0.095 C 
ATOM      7  C   UNL     1       1.479   0.450   4.471  0.00  0.00    +0.044 C 
ATOM      8  C   UNL     1       1.262  -0.757   3.546  0.00  0.00    +0.110 C 
ENDROOT
BRANCH   6   9
ATOM      9  N   UNL     1       0.320   2.151   5.792  0.00  0.00    -0.289 N 
ATOM     10  C   UNL     1      -0.149   2.236   7.101  0.00  0.00    +0.070 A 
ATOM     11  C   UNL     1      -0.885   1.379   7.905  0.00  0.00    +0.028 A 
ATOM     12  C   UNL     1      -1.204   1.752   9.195  0.00  0.00    +0.002 A 
ATOM     13  C   UNL     1      -0.794   2.978   9.690  0.00  0.00    +0.002 A 
ATOM     14  C   UNL     1      -0.061   3.839   8.896  0.00  0.00    +0.028 A 
ATOM     15  C   UNL     1       0.266   3.472   7.599  0.00  0.00    +0.067 A 
ATOM     16  N   UNL     1       0.974   4.101   6.578  0.00  0.00    -0.306 N 
ATOM     17  H   UNL     1       1.386   4.978   6.629  0.00  0.00    +0.170 HD
ATOM     18  C   UNL     1       0.994   3.282   5.509  0.00  0.00    +0.328 A 
ATOM     19  O   UNL     1       1.537   3.528   4.448  0.00  0.00    -0.247 OA
ENDBRANCH   6   9
BRANCH   1  21
ATOM     20  C   UNL     1       0.201   1.502  -0.113  0.00  0.00    +0.038 C 
ATOM     21  C   UNL     1      -0.002  -0.010   0.002  0.00  0.00    +0.167 C 
BRANCH  21  22
ATOM     22  N   UNL     1       0.421  -0.655  -1.244  0.00  0.00    -0.230 N 
ATOM     23  C   UNL     1       1.686  -0.576  -1.732  0.00  0.00    +0.227 C 
ATOM     24  O   UNL     1       2.667  -0.169  -1.147  0.00  0.00    -0.275 OA
ATOM     25  C   UNL     1       1.626  -1.091  -3.138  0.00  0.00    +0.091 C 
ATOM     26  C   UNL     1       2.817  -1.859  -3.671  0.00  0.00    +0.040 C 
ATOM     27  C   UNL     1       2.362  -2.549  -4.941  0.00  0.00    -0.030 C 
ATOM     28  C   UNL     1       1.120  -2.751  -5.260  0.00  0.00    -0.030 C 
ATOM     29  C   UNL     1      -0.060  -2.351  -4.400  0.00  0.00    +0.040 C 
ATOM     30  C   UNL     1       0.457  -2.115  -3.004  0.00  0.00    +0.091 C 
ATOM     31  C   UNL     1      -0.413  -1.396  -2.019  0.00  0.00    +0.227 C 
ATOM     32  O   UNL     1      -1.621  -1.461  -1.933  0.00  0.00    -0.275 OA
ENDBRANCH  21  22
ENDBRANCH   1  21
TORSDOF 3
