REMARK  Name = ZINC66918279
REMARK  11 active torsions:
REMARK  status: ('A' for Active; 'I' for Inactive)
REMARK    1  A    between atoms: C_1  and  C_2
REMARK    2  A    between atoms: C_2  and  O_3
REMARK    3  A    between atoms: O_3  and  C_4
REMARK    4  A    between atoms: N_6  and  C_7
REMARK    5  A    between atoms: C_14  and  C_16
REMARK    6  A    between atoms: C_16  and  C_18
REMARK    7  A    between atoms: C_16  and  N_21
REMARK    8  A    between atoms: C_18  and  C_19
REMARK    9  A    between atoms: C_18  and  C_20
REMARK   10  A    between atoms: C_23  and  C_30
REMARK   11  A    between atoms: C_26  and  C_29
REMARK                            x       y       z     vdW  Elec       q    Type
REMARK                         _______ _______ _______ _____ _____    ______ ____
ROOT
ATOM      1  C   UNL     1       1.783  -3.250  -3.163  0.00  0.00    +0.093 C 
ATOM      2  C   UNL     1       3.284  -3.521  -3.035  0.00  0.00    +0.025 C 
ATOM      3  C   UNL     1       3.540  -5.028  -3.106  0.00  0.00    +0.021 C 
ATOM      4  C   UNL     1       3.066  -5.559  -4.463  0.00  0.00    +0.108 C 
ATOM      5  N   UNL     1       1.661  -5.176  -4.656  0.00  0.00    -0.298 N 
ATOM      6  C   UNL     1       1.289  -3.761  -4.520  0.00  0.00    +0.130 C 
ATOM      7  C   UNL     1       0.731  -6.105  -4.953  0.00  0.00    +0.233 C 
ATOM      8  O   UNL     1      -0.442  -5.798  -4.990  0.00  0.00    -0.274 OA
ENDROOT
BRANCH   1  11
ATOM      9  C   UNL     1       1.405  -1.230  -1.854  0.00  0.00    +0.401 C 
ATOM     10  O   UNL     1       1.492  -1.902  -0.846  0.00  0.00    -0.226 OA
ATOM     11  N   UNL     1       1.536  -1.809  -3.064  0.00  0.00    -0.277 N 
ATOM     12  H   UNL     1       1.467  -1.272  -3.869  0.00  0.00    +0.152 HD
BRANCH   9  13
ATOM     13  O   UNL     1       1.178   0.094  -1.763  0.00  0.00    -0.451 OA
BRANCH  13  15
ATOM     14  C   UNL     1       0.797   2.147  -0.547  0.00  0.00    +0.048 C 
ATOM     15  C   UNL     1       1.050   0.642  -0.449  0.00  0.00    +0.230 C 
ENDBRANCH  13  15
ENDBRANCH   9  13
ENDBRANCH   1  11
BRANCH   7  16
ATOM     16  C   UNL     1       1.148  -7.524  -5.240  0.00  0.00    +0.146 C 
BRANCH  16  17
ATOM     17  N   UNL     1       0.329  -8.064  -6.333  0.00  0.00    -0.286 NA
ATOM     18  C   UNL     1      -1.072  -8.219  -5.915  0.00  0.00    +0.116 C 
ATOM     19  C   UNL     1      -1.876  -8.839  -7.062  0.00  0.00    +0.130 C 
ATOM     20  O   UNL     1      -1.746  -8.018  -8.226  0.00  0.00    -0.371 OA
ATOM     21  C   UNL     1      -0.395  -7.846  -8.661  0.00  0.00    +0.130 C 
ATOM     22  C   UNL     1       0.424  -7.217  -7.531  0.00  0.00    +0.116 C 
ATOM     23  C   UNL     1      -0.365  -6.929  -9.886  0.00  0.00    +0.039 C 
ATOM     24  C   UNL     1      -3.350  -8.930  -6.662  0.00  0.00    +0.039 C 
ENDBRANCH  16  17
BRANCH  16  25
ATOM     25  C   UNL     1       0.949  -8.377  -3.985  0.00  0.00    +0.009 C 
ATOM     26  C   UNL     1       1.340  -9.825  -4.285  0.00  0.00    +0.009 C 
ATOM     27  C   UNL     1       1.828  -7.835  -2.856  0.00  0.00    +0.009 C 
ENDBRANCH  16  25
ENDBRANCH   7  16
TORSDOF 6
