REMARK  Name = ZINC03269038
REMARK  4 active torsions:
REMARK  status: ('A' for Active; 'I' for Inactive)
REMARK    1  A    between atoms: C_1  and  C_2
REMARK    2  A    between atoms: C_3  and  O_17
REMARK    3  A    between atoms: O_17  and  S_18
REMARK    4  A    between atoms: S_18  and  C_21
REMARK                            x       y       z     vdW  Elec       q    Type
REMARK                         _______ _______ _______ _____ _____    ______ ____
ROOT
ATOM      1  C   UNL     1      -2.386   3.849   0.020  0.00  0.00    +0.051 C 
ATOM      2  C   UNL     1      -1.125   3.025   0.056  0.00  0.00    +0.037 A 
ATOM      3  C   UNL     1      -1.198   1.641   0.059  0.00  0.00    +0.163 A 
ATOM      4  C   UNL     1      -0.037   0.871   0.098  0.00  0.00    +0.050 A 
ATOM      5  C   UNL     1       1.190   1.470   0.123  0.00  0.00    +0.015 A 
ATOM      6  C   UNL     1       1.281   2.866   0.116  0.00  0.00    +0.022 A 
ATOM      7  C   UNL     1       0.113   3.648   0.081  0.00  0.00    +0.146 A 
ATOM      8  O   UNL     1       0.211   4.994   0.073  0.00  0.00    -0.422 OA
ATOM      9  C   UNL     1       1.403   5.606   0.095  0.00  0.00    +0.341 A 
ATOM     10  O   UNL     1       1.441   6.823   0.087  0.00  0.00    -0.245 OA
ATOM     11  C   UNL     1       2.621   4.882   0.127  0.00  0.00    +0.041 A 
ATOM     12  C   UNL     1       2.590   3.532   0.144  0.00  0.00    -0.027 A 
ATOM     13  C   UNL     1       3.828   2.681   0.198  0.00  0.00    +0.036 C 
ATOM     14  C   UNL     1       5.058   3.492  -0.208  0.00  0.00    +0.005 C 
ATOM     15  C   UNL     1       5.067   4.791   0.607  0.00  0.00    +0.005 C 
ATOM     16  C   UNL     1       3.908   5.665   0.133  0.00  0.00    +0.042 C 
ENDROOT
BRANCH   3  17
ATOM     17  O   UNL     1      -2.410   1.031   0.029  0.00  0.00    -0.346 OA
BRANCH  17  18
ATOM     18  S   UNL     1      -2.866   0.628  -1.367  0.00  0.00    +0.118 S 
ATOM     19  O   UNL     1      -4.231   0.267  -1.212  0.00  0.00    -0.137 OA
ATOM     20  O   UNL     1      -2.495   1.720  -2.198  0.00  0.00    -0.137 OA
ATOM     21  C   UNL     1      -1.874  -0.835  -1.777  0.00  0.00    +0.242 C 
ENDBRANCH  17  18
ENDBRANCH   3  17
TORSDOF 2
