REMARK  Name = ZINC45154404
REMARK  7 active torsions:
REMARK  status: ('A' for Active; 'I' for Inactive)
REMARK    1  A    between atoms: C_1  and  C_2
REMARK    2  A    between atoms: C_2  and  N_3
REMARK    3  A    between atoms: N_3  and  C_4
REMARK    4  A    between atoms: C_4  and  C_5
REMARK    5  A    between atoms: N_16  and  C_17
REMARK    6  A    between atoms: C_17  and  C_19
REMARK    7  A    between atoms: C_17  and  C_25
REMARK                            x       y       z     vdW  Elec       q    Type
REMARK                         _______ _______ _______ _____ _____    ______ ____
ROOT
ATOM      1  N   UNL     1       0.554  -0.771  -1.216  0.00  0.00    -0.286 N 
ATOM      2  C   UNL     1       0.090  -1.163  -2.419  0.00  0.00    +0.305 C 
ATOM      3  O   UNL     1       0.858  -1.304  -3.351  0.00  0.00    -0.252 OA
ATOM      4  N   UNL     1      -1.226  -1.399  -2.589  0.00  0.00    -0.282 N 
ATOM      5  C   UNL     1      -2.196  -1.005  -1.557  0.00  0.00    +0.128 C 
ATOM      6  C   UNL     1      -3.259  -0.107  -2.202  0.00  0.00    +0.128 C 
ATOM      7  N   UNL     1      -3.750  -0.763  -3.422  0.00  0.00    -0.283 N 
ATOM      8  C   UNL     1      -2.780  -1.156  -4.454  0.00  0.00    +0.128 C 
ATOM      9  C   UNL     1      -1.717  -2.049  -3.812  0.00  0.00    +0.128 C 
ATOM     10  C   UNL     1      -5.066  -0.999  -3.592  0.00  0.00    +0.303 C 
ATOM     11  O   UNL     1      -5.868  -0.585  -2.777  0.00  0.00    -0.253 OA
ATOM     12  N   UNL     1      -5.493  -1.693  -4.666  0.00  0.00    -0.285 N 
ATOM     13  H   UNL     1      -4.850  -2.086  -5.276  0.00  0.00    +0.151 HD
ENDROOT
BRANCH   1  15
ATOM     14  C   UNL     1       2.910  -1.234  -0.748  0.00  0.00    +0.024 C 
ATOM     15  C   UNL     1       1.881  -0.160  -1.106  0.00  0.00    +0.106 C 
ENDBRANCH   1  15
BRANCH   1  16
ATOM     16  C   UNL     1      -0.268  -0.957  -0.017  0.00  0.00    +0.106 C 
ATOM     17  C   UNL     1      -0.668   0.410   0.543  0.00  0.00    +0.024 C 
ENDBRANCH   1  16
BRANCH  12  18
ATOM     18  C   UNL     1      -6.929  -1.853  -4.911  0.00  0.00    +0.171 C 
BRANCH  18  19
ATOM     19  C   UNL     1      -7.163  -3.097  -5.729  0.00  0.00    -0.020 A 
ATOM     20  C   UNL     1      -6.300  -3.418  -6.760  0.00  0.00    +0.006 A 
ATOM     21  C   UNL     1      -6.515  -4.559  -7.511  0.00  0.00    +0.000 A 
ATOM     22  C   UNL     1      -7.592  -5.379  -7.230  0.00  0.00    +0.000 A 
ATOM     23  C   UNL     1      -8.454  -5.058  -6.198  0.00  0.00    +0.000 A 
ATOM     24  C   UNL     1      -8.237  -3.919  -5.445  0.00  0.00    +0.006 A 
ENDBRANCH  18  19
BRANCH  18  25
ATOM     25  C   UNL     1      -7.447  -0.653  -5.661  0.00  0.00    +0.129 A 
ATOM     26  C   UNL     1      -8.622  -0.036  -5.442  0.00  0.00    +0.047 A 
ATOM     27  C   UNL     1      -8.702   1.032  -6.364  0.00  0.00    +0.041 A 
ATOM     28  C   UNL     1      -7.571   1.004  -7.092  0.00  0.00    +0.195 A 
ATOM     29  O   UNL     1      -6.812  -0.015  -6.658  0.00  0.00    -0.466 OA
ENDBRANCH  18  25
ENDBRANCH  12  18
TORSDOF 5
