REMARK  Name = ZINC44429145
REMARK  8 active torsions:
REMARK  status: ('A' for Active; 'I' for Inactive)
REMARK    1  A    between atoms: C_1  and  O_2
REMARK    2  A    between atoms: O_2  and  C_3
REMARK    3  A    between atoms: C_6  and  C_11
REMARK    4  A    between atoms: C_7  and  O_9
REMARK    5  A    between atoms: O_9  and  C_10
REMARK    6  A    between atoms: C_13  and  C_16
REMARK    7  A    between atoms: N_21  and  C_23
REMARK    8  A    between atoms: C_23  and  C_24
REMARK                            x       y       z     vdW  Elec       q    Type
REMARK                         _______ _______ _______ _____ _____    ______ ____
ROOT
ATOM      1  C   UNL     1       2.580  -2.527   4.295  0.00  0.00    +0.262 A 
ATOM      2  N   UNL     1       3.158  -1.923   5.311  0.00  0.00    -0.191 NA
ATOM      3  C   UNL     1       3.671  -2.829   6.147  0.00  0.00    +0.177 A 
ATOM      4  N   UNL     1       3.431  -4.023   5.683  0.00  0.00    -0.061 NA
ATOM      5  O   UNL     1       2.711  -3.854   4.471  0.00  0.00    -0.333 OA
ENDROOT
BRANCH   1   9
ATOM      6  C   UNL     1       0.625  -0.618   1.040  0.00  0.00    +0.124 A 
ATOM      7  C   UNL     1       1.202   0.145   2.051  0.00  0.00    +0.046 A 
ATOM      8  C   UNL     1       1.836  -0.470   3.107  0.00  0.00    +0.020 A 
ATOM      9  C   UNL     1       1.901  -1.865   3.166  0.00  0.00    +0.081 A 
ATOM     10  C   UNL     1       1.319  -2.632   2.147  0.00  0.00    +0.136 A 
ATOM     11  C   UNL     1       0.679  -2.003   1.093  0.00  0.00    +0.092 A 
BRANCH   6  13
ATOM     12  C   UNL     1      -0.017   1.425   0.010  0.00  0.00    +0.277 C 
ATOM     13  O   UNL     1       0.002  -0.004   0.002  0.00  0.00    -0.495 OA
ENDBRANCH   6  13
BRANCH  10  14
ATOM     14  O   UNL     1       1.378  -3.987   2.197  0.00  0.00    -0.494 OA
ATOM     15  C   UNL     1       0.763  -4.703   1.124  0.00  0.00    +0.277 C 
ENDBRANCH  10  14
ENDBRANCH   1   9
BRANCH   3  16
ATOM     16  C   UNL     1       4.410  -2.520   7.423  0.00  0.00    +0.086 C 
ATOM     17  C   UNL     1       3.755  -3.234   8.629  0.00  0.00    +0.109 C 
ATOM     18  C   UNL     1       4.924  -3.643   9.498  0.00  0.00    +0.217 C 
ATOM     19  O   UNL     1       4.841  -3.978  10.660  0.00  0.00    -0.276 OA
ATOM     20  N   UNL     1       6.067  -3.583   8.793  0.00  0.00    -0.296 N 
ATOM     21  C   UNL     1       5.820  -3.150   7.412  0.00  0.00    +0.120 C 
BRANCH  20  22
ATOM     22  C   UNL     1       7.389  -3.906   9.335  0.00  0.00    +0.143 C 
BRANCH  22  23
ATOM     23  C   UNL     1       7.673  -5.371   9.127  0.00  0.00    -0.029 A 
ATOM     24  C   UNL     1       7.302  -6.290  10.091  0.00  0.00    +0.008 A 
ATOM     25  C   UNL     1       7.561  -7.634   9.902  0.00  0.00    +0.040 A 
ATOM     26  C   UNL     1       8.191  -8.062   8.746  0.00  0.00    +0.142 A 
ATOM     27  C   UNL     1       8.562  -7.141   7.780  0.00  0.00    +0.076 A 
ATOM     28  C   UNL     1       8.297  -5.796   7.969  0.00  0.00    +0.028 A 
ATOM     29 CL   UNL     1       9.353  -7.674   6.329  0.00  0.00    -0.081 Cl
ATOM     30  F   UNL     1       8.445  -9.376   8.561  0.00  0.00    -0.204 F 
ENDBRANCH  22  23
ENDBRANCH  20  22
ENDBRANCH   3  16
TORSDOF 6
