REMARK  Name = ZINC02889794
REMARK  11 active torsions:
REMARK  status: ('A' for Active; 'I' for Inactive)
REMARK    1  A    between atoms: C_1  and  C_2
REMARK    2  A    between atoms: C_5  and  C_30
REMARK    3  A    between atoms: C_6  and  O_9
REMARK    4  A    between atoms: C_7  and  C_8
REMARK    5  A    between atoms: O_9  and  C_10
REMARK    6  A    between atoms: C_10  and  C_11
REMARK    7  A    between atoms: N_13  and  C_14
REMARK    8  A    between atoms: C_15  and  C_26
REMARK    9  A    between atoms: C_16  and  C_19
REMARK   10  A    between atoms: C_26  and  O_28
REMARK   11  A    between atoms: O_28  and  C_29
REMARK                            x       y       z     vdW  Elec       q    Type
REMARK                         _______ _______ _______ _____ _____    ______ ____
ROOT
ATOM      1  C   UNL     1       5.928   2.793   1.941  0.00  0.00    +0.086 A 
ATOM      2  C   UNL     1       7.058   3.558   1.681  0.00  0.00    +0.095 A 
ATOM      3  C   UNL     1       8.341   2.899   1.838  0.00  0.00    +0.005 A 
ATOM      4  C   UNL     1       8.317   1.599   2.225  0.00  0.00    +0.056 A 
ATOM      5  S   UNL     1       6.578   1.252   2.386  0.00  0.00    -0.080 S 
ENDROOT
BRANCH   3   6
ATOM      6  C   UNL     1       9.617   3.612   1.588  0.00  0.00    -0.016 A 
ATOM      7  C   UNL     1       9.800   4.324   0.404  0.00  0.00    +0.010 A 
ATOM      8  C   UNL     1      10.988   4.989   0.178  0.00  0.00    +0.020 A 
ATOM      9  C   UNL     1      12.000   4.944   1.121  0.00  0.00    +0.041 A 
ATOM     10  C   UNL     1      11.825   4.234   2.297  0.00  0.00    +0.020 A 
ATOM     11  C   UNL     1      10.639   3.569   2.535  0.00  0.00    +0.010 A 
ATOM     12 CL   UNL     1      13.493   5.778   0.829  0.00  0.00    -0.084 Cl
ENDBRANCH   3   6
BRANCH   1  15
ATOM     13  C   UNL     1       3.626   2.289   2.159  0.00  0.00    +0.255 C 
ATOM     14  O   UNL     1       3.914   1.158   2.486  0.00  0.00    -0.272 OA
ATOM     15  N   UNL     1       4.598   3.175   1.867  0.00  0.00    -0.277 N 
ATOM     16  H   UNL     1       4.367   4.080   1.606  0.00  0.00    +0.155 HD
BRANCH  13  17
ATOM     17  C   UNL     1       2.179   2.705   2.079  0.00  0.00    +0.324 C 
BRANCH  17  18
ATOM     18  O   UNL     1       1.346   1.599   2.432  0.00  0.00    -0.482 OA
BRANCH  18  24
ATOM     19  C   UNL     1      -2.865   1.540  -0.037  0.00  0.00    +0.044 C 
ATOM     20  C   UNL     1      -2.082   1.789   1.227  0.00  0.00    -0.044 A 
ATOM     21  C   UNL     1      -2.731   2.231   2.366  0.00  0.00    +0.004 A 
ATOM     22  C   UNL     1      -2.014   2.466   3.525  0.00  0.00    +0.007 A 
ATOM     23  C   UNL     1      -0.649   2.254   3.549  0.00  0.00    -0.008 A 
ATOM     24  C   UNL     1       0.003   1.807   2.410  0.00  0.00    +0.127 A 
ATOM     25  C   UNL     1      -0.718   1.572   1.248  0.00  0.00    -0.006 A 
ATOM     26  C   UNL     1      -0.013   1.086   0.008  0.00  0.00    +0.048 C 
ATOM     27  C   UNL     1       0.131   2.510   4.813  0.00  0.00    +0.047 C 
ENDBRANCH  18  24
ENDBRANCH  17  18
ENDBRANCH  13  17
ENDBRANCH   1  15
BRANCH   2  28
ATOM     28  C   UNL     1       6.959   4.957   1.268  0.00  0.00    +0.342 C 
ATOM     29  O   UNL     1       6.948   5.840   2.106  0.00  0.00    -0.245 OA
BRANCH  28  30
ATOM     30  O   UNL     1       6.880   5.270  -0.042  0.00  0.00    -0.464 OA
ATOM     31  C   UNL     1       6.785   6.679  -0.379  0.00  0.00    +0.280 C 
ENDBRANCH  28  30
ENDBRANCH   2  28
TORSDOF 7
