REMARK  Name = ZINC45704138
REMARK  10 active torsions:
REMARK  status: ('A' for Active; 'I' for Inactive)
REMARK    1  A    between atoms: C_1  and  C_2
REMARK    2  A    between atoms: C_5  and  C_27
REMARK    3  A    between atoms: N_8  and  C_10
REMARK    4  A    between atoms: C_10  and  C_11
REMARK    5  A    between atoms: C_11  and  C_12
REMARK    6  A    between atoms: N_14  and  C_15
REMARK    7  A    between atoms: C_15  and  C_16
REMARK    8  A    between atoms: C_16  and  C_17
REMARK    9  A    between atoms: C_20  and  S_23
REMARK   10  A    between atoms: S_23  and  N_26
REMARK                            x       y       z     vdW  Elec       q    Type
REMARK                         _______ _______ _______ _____ _____    ______ ____
ROOT
ATOM      1  C   UNL     1       2.839  -0.216   4.928  0.00  0.00    +0.211 C 
ATOM      2  O   UNL     1       3.784  -0.973   4.864  0.00  0.00    -0.276 OA
ATOM      3  N   UNL     1       2.417   0.236   6.126  0.00  0.00    -0.315 N 
ATOM      4  H   UNL     1       1.662   0.842   6.177  0.00  0.00    +0.149 HD
ENDROOT
BRANCH   1   5
ATOM      5  C   UNL     1       2.136   0.221   3.668  0.00  0.00    +0.077 C 
BRANCH   5   6
ATOM      6  C   UNL     1       2.808  -0.431   2.458  0.00  0.00    -0.070 C 
BRANCH   6  12
ATOM      7  C   UNL     1      -0.019   1.526   0.010  0.00  0.00    +0.005 C 
ATOM      8  C   UNL     1       0.002  -0.004   0.002  0.00  0.00    -0.031 C 
ATOM      9  C   UNL     1       0.721  -0.499  -1.257  0.00  0.00    +0.003 C 
ATOM     10  C   UNL     1       2.177  -0.027  -1.220  0.00  0.00    -0.031 C 
ATOM     11  C   UNL     1       2.839  -0.534   0.063  0.00  0.00    -0.076 C 
ATOM     12  N   UNL     1       2.123  -0.005   1.230  0.00  0.00    +0.380 N 
ATOM     13  C   UNL     1       0.744  -0.512   1.240  0.00  0.00    -0.076 C 
ATOM     14  C   UNL     1       2.924  -0.581  -2.434  0.00  0.00    +0.005 C 
ATOM     15  H   UNL     1       2.109   1.003   1.187  0.00  0.00    -0.082 HD
ENDBRANCH   6  12
ENDBRANCH   5   6
ENDBRANCH   1   5
BRANCH   3  16
ATOM     16  C   UNL     1       3.101  -0.188   7.351  0.00  0.00    +0.109 C 
BRANCH  16  17
ATOM     17  C   UNL     1       2.429   0.463   8.561  0.00  0.00    +0.054 C 
BRANCH  17  18
ATOM     18  C   UNL     1       3.132   0.027   9.821  0.00  0.00    -0.046 A 
ATOM     19  C   UNL     1       2.715  -1.111  10.486  0.00  0.00    +0.005 A 
ATOM     20  C   UNL     1       3.360  -1.511  11.642  0.00  0.00    +0.029 A 
ATOM     21  C   UNL     1       4.422  -0.774  12.131  0.00  0.00    +0.105 A 
ATOM     22  C   UNL     1       4.839   0.363  11.465  0.00  0.00    +0.029 A 
ATOM     23  C   UNL     1       4.197   0.761  10.308  0.00  0.00    +0.005 A 
BRANCH  21  24
ATOM     24  S   UNL     1       5.243  -1.284  13.605  0.00  0.00    +0.056 S 
ATOM     25  O   UNL     1       5.853  -0.123  14.152  0.00  0.00    -0.153 OA
ATOM     26  O   UNL     1       4.314  -2.072  14.335  0.00  0.00    -0.153 OA
BRANCH  24  27
ATOM     27  N   UNL     1       6.473  -2.297  13.154  0.00  0.00    -0.204 NA
ATOM     28  H   UNL     1       7.280  -2.348  13.690  0.00  0.00    +0.144 HD
ATOM     29  H   UNL     1       6.386  -2.840  12.355  0.00  0.00    +0.144 HD
ENDBRANCH  24  27
ENDBRANCH  21  24
ENDBRANCH  17  18
ENDBRANCH  16  17
ENDBRANCH   3  16
TORSDOF 8
