REMARK  Name = ZINC39537358
REMARK  11 active torsions:
REMARK  status: ('A' for Active; 'I' for Inactive)
REMARK    1  A    between atoms: C_1  and  C_2
REMARK    2  A    between atoms: C_11  and  C_13
REMARK    3  A    between atoms: N_15  and  C_16
REMARK    4  A    between atoms: C_16  and  C_17
REMARK    5  A    between atoms: C_17  and  C_18
REMARK    6  A    between atoms: C_17  and  C_19
REMARK    7  A    between atoms: C_17  and  C_20
REMARK    8  A    between atoms: C_20  and  O_21
REMARK    9  A    between atoms: N_22  and  C_23
REMARK   10  A    between atoms: C_23  and  C_24
REMARK   11  A    between atoms: C_24  and  C_25
REMARK                            x       y       z     vdW  Elec       q    Type
REMARK                         _______ _______ _______ _____ _____    ______ ____
ROOT
ATOM      1  C   UNL     1       0.408   1.815  -0.142  0.00  0.00    +0.014 C 
ATOM      2  C   UNL     1       0.405   0.293   0.021  0.00  0.00    +0.044 C 
ATOM      3  C   UNL     1       0.777  -0.342  -1.293  0.00  0.00    +0.028 A 
ATOM      4  C   UNL     1       0.388   0.059  -2.581  0.00  0.00    +0.126 A 
ATOM      5  N   UNL     1       0.799  -0.630  -3.638  0.00  0.00    -0.221 NA
ATOM      6  C   UNL     1       1.571  -1.691  -3.514  0.00  0.00    +0.224 A 
ATOM      7  N   UNL     1       1.970  -2.105  -2.326  0.00  0.00    -0.229 NA
ATOM      8  C   UNL     1       1.605  -1.461  -1.230  0.00  0.00    +0.106 A 
ATOM      9  S   UNL     1       1.983  -1.712   0.490  0.00  0.00    -0.092 S 
ATOM     10  C   UNL     1       1.394  -0.096   1.143  0.00  0.00    +0.146 C 
ATOM     11  N   UNL     1      -0.425   1.170  -2.749  0.00  0.00    -0.328 N 
ATOM     12  H   UNL     1      -0.796   1.621  -1.974  0.00  0.00    +0.147 HD
ENDROOT
BRANCH  10  13
ATOM     13  C   UNL     1       0.689  -0.264   2.464  0.00  0.00    +0.227 C 
ATOM     14  O   UNL     1      -0.435  -0.720   2.498  0.00  0.00    -0.275 OA
ATOM     15  N   UNL     1       1.306   0.092   3.608  0.00  0.00    -0.314 N 
ATOM     16  H   UNL     1       2.204   0.456   3.581  0.00  0.00    +0.149 HD
BRANCH  15  17
ATOM     17  C   UNL     1       0.620  -0.071   4.892  0.00  0.00    +0.112 C 
BRANCH  17  18
ATOM     18  C   UNL     1       1.534   0.405   6.023  0.00  0.00    +0.004 C 
ATOM     19  C   UNL     1       2.820  -0.425   6.023  0.00  0.00    +0.015 C 
ATOM     20  C   UNL     1       1.879   1.880   5.813  0.00  0.00    +0.015 C 
BRANCH  18  21
ATOM     21  C   UNL     1       0.817   0.234   7.364  0.00  0.00    +0.163 C 
BRANCH  21  22
ATOM     22  O   UNL     1       1.671   0.678   8.420  0.00  0.00    -0.394 OA
ATOM     23  H   UNL     1       1.280   0.599   9.301  0.00  0.00    +0.209 HD
ENDBRANCH  21  22
ENDBRANCH  18  21
ENDBRANCH  17  18
ENDBRANCH  15  17
ENDBRANCH  10  13
BRANCH  11  24
ATOM     24  C   UNL     1      -0.722   1.664  -4.096  0.00  0.00    +0.107 C 
BRANCH  24  25
ATOM     25  C   UNL     1      -1.632   2.890  -4.000  0.00  0.00    +0.056 C 
BRANCH  25  26
ATOM     26  C   UNL     1      -1.938   3.398  -5.385  0.00  0.00    -0.021 A 
ATOM     27  C   UNL     1      -3.000   2.921  -6.274  0.00  0.00    +0.003 A 
ATOM     28  C   UNL     1      -3.989   1.942  -6.165  0.00  0.00    +0.010 A 
ATOM     29  C   UNL     1      -4.854   1.733  -7.202  0.00  0.00    +0.001 A 
ATOM     30  C   UNL     1      -4.757   2.486  -8.364  0.00  0.00    +0.002 A 
ATOM     31  C   UNL     1      -3.788   3.457  -8.492  0.00  0.00    +0.026 A 
ATOM     32  C   UNL     1      -2.898   3.687  -7.449  0.00  0.00    +0.047 A 
ATOM     33  N   UNL     1      -1.848   4.561  -7.274  0.00  0.00    -0.360 N 
ATOM     34  C   UNL     1      -1.292   4.378  -6.037  0.00  0.00    +0.087 A 
ATOM     35  H   UNL     1      -1.549   5.212  -7.928  0.00  0.00    +0.165 HD
ENDBRANCH  25  26
ENDBRANCH  24  25
ENDBRANCH  11  24
TORSDOF 8
