REMARK  Name = ZINC32648851
REMARK  4 active torsions:
REMARK  status: ('A' for Active; 'I' for Inactive)
REMARK    1  A    between atoms: C_1  and  C_2
REMARK    2  A    between atoms: N_7  and  C_10
REMARK    3  A    between atoms: C_10  and  C_11
REMARK    4  A    between atoms: N_20  and  C_21
REMARK                            x       y       z     vdW  Elec       q    Type
REMARK                         _______ _______ _______ _____ _____    ______ ____
ROOT
ATOM      1  C   UNL     1       6.261   3.813   0.936  0.00  0.00    +0.067 C 
ATOM      2  C   UNL     1       5.212   3.434  -0.077  0.00  0.00    +0.064 A 
ATOM      3  C   UNL     1       3.949   2.966   0.191  0.00  0.00    +0.141 A 
ATOM      4  C   UNL     1       3.348   2.755  -1.138  0.00  0.00    +0.179 A 
ATOM      5  C   UNL     1       1.970   2.247  -1.183  0.00  0.00    +0.298 A 
ATOM      6  O   UNL     1       1.404   2.046  -2.242  0.00  0.00    -0.264 OA
ATOM      7  N   UNL     1       1.356   2.010  -0.000  0.00  0.00    -0.205 N 
ATOM      8  N   UNL     1       2.010   2.247   1.209  0.00  0.00    -0.062 NA
ATOM      9  N   UNL     1       3.215   2.684   1.295  0.00  0.00    -0.127 NA
ATOM     10  N   UNL     1       4.261   3.100  -2.011  0.00  0.00    -0.164 NA
ATOM     11  N   UNL     1       5.333   3.491  -1.417  0.00  0.00    -0.269 N 
ATOM     12  C   UNL     1       6.540   3.942  -2.114  0.00  0.00    +0.172 C 
ENDROOT
BRANCH   7  13
ATOM     13  C   UNL     1      -0.018   1.503   0.010  0.00  0.00    +0.184 C 
BRANCH  13  14
ATOM     14  C   UNL     1       0.002  -0.004   0.002  0.00  0.00    -0.024 A 
ATOM     15  C   UNL     1       0.023  -0.701   1.196  0.00  0.00    +0.007 A 
ATOM     16  C   UNL     1       0.042  -2.083   1.190  0.00  0.00    +0.022 A 
ATOM     17  C   UNL     1       0.039  -2.770  -0.012  0.00  0.00    +0.059 A 
ATOM     18  C   UNL     1       0.018  -2.071  -1.207  0.00  0.00    +0.060 A 
ATOM     19  C   UNL     1      -0.006  -0.688  -1.199  0.00  0.00    +0.027 A 
ATOM     20 CL   UNL     1       0.015  -2.931  -2.715  0.00  0.00    -0.082 Cl
ATOM     21 CL   UNL     1       0.062  -4.505  -0.020  0.00  0.00    -0.082 Cl
ENDBRANCH  13  14
ENDBRANCH   7  13
TORSDOF 2
