REMARK  Name = ZINC64640223
REMARK  4 active torsions:
REMARK  status: ('A' for Active; 'I' for Inactive)
REMARK    1  A    between atoms: C_6  and  C_11
REMARK    2  A    between atoms: C_15  and  N_17
REMARK    3  A    between atoms: C_18  and  C_20
REMARK    4  A    between atoms: C_27  and  C_29
REMARK                            x       y       z     vdW  Elec       q    Type
REMARK                         _______ _______ _______ _____ _____    ______ ____
ROOT
ATOM      1  N   UNL     1       4.104  -7.517   1.095  0.00  0.00    -0.285 N 
ATOM      2  C   UNL     1       4.764  -7.680   2.258  0.00  0.00    +0.222 C 
ATOM      3  O   UNL     1       4.638  -6.864   3.147  0.00  0.00    -0.275 OA
ATOM      4  H   UNL     1       4.148  -8.205   0.412  0.00  0.00    +0.155 HD
ENDROOT
BRANCH   2   5
ATOM      5  C   UNL     1       5.660  -8.876   2.455  0.00  0.00    +0.093 C 
ATOM      6  C   UNL     1       6.769  -8.863   1.402  0.00  0.00    +0.016 C 
ATOM      7  C   UNL     1       7.660 -10.094   1.581  0.00  0.00    +0.020 C 
ATOM      8  C   UNL     1       8.310 -10.053   2.967  0.00  0.00    +0.108 C 
ATOM      9  N   UNL     1       7.254  -9.919   3.980  0.00  0.00    -0.301 N 
ATOM     10  C   UNL     1       6.286  -8.821   3.852  0.00  0.00    +0.120 C 
ATOM     11  C   UNL     1       7.174 -10.788   5.008  0.00  0.00    +0.219 C 
ATOM     12  O   UNL     1       8.034 -11.630   5.157  0.00  0.00    -0.275 OA
BRANCH  11  13
ATOM     13  C   UNL     1       6.017 -10.712   5.970  0.00  0.00    +0.075 C 
ATOM     14  C   UNL     1       6.343  -9.728   7.112  0.00  0.00    +0.013 C 
ATOM     15  C   UNL     1       5.709 -10.379   8.367  0.00  0.00    +0.001 C 
ATOM     16  C   UNL     1       5.980 -11.887   8.143  0.00  0.00    +0.001 C 
ATOM     17  C   UNL     1       5.786 -12.085   6.625  0.00  0.00    +0.013 C 
ENDBRANCH  11  13
ENDBRANCH   2   5
BRANCH   1  22
ATOM     18  C   UNL     1       1.469  -5.260  -0.123  0.00  0.00    -0.020 A 
ATOM     19  C   UNL     1       1.877  -4.059   0.429  0.00  0.00    +0.006 A 
ATOM     20  C   UNL     1       3.022  -4.004   1.201  0.00  0.00    +0.002 A 
ATOM     21  C   UNL     1       3.763  -5.149   1.424  0.00  0.00    +0.023 A 
ATOM     22  C   UNL     1       3.356  -6.356   0.871  0.00  0.00    +0.034 A 
ATOM     23  C   UNL     1       2.202  -6.409   0.100  0.00  0.00    +0.029 A 
BRANCH  18  29
ATOM     24  C   UNL     1      -3.379  -2.414  -0.538  0.00  0.00    +0.001 A 
ATOM     25  C   UNL     1      -2.666  -1.783  -1.567  0.00  0.00    +0.002 A 
ATOM     26  C   UNL     1      -1.505  -2.270  -2.054  0.00  0.00    +0.026 A 
ATOM     27  C   UNL     1      -0.952  -3.471  -1.529  0.00  0.00    +0.043 A 
ATOM     28  N   UNL     1       0.139  -4.133  -1.828  0.00  0.00    -0.374 N 
ATOM     29  C   UNL     1       0.220  -5.316  -0.964  0.00  0.00    +0.133 C 
ATOM     30  C   UNL     1      -1.007  -5.269  -0.081  0.00  0.00    +0.012 C 
ATOM     31  C   UNL     1      -1.687  -4.157  -0.442  0.00  0.00    -0.004 A 
ATOM     32  C   UNL     1      -2.942  -3.560   0.031  0.00  0.00    +0.010 A 
ATOM     33  H   UNL     1       0.784  -3.884  -2.508  0.00  0.00    +0.161 HD
ENDBRANCH  18  29
ENDBRANCH   1  22
TORSDOF 4
