REMARK  Name = ZINC00627739
REMARK  4 active torsions:
REMARK  status: ('A' for Active; 'I' for Inactive)
REMARK    1  A    between atoms: C_1  and  C_2
REMARK    2  A    between atoms: C_5  and  N_8
REMARK    3  A    between atoms: C_12  and  N_13
REMARK    4  A    between atoms: C_19  and  C_21
REMARK                            x       y       z     vdW  Elec       q    Type
REMARK                         _______ _______ _______ _____ _____    ______ ____
ROOT
ATOM      1  N   UNL     1       0.852   2.659   0.702  0.00  0.00    -0.217 N 
ATOM      2  C   UNL     1      -0.287   3.062   1.300  0.00  0.00    +0.263 C 
ATOM      3  O   UNL     1      -0.262   3.615   2.384  0.00  0.00    -0.269 OA
ATOM      4  C   UNL     1      -1.564   2.814   0.607  0.00  0.00    +0.113 C 
ATOM      5  C   UNL     1      -2.771   3.199   1.158  0.00  0.00    +0.088 C 
ATOM      6  C   UNL     1      -1.496   2.143  -0.704  0.00  0.00    +0.256 C 
ATOM      7  O   UNL     1      -2.507   1.909  -1.339  0.00  0.00    -0.270 OA
ATOM      8  N   UNL     1      -0.283   1.792  -1.179  0.00  0.00    -0.263 N 
ATOM      9  C   UNL     1       0.839   2.049  -0.492  0.00  0.00    +0.150 C 
ATOM     10  S   UNL     1       2.335   1.573  -1.175  0.00  0.00    -0.018 S 
ATOM     11  H   UNL     1      -0.221   1.347  -2.038  0.00  0.00    +0.157 HD
ENDROOT
BRANCH   5  12
ATOM     12  N   UNL     1      -3.885   2.481   0.910  0.00  0.00    -0.332 N 
ATOM     13  C   UNL     1      -5.168   3.153   0.659  0.00  0.00    +0.123 C 
ATOM     14  C   UNL     1      -5.717   2.661  -0.691  0.00  0.00    +0.127 C 
ATOM     15  N   UNL     1      -5.671   1.192  -0.709  0.00  0.00    -0.292 N 
ATOM     16  C   UNL     1      -4.390   0.520  -0.452  0.00  0.00    +0.127 C 
ATOM     17  C   UNL     1      -3.840   1.012   0.893  0.00  0.00    +0.123 C 
ATOM     18  C   UNL     1      -6.785   0.475  -0.957  0.00  0.00    +0.282 C 
ATOM     19  O   UNL     1      -7.862   1.034  -1.045  0.00  0.00    -0.267 OA
BRANCH  18  20
ATOM     20  C   UNL     1      -6.698  -0.980  -1.120  0.00  0.00    +0.189 A 
ATOM     21  C   UNL     1      -7.753  -1.837  -1.258  0.00  0.00    +0.054 A 
ATOM     22  C   UNL     1      -7.212  -3.126  -1.385  0.00  0.00    +0.042 A 
ATOM     23  C   UNL     1      -5.868  -3.001  -1.321  0.00  0.00    +0.196 A 
ATOM     24  O   UNL     1      -5.562  -1.706  -1.166  0.00  0.00    -0.458 OA
ENDBRANCH  18  20
ENDBRANCH   5  12
BRANCH   1  29
ATOM     25  C   UNL     1       5.817   3.568   3.296  0.00  0.00    +0.044 C 
ATOM     26  C   UNL     1       4.498   3.327   2.607  0.00  0.00    -0.050 A 
ATOM     27  C   UNL     1       3.843   4.373   1.986  0.00  0.00    +0.005 A 
ATOM     28  C   UNL     1       2.635   4.155   1.353  0.00  0.00    +0.024 A 
ATOM     29  C   UNL     1       2.078   2.883   1.342  0.00  0.00    +0.043 A 
ATOM     30  C   UNL     1       2.736   1.835   1.972  0.00  0.00    +0.024 A 
ATOM     31  C   UNL     1       3.947   2.058   2.598  0.00  0.00    +0.005 A 
ENDBRANCH   1  29
TORSDOF 3
