REMARK  Name = ZINC45625136
REMARK  4 active torsions:
REMARK  status: ('A' for Active; 'I' for Inactive)
REMARK    1  A    between atoms: C_1  and  C_2
REMARK    2  A    between atoms: C_7  and  C_10
REMARK    3  A    between atoms: C_11  and  C_13
REMARK    4  A    between atoms: C_15  and  N_20
REMARK                            x       y       z     vdW  Elec       q    Type
REMARK                         _______ _______ _______ _____ _____    ______ ____
ROOT
ATOM      1  C   UNL     1      -0.022   1.461   0.036  0.00  0.00    +0.039 C 
ATOM      2  C   UNL     1       0.013  -0.068   0.001  0.00  0.00    +0.133 C 
ATOM      3  C   UNL     1       0.734  -0.535  -1.270  0.00  0.00    +0.139 C 
ATOM      4  N   UNL     1       2.152  -0.158  -1.163  0.00  0.00    -0.293 N 
ATOM      5  C   UNL     1       2.876  -0.526   0.064  0.00  0.00    +0.139 C 
ATOM      6  C   UNL     1       2.051  -0.060   1.270  0.00  0.00    +0.133 C 
ATOM      7  O   UNL     1       0.715  -0.556   1.147  0.00  0.00    -0.371 OA
ATOM      8  C   UNL     1       2.679  -0.596   2.557  0.00  0.00    +0.039 C 
ATOM      9  C   UNL     1       2.771   0.504  -2.161  0.00  0.00    +0.248 C 
ATOM     10  O   UNL     1       3.911   0.899  -2.013  0.00  0.00    -0.270 OA
ENDROOT
BRANCH   9  11
ATOM     11  C   UNL     1       2.064   0.750  -3.435  0.00  0.00    +0.053 A 
ATOM     12  C   UNL     1       1.488  -0.313  -4.134  0.00  0.00    +0.047 A 
ATOM     13  C   UNL     1       0.829  -0.077  -5.322  0.00  0.00    +0.127 A 
ATOM     14  C   UNL     1       0.737   1.210  -5.822  0.00  0.00    +0.034 A 
ATOM     15  C   UNL     1       1.304   2.268  -5.136  0.00  0.00    +0.018 A 
ATOM     16  C   UNL     1       1.962   2.047  -3.942  0.00  0.00    +0.030 A 
ATOM     17 BR   UNL     1       2.731   3.496  -3.001  0.00  0.00    -0.050 Br
BRANCH  13  18
ATOM     18  N   UNL     1       0.219  -1.203  -6.064  0.00  0.00    +0.056 N 
ATOM     19  O   UNL     1       0.299  -2.328  -5.629  0.00  0.00    -0.126 OA
ATOM     20  O   UNL     1      -0.359  -0.998  -7.106  0.00  0.00    -0.126 OA
ENDBRANCH  13  18
ENDBRANCH   9  11
TORSDOF 2
