REMARK  Name = ZINC00055101
REMARK  4 active torsions:
REMARK  status: ('A' for Active; 'I' for Inactive)
REMARK    1  A    between atoms: C_1  and  C_2
REMARK    2  A    between atoms: C_5  and  N_14
REMARK    3  A    between atoms: N_14  and  C_15
REMARK    4  A    between atoms: C_21  and  C_23
REMARK                            x       y       z     vdW  Elec       q    Type
REMARK                         _______ _______ _______ _____ _____    ______ ____
ROOT
ATOM      1  C   UNL     1       0.437  -5.408   1.066  0.00  0.00    +0.028 C 
ATOM      2  C   UNL     1       0.846  -4.426  -0.033  0.00  0.00    +0.069 C 
ATOM      3  C   UNL     1       0.863  -2.997   0.526  0.00  0.00    +0.049 C 
ATOM      4  C   UNL     1       1.341  -2.044  -0.569  0.00  0.00    +0.115 C 
ATOM      5  C   UNL     1       0.545  -2.254  -1.830  0.00  0.00    -0.006 A 
ATOM      6  C   UNL     1       0.510  -1.244  -2.776  0.00  0.00    +0.007 A 
ATOM      7  C   UNL     1      -0.209  -1.407  -3.944  0.00  0.00    +0.000 A 
ATOM      8  C   UNL     1      -0.897  -2.584  -4.177  0.00  0.00    +0.002 A 
ATOM      9  C   UNL     1      -0.862  -3.592  -3.247  0.00  0.00    +0.023 A 
ATOM     10  C   UNL     1      -0.143  -3.430  -2.067  0.00  0.00    +0.032 A 
ATOM     11  N   UNL     1      -0.134  -4.468  -1.127  0.00  0.00    -0.341 N 
ATOM     12  H   UNL     1      -0.763  -5.202  -1.198  0.00  0.00    +0.146 HD
ENDROOT
BRANCH   4  13
ATOM     13  N   UNL     1       1.173  -0.661  -0.114  0.00  0.00    -0.264 N 
ATOM     14  C   UNL     1      -0.058  -0.191   0.169  0.00  0.00    +0.217 C 
ATOM     15  O   UNL     1      -1.016  -0.932   0.123  0.00  0.00    -0.276 OA
ATOM     16  C   UNL     1      -0.243   1.258   0.542  0.00  0.00    +0.109 C 
BRANCH  13  17
ATOM     17  C   UNL     1       2.289   0.170   0.025  0.00  0.00    +0.037 A 
ATOM     18  C   UNL     1       3.091   0.075   1.156  0.00  0.00    +0.023 A 
ATOM     19  C   UNL     1       4.194   0.894   1.289  0.00  0.00    +0.002 A 
ATOM     20  C   UNL     1       4.497   1.815   0.303  0.00  0.00    +0.000 A 
ATOM     21  C   UNL     1       3.698   1.916  -0.822  0.00  0.00    +0.002 A 
ATOM     22  C   UNL     1       2.596   1.096  -0.963  0.00  0.00    +0.023 A 
ENDBRANCH  13  17
ENDBRANCH   4  13
TORSDOF 2
