REMARK  Name = ZINC11904724
REMARK  7 active torsions:
REMARK  status: ('A' for Active; 'I' for Inactive)
REMARK    1  A    between atoms: C_1  and  C_2
REMARK    2  A    between atoms: C_4  and  N_21
REMARK    3  A    between atoms: C_6  and  C_20
REMARK    4  A    between atoms: C_7  and  S_8
REMARK    5  A    between atoms: S_8  and  N_11
REMARK    6  A    between atoms: N_11  and  C_12
REMARK    7  A    between atoms: C_12  and  C_13
REMARK                            x       y       z     vdW  Elec       q    Type
REMARK                         _______ _______ _______ _____ _____    ______ ____
ROOT
ATOM      1  C   UNL     1      -1.309  -0.564  -0.712  0.00  0.00    +0.046 C 
ATOM      2  C   UNL     1      -0.005   0.097  -0.344  0.00  0.00    -0.022 A 
ATOM      3  C   UNL     1       0.002   1.400   0.113  0.00  0.00    +0.030 A 
ATOM      4  C   UNL     1       1.204   2.008   0.452  0.00  0.00    +0.060 A 
ATOM      5  C   UNL     1       2.394   1.303   0.330  0.00  0.00    +0.030 A 
ATOM      6  C   UNL     1       2.380   0.001  -0.128  0.00  0.00    -0.022 A 
ATOM      7  C   UNL     1       1.181  -0.602  -0.464  0.00  0.00    +0.111 A 
ATOM      8  C   UNL     1       3.671  -0.765  -0.261  0.00  0.00    +0.046 C 
ENDROOT
BRANCH   4   9
ATOM      9  N   UNL     1       1.215   3.329   0.915  0.00  0.00    -0.144 N 
ATOM     10  C   UNL     1       0.292   4.265   0.651  0.00  0.00    +0.240 C 
ATOM     11  O   UNL     1      -0.684   4.003  -0.020  0.00  0.00    -0.274 OA
ATOM     12  C   UNL     1       0.490   5.642   1.209  0.00  0.00    +0.122 C 
ATOM     13  C   UNL     1       1.512   5.565   2.374  0.00  0.00    +0.198 C 
ATOM     14  S   UNL     1       2.388   4.021   1.889  0.00  0.00    +0.052 S 
ATOM     15  O   UNL     1       2.529   3.147   3.001  0.00  0.00    -0.155 OA
ATOM     16  O   UNL     1       3.483   4.307   1.029  0.00  0.00    -0.155 OA
ENDBRANCH   4   9
BRANCH   7  17
ATOM     17  S   UNL     1       1.167  -2.265  -1.048  0.00  0.00    +0.059 S 
ATOM     18  O   UNL     1      -0.050  -2.434  -1.762  0.00  0.00    -0.153 OA
ATOM     19  O   UNL     1       2.437  -2.498  -1.642  0.00  0.00    -0.153 OA
BRANCH  17  20
ATOM     20  N   UNL     1       1.078  -3.249   0.280  0.00  0.00    -0.186 NA
ATOM     21  H   UNL     1       1.815  -3.843   0.495  0.00  0.00    +0.148 HD
BRANCH  20  22
ATOM     22  C   UNL     1      -0.114  -3.225   1.132  0.00  0.00    +0.141 C 
BRANCH  22  23
ATOM     23  C   UNL     1      -0.116  -4.436   2.029  0.00  0.00    -0.032 A 
ATOM     24  C   UNL     1      -0.727  -5.603   1.612  0.00  0.00    +0.008 A 
ATOM     25  C   UNL     1      -0.725  -6.716   2.431  0.00  0.00    +0.038 A 
ATOM     26  C   UNL     1      -0.120  -6.658   3.675  0.00  0.00    +0.123 A 
ATOM     27  C   UNL     1       0.488  -5.487   4.094  0.00  0.00    +0.038 A 
ATOM     28  C   UNL     1       0.489  -4.377   3.270  0.00  0.00    +0.008 A 
ATOM     29  F   UNL     1      -0.121  -7.744   4.479  0.00  0.00    -0.205 F 
ENDBRANCH  22  23
ENDBRANCH  20  22
ENDBRANCH  17  20
ENDBRANCH   7  17
TORSDOF 5
