REMARK  Name = ZINC41421613
REMARK  4 active torsions:
REMARK  status: ('A' for Active; 'I' for Inactive)
REMARK    1  A    between atoms: C_1  and  C_2
REMARK    2  A    between atoms: C_7  and  C_10
REMARK    3  A    between atoms: C_16  and  C_18
REMARK    4  A    between atoms: C_18  and  C_19
REMARK                            x       y       z     vdW  Elec       q    Type
REMARK                         _______ _______ _______ _____ _____    ______ ____
ROOT
ATOM      1  C   UNL     1      -0.019   1.526   0.010  0.00  0.00    +0.039 C 
ATOM      2  C   UNL     1       0.002  -0.004   0.002  0.00  0.00    +0.133 C 
ATOM      3  C   UNL     1       0.722  -0.499  -1.258  0.00  0.00    +0.139 C 
ATOM      4  N   UNL     1       0.894  -1.957  -1.151  0.00  0.00    -0.296 N 
ATOM      5  C   UNL     1       1.483  -2.495   0.085  0.00  0.00    +0.144 C 
ATOM      6  C   UNL     1       0.726  -1.903   1.280  0.00  0.00    +0.166 C 
ATOM      7  O   UNL     1       0.695  -0.479   1.159  0.00  0.00    -0.366 OA
ATOM      8  C   UNL     1       0.522  -2.775  -2.156  0.00  0.00    +0.220 C 
ATOM      9  O   UNL     1       0.672  -3.974  -2.049  0.00  0.00    -0.275 OA
ENDROOT
BRANCH   6  10
ATOM     10  C   UNL     1       1.425  -2.285   2.558  0.00  0.00    -0.017 A 
ATOM     11  C   UNL     1       2.479  -1.523   3.025  0.00  0.00    +0.006 A 
ATOM     12  C   UNL     1       3.121  -1.874   4.198  0.00  0.00    +0.000 A 
ATOM     13  C   UNL     1       2.708  -2.987   4.905  0.00  0.00    +0.000 A 
ATOM     14  C   UNL     1       1.653  -3.750   4.439  0.00  0.00    +0.000 A 
ATOM     15  C   UNL     1       1.009  -3.396   3.268  0.00  0.00    +0.006 A 
ENDBRANCH   6  10
BRANCH   8  16
ATOM     16  C   UNL     1      -0.080  -2.200  -3.412  0.00  0.00    +0.131 C 
BRANCH  16  17
ATOM     17  C   UNL     1      -0.405  -3.317  -4.370  0.00  0.00    -0.039 A 
ATOM     18  C   UNL     1       0.540  -3.739  -5.286  0.00  0.00    +0.004 A 
ATOM     19  C   UNL     1       0.241  -4.763  -6.165  0.00  0.00    +0.000 A 
ATOM     20  C   UNL     1      -1.002  -5.366  -6.127  0.00  0.00    +0.000 A 
ATOM     21  C   UNL     1      -1.947  -4.944  -5.211  0.00  0.00    +0.000 A 
ATOM     22  C   UNL     1      -1.647  -3.922  -4.329  0.00  0.00    +0.004 A 
ENDBRANCH  16  17
ENDBRANCH   8  16
TORSDOF 3
