REMARK  Name = ZINC38789723
REMARK  8 active torsions:
REMARK  status: ('A' for Active; 'I' for Inactive)
REMARK    1  A    between atoms: C_1  and  C_2
REMARK    2  A    between atoms: C_2  and  C_3
REMARK    3  A    between atoms: C_5  and  S_12
REMARK    4  A    between atoms: C_9  and  C_10
REMARK    5  A    between atoms: S_12  and  C_13
REMARK    6  A    between atoms: C_13  and  C_14
REMARK    7  A    between atoms: N_16  and  C_17
REMARK    8  A    between atoms: C_19  and  C_28
REMARK                            x       y       z     vdW  Elec       q    Type
REMARK                         _______ _______ _______ _____ _____    ______ ____
ROOT
ATOM      1  C   UNL     1       6.365  -0.634   0.300  0.00  0.00    +0.224 C 
ATOM      2  O   UNL     1       7.089  -1.015   1.195  0.00  0.00    -0.275 OA
ATOM      3  N   UNL     1       6.895  -0.254  -0.879  0.00  0.00    -0.301 N 
ATOM      4  H   UNL     1       6.315   0.051  -1.595  0.00  0.00    +0.150 HD
ENDROOT
BRANCH   3   5
ATOM      5  C   UNL     1       8.345  -0.301  -1.081  0.00  0.00    +0.156 C 
ATOM      6  C   UNL     1       8.706  -0.817  -2.494  0.00  0.00    +0.149 C 
ATOM      7  C   UNL     1       8.874   0.317  -3.474  0.00  0.00    -0.041 C 
ATOM      8  C   UNL     1       9.080   1.532  -2.979  0.00  0.00    -0.012 C 
ATOM      9  S   UNL     1       9.065   1.390  -1.206  0.00  0.00    -0.106 S 
ATOM     10  C   UNL     1       9.287   2.802  -3.757  0.00  0.00    +0.042 C 
ATOM     11  C   UNL     1       9.590   2.443  -5.217  0.00  0.00    +0.005 C 
ATOM     12  C   UNL     1       8.559   1.412  -5.688  0.00  0.00    +0.005 C 
ATOM     13  C   UNL     1       8.811   0.081  -4.982  0.00  0.00    +0.033 C 
BRANCH   6  14
ATOM     14  C   UNL     1       9.965  -1.576  -2.421  0.00  0.00    +0.073 C 
ATOM     15  N   UNL     1      10.937  -2.162  -2.365  0.00  0.00    -0.196 NA
ENDBRANCH   6  14
ENDBRANCH   3   5
BRANCH   1  16
ATOM     16  C   UNL     1       4.873  -0.586   0.507  0.00  0.00    +0.173 C 
BRANCH  16  17
ATOM     17  S   UNL     1       4.476  -1.155   2.183  0.00  0.00    -0.078 S 
BRANCH  17  20
ATOM     18  C   UNL     1       0.731  -0.503   1.223  0.00  0.00    +0.066 A 
ATOM     19  N   UNL     1       2.051  -0.608   1.212  0.00  0.00    -0.227 NA
ATOM     20  C   UNL     1       2.720  -1.041   2.267  0.00  0.00    +0.170 A 
ATOM     21  N   UNL     1       2.086  -1.403   3.416  0.00  0.00    -0.301 N 
ATOM     22  C   UNL     1       0.741  -1.323   3.500  0.00  0.00    +0.270 A 
ATOM     23  O   UNL     1       0.160  -1.643   4.522  0.00  0.00    -0.266 OA
ATOM     24  C   UNL     1       0.018  -0.852   2.370  0.00  0.00    +0.137 A 
ATOM     25  H   UNL     1       2.601  -1.718   4.175  0.00  0.00    +0.171 HD
BRANCH  18  27
ATOM     26  C   UNL     1      -0.019   1.526   0.010  0.00  0.00    +0.010 C 
ATOM     27  C   UNL     1       0.002  -0.004   0.002  0.00  0.00    +0.053 C 
ENDBRANCH  18  27
BRANCH  24  28
ATOM     28  C   UNL     1      -1.409  -0.743   2.407  0.00  0.00    +0.106 C 
ATOM     29  N   UNL     1      -2.542  -0.656   2.437  0.00  0.00    -0.191 NA
ENDBRANCH  24  28
ENDBRANCH  17  20
ENDBRANCH  16  17
ENDBRANCH   1  16
TORSDOF 7
