REMARK  Name = ZINC46189686
REMARK  2 active torsions:
REMARK  status: ('A' for Active; 'I' for Inactive)
REMARK    1  A    between atoms: C_4  and  C_7
REMARK    2  A    between atoms: N_9  and  C_10
REMARK                            x       y       z     vdW  Elec       q    Type
REMARK                         _______ _______ _______ _____ _____    ______ ____
ROOT
ATOM      1  C   UNL     1       2.859  -0.454  -2.507  0.00  0.00    +0.216 C 
ATOM      2  O   UNL     1       3.301   0.345  -3.306  0.00  0.00    -0.276 OA
ATOM      3  N   UNL     1       2.998  -1.776  -2.729  0.00  0.00    -0.312 N 
ATOM      4  H   UNL     1       2.644  -2.415  -2.091  0.00  0.00    +0.149 HD
ENDROOT
BRANCH   3   5
ATOM      5  C   UNL     1       3.684  -2.248  -3.935  0.00  0.00    +0.073 C 
ATOM      6  C   UNL     1       2.691  -2.306  -5.097  0.00  0.00    +0.027 C 
ATOM      7  C   UNL     1       3.408  -2.796  -6.357  0.00  0.00    +0.067 C 
ATOM      8  C   UNL     1       3.985  -4.189  -6.104  0.00  0.00    +0.170 C 
ATOM      9  C   UNL     1       4.975  -4.137  -4.939  0.00  0.00    +0.067 C 
ATOM     10  C   UNL     1       4.256  -3.645  -3.682  0.00  0.00    +0.027 C 
ATOM     11  O   UNL     1       2.918  -5.097  -5.784  0.00  0.00    -0.346 OA
ATOM     12  C   UNL     1       2.586  -5.736  -7.040  0.00  0.00    +0.191 C 
ATOM     13  C   UNL     1       3.979  -5.859  -7.708  0.00  0.00    +0.191 C 
ATOM     14  O   UNL     1       4.652  -4.656  -7.283  0.00  0.00    -0.346 OA
ENDBRANCH   3   5
BRANCH   1  18
ATOM     15  C   UNL     1      -0.019   1.526   0.010  0.00  0.00    +0.000 C 
ATOM     16  C   UNL     1       1.417   2.055  -0.000  0.00  0.00    +0.001 C 
ATOM     17  C   UNL     1       2.133   1.562  -1.259  0.00  0.00    +0.013 C 
ATOM     18  C   UNL     1       2.154   0.032  -1.268  0.00  0.00    +0.075 C 
ATOM     19  C   UNL     1       0.718  -0.497  -1.257  0.00  0.00    +0.013 C 
ATOM     20  C   UNL     1       0.002  -0.004   0.002  0.00  0.00    +0.001 C 
ENDBRANCH   1  18
TORSDOF 2
