REMARK  Name = ZINC39950467
REMARK  8 active torsions:
REMARK  status: ('A' for Active; 'I' for Inactive)
REMARK    1  A    between atoms: C_1  and  O_2
REMARK    2  A    between atoms: O_2  and  C_3
REMARK    3  A    between atoms: C_9  and  C_27
REMARK    4  A    between atoms: C_11  and  N_13
REMARK    5  A    between atoms: C_14  and  C_16
REMARK    6  A    between atoms: C_16  and  N_17
REMARK    7  A    between atoms: C_27  and  O_29
REMARK    8  A    between atoms: O_29  and  C_30
REMARK                            x       y       z     vdW  Elec       q    Type
REMARK                         _______ _______ _______ _____ _____    ______ ____
ROOT
ATOM      1  C   UNL     1      -1.899  -5.762  -0.121  0.00  0.00    +0.131 A 
ATOM      2  C   UNL     1      -3.116  -6.298  -0.432  0.00  0.00    +0.046 A 
ATOM      3  C   UNL     1      -4.232  -5.493  -0.642  0.00  0.00    +0.006 A 
ATOM      4  C   UNL     1      -4.186  -4.141  -0.554  0.00  0.00    +0.026 A 
ATOM      5  C   UNL     1      -2.974  -3.482  -0.238  0.00  0.00    +0.048 A 
ATOM      6  N   UNL     1      -2.683  -2.203  -0.099  0.00  0.00    -0.367 N 
ATOM      7  C   UNL     1      -1.261  -2.070   0.235  0.00  0.00    +0.234 C 
ATOM      8  C   UNL     1      -0.710  -3.478   0.282  0.00  0.00    +0.056 C 
ATOM      9  C   UNL     1      -1.775  -4.308  -0.004  0.00  0.00    +0.059 A 
ATOM     10  H   UNL     1      -3.308  -1.469  -0.201  0.00  0.00    +0.161 HD
ENDROOT
BRANCH   8  11
ATOM     11  N   UNL     1       0.572  -3.851   0.555  0.00  0.00    -0.285 N 
ATOM     12  C   UNL     1       1.535  -2.916   0.674  0.00  0.00    +0.234 C 
ATOM     13  O   UNL     1       1.245  -1.739   0.638  0.00  0.00    -0.274 OA
ATOM     14  H   UNL     1       0.792  -4.790   0.663  0.00  0.00    +0.155 HD
BRANCH  12  15
ATOM     15  C   UNL     1       2.973  -3.332   0.850  0.00  0.00    +0.201 C 
BRANCH  15  16
ATOM     16  N   UNL     1       3.817  -2.140   0.955  0.00  0.00    -0.321 N 
ATOM     17  C   UNL     1       4.397  -1.528  -0.248  0.00  0.00    +0.106 C 
ATOM     18  C   UNL     1       5.866  -1.203   0.053  0.00  0.00    +0.024 C 
ATOM     19  C   UNL     1       5.922  -0.170   1.178  0.00  0.00    +0.038 C 
ATOM     20  C   UNL     1       5.088  -0.620   2.348  0.00  0.00    -0.026 A 
ATOM     21  C   UNL     1       4.080  -1.562   2.201  0.00  0.00    +0.033 A 
ATOM     22  C   UNL     1       3.321  -1.948   3.300  0.00  0.00    +0.023 A 
ATOM     23  C   UNL     1       3.567  -1.392   4.540  0.00  0.00    +0.002 A 
ATOM     24  C   UNL     1       4.569  -0.451   4.687  0.00  0.00    +0.000 A 
ATOM     25  C   UNL     1       5.333  -0.071   3.596  0.00  0.00    +0.005 A 
ENDBRANCH  15  16
ENDBRANCH  12  15
ENDBRANCH   8  11
BRANCH   1  27
ATOM     26  C   UNL     1      -1.030  -7.971  -0.054  0.00  0.00    +0.277 C 
ATOM     27  O   UNL     1      -0.824  -6.563   0.080  0.00  0.00    -0.494 OA
ENDBRANCH   1  27
BRANCH   7  28
ATOM     28  C   UNL     1      -1.103  -1.405   1.578  0.00  0.00    +0.335 C 
ATOM     29  O   UNL     1      -1.845  -1.695   2.487  0.00  0.00    -0.248 OA
BRANCH  28  30
ATOM     30  O   UNL     1      -0.139  -0.490   1.765  0.00  0.00    -0.466 OA
ATOM     31  C   UNL     1      -0.047   0.100   3.063  0.00  0.00    +0.280 C 
ENDBRANCH  28  30
ENDBRANCH   7  28
TORSDOF 6
