REMARK  Name = ZINC13811618
REMARK  7 active torsions:
REMARK  status: ('A' for Active; 'I' for Inactive)
REMARK    1  A    between atoms: C_1  and  C_2
REMARK    2  A    between atoms: C_7  and  N_8
REMARK    3  A    between atoms: C_9  and  C_28
REMARK    4  A    between atoms: N_18  and  C_23
REMARK    5  A    between atoms: N_21  and  C_22
REMARK    6  A    between atoms: C_23  and  C_25
REMARK    7  A    between atoms: C_23  and  C_26
REMARK                            x       y       z     vdW  Elec       q    Type
REMARK                         _______ _______ _______ _____ _____    ______ ____
ROOT
ATOM      1  N   UNL     1      -2.429   1.040   0.019  0.00  0.00    -0.282 N 
ATOM      2  C   UNL     1      -3.138   0.636  -1.098  0.00  0.00    +0.040 A 
ATOM      3  C   UNL     1      -4.221  -0.017  -0.688  0.00  0.00    +0.116 A 
ATOM      4  N   UNL     1      -4.224  -0.030   0.696  0.00  0.00    -0.277 N 
ATOM      5  C   UNL     1      -3.119   0.621   1.128  0.00  0.00    +0.223 A 
ATOM      6  N   UNL     1      -3.101   0.621   2.453  0.00  0.00    -0.193 NA
ATOM      7  C   UNL     1      -4.170  -0.017   2.921  0.00  0.00    +0.170 A 
ATOM      8  C   UNL     1      -4.914  -0.449   1.824  0.00  0.00    +0.157 A 
ATOM      9  C   UNL     1      -6.107  -1.158   2.041  0.00  0.00    +0.283 A 
ATOM     10  O   UNL     1      -6.774  -1.545   1.097  0.00  0.00    -0.265 OA
ATOM     11  N   UNL     1      -6.507  -1.406   3.305  0.00  0.00    -0.252 N 
ATOM     12  C   UNL     1      -5.783  -0.986   4.357  0.00  0.00    +0.334 A 
ATOM     13  O   UNL     1      -6.176  -1.229   5.482  0.00  0.00    -0.246 OA
ATOM     14  N   UNL     1      -4.634  -0.303   4.196  0.00  0.00    -0.279 N 
ATOM     15  C   UNL     1      -3.874   0.137   5.369  0.00  0.00    +0.155 C 
ATOM     16  C   UNL     1      -2.748   0.889  -2.532  0.00  0.00    +0.065 C 
ENDROOT
BRANCH   1  23
ATOM     17  C   UNL     1      -2.551   3.884   0.048  0.00  0.00    +0.046 C 
ATOM     18  C   UNL     1      -1.239   3.143   0.031  0.00  0.00    -0.027 A 
ATOM     19  C   UNL     1      -0.049   3.845   0.023  0.00  0.00    +0.005 A 
ATOM     20  C   UNL     1       1.155   3.166   0.008  0.00  0.00    +0.000 A 
ATOM     21  C   UNL     1       1.173   1.783   0.000  0.00  0.00    +0.002 A 
ATOM     22  C   UNL     1      -0.013   1.076   0.008  0.00  0.00    +0.026 A 
ATOM     23  C   UNL     1      -1.224   1.755   0.017  0.00  0.00    +0.053 A 
ENDBRANCH   1  23
BRANCH  11  24
ATOM     24  C   UNL     1      -7.751  -2.145   3.536  0.00  0.00    +0.114 C 
ATOM     25  C   UNL     1      -7.447  -3.424   4.319  0.00  0.00    +0.035 C 
BRANCH  24  26
ATOM     26  C   UNL     1      -8.706  -1.288   4.325  0.00  0.00    -0.010 C 
ATOM     27  C   UNL     1      -9.873  -0.973   3.821  0.00  0.00    +0.006 C 
ENDBRANCH  24  26
ENDBRANCH  11  24
TORSDOF 3
