REMARK  Name = ZINC59335916
REMARK  8 active torsions:
REMARK  status: ('A' for Active; 'I' for Inactive)
REMARK    1  A    between atoms: C_1  and  C_2
REMARK    2  A    between atoms: C_4  and  C_17
REMARK    3  A    between atoms: C_5  and  C_16
REMARK    4  A    between atoms: N_6  and  C_7
REMARK    5  A    between atoms: C_10  and  N_13
REMARK    6  A    between atoms: C_18  and  C_19
REMARK    7  A    between atoms: C_18  and  C_21
REMARK    8  A    between atoms: N_23  and  C_24
REMARK                            x       y       z     vdW  Elec       q    Type
REMARK                         _______ _______ _______ _____ _____    ______ ____
ROOT
ATOM      1  C   UNL     1      -0.114   1.487   0.050  0.00  0.00    +0.064 C 
ATOM      2  C   UNL     1      -0.067  -0.019   0.034  0.00  0.00    +0.022 A 
ATOM      3  C   UNL     1      -0.059  -0.785  -1.069  0.00  0.00    +0.031 A 
ATOM      4  C   UNL     1      -0.009  -2.179  -0.607  0.00  0.00    -0.003 A 
ATOM      5  C   UNL     1       0.009  -2.119   0.777  0.00  0.00    +0.028 A 
ATOM      6  N   UNL     1      -0.020  -0.822   1.140  0.00  0.00    -0.317 N 
ATOM      7  C   UNL     1       0.059  -3.299   1.714  0.00  0.00    +0.064 C 
ENDROOT
BRANCH   6   8
ATOM      8  C   UNL     1      -0.008  -0.360   2.463  0.00  0.00    +0.047 A 
ATOM      9  C   UNL     1       1.107  -0.571   3.263  0.00  0.00    +0.028 A 
ATOM     10  C   UNL     1       1.116  -0.116   4.567  0.00  0.00    +0.035 A 
ATOM     11  C   UNL     1       0.015   0.550   5.076  0.00  0.00    +0.126 A 
ATOM     12  C   UNL     1      -1.096   0.762   4.281  0.00  0.00    +0.035 A 
ATOM     13  C   UNL     1      -1.109   0.314   2.975  0.00  0.00    +0.028 A 
BRANCH  11  14
ATOM     14  N   UNL     1       0.028   1.036   6.474  0.00  0.00    +0.056 N 
ATOM     15  O   UNL     1       0.999   0.852   7.170  0.00  0.00    -0.126 OA
ATOM     16  O   UNL     1      -0.933   1.618   6.920  0.00  0.00    -0.126 OA
ENDBRANCH  11  14
ENDBRANCH   6   8
BRANCH   4  17
ATOM     17  C   UNL     1       0.015  -3.347  -1.412  0.00  0.00    +0.033 C 
ATOM     18  C   UNL     1      -0.672  -3.373  -2.610  0.00  0.00    +0.114 C 
BRANCH  18  19
ATOM     19  C   UNL     1      -0.735  -4.614  -3.393  0.00  0.00    +0.259 C 
ATOM     20  O   UNL     1      -0.181  -5.619  -2.987  0.00  0.00    -0.269 OA
ATOM     21  N   UNL     1      -1.405  -4.641  -4.562  0.00  0.00    -0.280 N 
ATOM     22  H   UNL     1      -1.773  -3.821  -4.929  0.00  0.00    +0.155 HD
BRANCH  21  23
ATOM     23  C   UNL     1      -1.569  -5.849  -5.247  0.00  0.00    +0.054 A 
ATOM     24  C   UNL     1      -1.528  -7.053  -4.555  0.00  0.00    +0.025 A 
ATOM     25  C   UNL     1      -1.691  -8.244  -5.234  0.00  0.00    +0.003 A 
ATOM     26  C   UNL     1      -1.895  -8.242  -6.602  0.00  0.00    +0.021 A 
ATOM     27  C   UNL     1      -1.937  -7.045  -7.296  0.00  0.00    +0.061 A 
ATOM     28  C   UNL     1      -1.780  -5.848  -6.621  0.00  0.00    +0.080 A 
ATOM     29 CL   UNL     1      -1.840  -4.346  -7.490  0.00  0.00    -0.080 Cl
ATOM     30 CL   UNL     1      -2.193  -7.046  -9.013  0.00  0.00    -0.082 Cl
ENDBRANCH  21  23
ENDBRANCH  18  19
BRANCH  18  31
ATOM     31  C   UNL     1      -1.323  -2.191  -3.088  0.00  0.00    +0.104 C 
ATOM     32  N   UNL     1      -1.840  -1.253  -3.468  0.00  0.00    -0.191 NA
ENDBRANCH  18  31
ENDBRANCH   4  17
TORSDOF 6
