REMARK  Name = ZINC00288730
REMARK  3 active torsions:
REMARK  status: ('A' for Active; 'I' for Inactive)
REMARK    1  A    between atoms: C_6  and  N_7
REMARK    2  A    between atoms: C_8  and  C_10
REMARK    3  A    between atoms: C_15  and  N_16
REMARK                            x       y       z     vdW  Elec       q    Type
REMARK                         _______ _______ _______ _____ _____    ______ ____
ROOT
ATOM      1  N   UNL     1      -3.247   0.713   0.389  0.00  0.00    -0.281 N 
ATOM      2  C   UNL     1      -2.793   1.981   0.423  0.00  0.00    +0.250 C 
ATOM      3  O   UNL     1      -3.574   2.903   0.554  0.00  0.00    -0.270 OA
ATOM      4  H   UNL     1      -2.620  -0.026   0.361  0.00  0.00    +0.155 HD
ENDROOT
BRANCH   1  10
ATOM      5  C   UNL     1      -5.122  -0.673   1.018  0.00  0.00    +0.025 A 
ATOM      6  C   UNL     1      -6.482  -0.915   1.024  0.00  0.00    +0.022 A 
ATOM      7  C   UNL     1      -7.346  -0.034   0.400  0.00  0.00    +0.041 A 
ATOM      8  C   UNL     1      -6.851   1.096  -0.229  0.00  0.00    +0.022 A 
ATOM      9  C   UNL     1      -5.493   1.346  -0.234  0.00  0.00    +0.025 A 
ATOM     10  C   UNL     1      -4.623   0.462   0.393  0.00  0.00    +0.034 A 
ATOM     11 CL   UNL     1      -9.054  -0.344   0.404  0.00  0.00    -0.084 Cl
ENDBRANCH   1  10
BRANCH   2  12
ATOM     12  C   UNL     1      -1.345   2.251   0.303  0.00  0.00    +0.067 A 
ATOM     13  C   UNL     1      -0.460   1.210   0.015  0.00  0.00    +0.017 A 
ATOM     14  C   UNL     1       0.890   1.469  -0.101  0.00  0.00    +0.021 A 
ATOM     15  C   UNL     1       1.368   2.758   0.070  0.00  0.00    +0.043 A 
ATOM     16  C   UNL     1       0.495   3.793   0.360  0.00  0.00    +0.053 A 
ATOM     17  C   UNL     1      -0.857   3.547   0.480  0.00  0.00    +0.140 A 
ATOM     18 CL   UNL     1       3.068   3.076  -0.078  0.00  0.00    -0.083 Cl
BRANCH  17  19
ATOM     19  N   UNL     1      -1.788   4.655   0.790  0.00  0.00    +0.057 N 
ATOM     20  O   UNL     1      -1.751   5.682   0.137  0.00  0.00    -0.126 OA
ATOM     21  O   UNL     1      -2.591   4.539   1.698  0.00  0.00    -0.126 OA
ENDBRANCH  17  19
ENDBRANCH   2  12
TORSDOF 3
