REMARK  Name = ZINC20205488
REMARK  6 active torsions:
REMARK  status: ('A' for Active; 'I' for Inactive)
REMARK    1  A    between atoms: C_1  and  S_2
REMARK    2  A    between atoms: S_2  and  C_3
REMARK    3  A    between atoms: C_11  and  C_12
REMARK    4  A    between atoms: C_15  and  O_18
REMARK    5  A    between atoms: O_18  and  S_19
REMARK    6  A    between atoms: S_19  and  C_22
REMARK                            x       y       z     vdW  Elec       q    Type
REMARK                         _______ _______ _______ _____ _____    ______ ____
ROOT
ATOM      1  C   UNL     1       1.308  -0.542  -1.539  0.00  0.00    +0.175 C 
ATOM      2  N   UNL     1       1.993   0.284  -2.283  0.00  0.00    -0.185 NA
ATOM      3  S   UNL     1       2.835  -0.711  -3.336  0.00  0.00    +0.048 S 
ATOM      4  C   UNL     1       2.255  -2.192  -2.839  0.00  0.00    +0.183 C 
ATOM      5  N   UNL     1       2.491  -3.397  -3.310  0.00  0.00    -0.152 NA
ATOM      6  C   UNL     1       1.849  -4.454  -2.780  0.00  0.00    +0.273 C 
ATOM      7  O   UNL     1       2.146  -5.592  -3.106  0.00  0.00    -0.268 OA
ATOM      8  C   UNL     1       0.772  -4.202  -1.790  0.00  0.00    +0.079 C 
ATOM      9  C   UNL     1      -0.251  -5.100  -1.586  0.00  0.00    +0.024 C 
ATOM     10  C   UNL     1       0.861  -2.923  -1.029  0.00  0.00    +0.137 C 
ATOM     11  N   UNL     1       0.447  -2.789   0.201  0.00  0.00    -0.284 NA
ATOM     12  N   UNL     1       1.442  -1.873  -1.769  0.00  0.00    -0.211 N 
ATOM     13  H   UNL     1       0.058  -3.545   0.667  0.00  0.00    +0.188 HD
ENDROOT
BRANCH   9  14
ATOM     14  C   UNL     1      -0.409  -6.247  -2.483  0.00  0.00    -0.024 A 
ATOM     15  C   UNL     1      -0.852  -7.479  -1.980  0.00  0.00    +0.011 A 
ATOM     16  C   UNL     1      -0.998  -8.548  -2.824  0.00  0.00    +0.049 A 
ATOM     17  C   UNL     1      -0.708  -8.414  -4.178  0.00  0.00    +0.156 A 
ATOM     18  C   UNL     1      -0.268  -7.195  -4.684  0.00  0.00    +0.049 A 
ATOM     19  C   UNL     1      -0.123  -6.117  -3.850  0.00  0.00    +0.011 A 
BRANCH  17  20
ATOM     20  O   UNL     1      -0.854  -9.477  -5.009  0.00  0.00    -0.346 OA
BRANCH  20  21
ATOM     21  S   UNL     1      -2.238  -9.589  -5.633  0.00  0.00    +0.118 S 
ATOM     22  O   UNL     1      -2.260 -10.875  -6.237  0.00  0.00    -0.137 OA
ATOM     23  O   UNL     1      -3.137  -9.267  -4.582  0.00  0.00    -0.137 OA
ATOM     24  C   UNL     1      -2.279  -8.299  -6.908  0.00  0.00    +0.242 C 
ENDBRANCH  20  21
ENDBRANCH  17  20
ENDBRANCH   9  14
BRANCH   1  26
ATOM     25  C   UNL     1       0.414   1.858  -0.364  0.00  0.00    +0.093 C 
ATOM     26  S   UNL     1       0.245   0.055  -0.267  0.00  0.00    -0.093 S 
ENDBRANCH   1  26
TORSDOF 4
