REMARK  Name = ZINC63072962
REMARK  5 active torsions:
REMARK  status: ('A' for Active; 'I' for Inactive)
REMARK    1  A    between atoms: C_1  and  C_2
REMARK    2  A    between atoms: C_5  and  O_17
REMARK    3  A    between atoms: C_6  and  C_8
REMARK    4  A    between atoms: C_14  and  C_15
REMARK    5  A    between atoms: C_14  and  C_16
REMARK                            x       y       z     vdW  Elec       q    Type
REMARK                         _______ _______ _______ _____ _____    ______ ____
ROOT
ATOM      1  C   UNL     1       1.662   0.981  -0.311  0.00  0.00    +0.044 C 
ATOM      2  C   UNL     1       0.814  -0.255  -0.152  0.00  0.00    -0.050 A 
ATOM      3  C   UNL     1       0.024  -0.688  -1.204  0.00  0.00    +0.007 A 
ATOM      4  C   UNL     1      -0.757  -1.819  -1.071  0.00  0.00    +0.046 A 
ATOM      5  C   UNL     1      -0.755  -2.529   0.120  0.00  0.00    +0.129 A 
ATOM      6  C   UNL     1       0.043  -2.094   1.187  0.00  0.00    +0.078 A 
ATOM      7  C   UNL     1       0.832  -0.951   1.037  0.00  0.00    +0.020 A 
ENDROOT
BRANCH   6   8
ATOM      8  C   UNL     1       0.053  -2.841   2.459  0.00  0.00    +0.251 C 
ATOM      9  O   UNL     1      -0.027  -4.054   2.452  0.00  0.00    -0.270 OA
ATOM     10  N   UNL     1       0.152  -2.178   3.628  0.00  0.00    -0.292 N 
ATOM     11  C   UNL     1       0.140  -0.713   3.790  0.00  0.00    +0.109 C 
ATOM     12  C   UNL     1      -0.343  -0.478   5.243  0.00  0.00    +0.021 C 
ATOM     13  C   UNL     1       0.338  -1.655   5.991  0.00  0.00    +0.027 C 
ATOM     14  C   UNL     1       0.284  -2.798   4.955  0.00  0.00    +0.032 C 
ATOM     15  C   UNL     1      -0.923  -3.697   5.232  0.00  0.00    +0.031 C 
ATOM     16  C   UNL     1       1.574  -3.618   5.021  0.00  0.00    +0.031 C 
ENDBRANCH   6   8
BRANCH   5  17
ATOM     17  O   UNL     1      -1.522  -3.640   0.253  0.00  0.00    -0.506 OA
ATOM     18  H   UNL     1      -1.078  -4.458  -0.006  0.00  0.00    +0.292 HD
ENDBRANCH   5  17
TORSDOF 2
