REMARK  Name = ZINC39606920
REMARK  6 active torsions:
REMARK  status: ('A' for Active; 'I' for Inactive)
REMARK    1  A    between atoms: C_1  and  C_2
REMARK    2  A    between atoms: C_9  and  C_14
REMARK    3  A    between atoms: C_14  and  O_16
REMARK    4  A    between atoms: O_16  and  C_17
REMARK    5  A    between atoms: C_17  and  C_19
REMARK    6  A    between atoms: C_17  and  C_20
REMARK                            x       y       z     vdW  Elec       q    Type
REMARK                         _______ _______ _______ _____ _____    ______ ____
ROOT
ATOM      1  C   UNL     1      -0.019   1.526   0.010  0.00  0.00    +0.029 C 
ATOM      2  C   UNL     1       0.002  -0.004   0.002  0.00  0.00    +0.134 C 
ATOM      3  C   UNL     1      -1.408  -0.527   0.019  0.00  0.00    +0.230 C 
ATOM      4  O   UNL     1      -2.287   0.178  -0.429  0.00  0.00    -0.274 OA
ATOM      5  N   UNL     1      -1.745  -1.722   0.500  0.00  0.00    -0.284 N 
ATOM      6  C   UNL     1      -0.877  -2.667   1.042  0.00  0.00    +0.048 A 
ATOM      7  C   UNL     1      -1.262  -3.997   1.083  0.00  0.00    +0.039 A 
ATOM      8  C   UNL     1      -0.406  -4.958   1.628  0.00  0.00    +0.061 A 
ATOM      9  C   UNL     1       0.843  -4.580   2.133  0.00  0.00    +0.016 A 
ATOM     10  C   UNL     1       1.227  -3.258   2.090  0.00  0.00    +0.017 A 
ATOM     11  C   UNL     1       0.377  -2.304   1.547  0.00  0.00    +0.030 A 
ATOM     12  S   UNL     1       0.874  -0.610   1.478  0.00  0.00    -0.111 S 
ATOM     13  H   UNL     1      -2.685  -1.956   0.469  0.00  0.00    +0.155 HD
ENDROOT
BRANCH   8  14
ATOM     14  C   UNL     1      -0.819  -6.371   1.671  0.00  0.00    +0.340 C 
ATOM     15  O   UNL     1      -1.904  -6.700   1.233  0.00  0.00    -0.245 OA
BRANCH  14  16
ATOM     16  O   UNL     1       0.005  -7.299   2.196  0.00  0.00    -0.443 OA
BRANCH  16  17
ATOM     17  C   UNL     1      -0.460  -8.650   2.204  0.00  0.00    +0.275 C 
ATOM     18  C   UNL     1      -1.216  -8.921   3.507  0.00  0.00    +0.068 C 
BRANCH  17  19
ATOM     19  C   UNL     1       0.688  -9.566   2.104  0.00  0.00    +0.107 C 
ATOM     20  N   UNL     1       1.574 -10.272   2.026  0.00  0.00    -0.193 NA
ENDBRANCH  17  19
ENDBRANCH  16  17
ENDBRANCH  14  16
ENDBRANCH   8  14
TORSDOF 4
