REMARK  Name = ZINC22883420
REMARK  9 active torsions:
REMARK  status: ('A' for Active; 'I' for Inactive)
REMARK    1  A    between atoms: C_1  and  C_2
REMARK    2  A    between atoms: C_4  and  C_31
REMARK    3  A    between atoms: C_6  and  C_27
REMARK    4  A    between atoms: C_10  and  C_11
REMARK    5  A    between atoms: N_13  and  C_14
REMARK    6  A    between atoms: C_17  and  N_20
REMARK    7  A    between atoms: C_27  and  C_28
REMARK    8  A    between atoms: C_27  and  C_29
REMARK    9  A    between atoms: C_27  and  C_30
REMARK                            x       y       z     vdW  Elec       q    Type
REMARK                         _______ _______ _______ _____ _____    ______ ____
ROOT
ATOM      1  C   UNL     1       4.775   4.540  -0.622  0.00  0.00    +0.255 C 
ATOM      2  O   UNL     1       5.917   4.158  -0.797  0.00  0.00    -0.269 OA
ATOM      3  N   UNL     1       4.512   5.858  -0.528  0.00  0.00    -0.281 N 
ATOM      4  H   UNL     1       3.472   6.208  -0.459  0.00  0.00    +0.155 HD
ENDROOT
BRANCH   1  14
ATOM      5  C   UNL     1       5.102   1.524  -0.546  0.00  0.00    +0.046 C 
ATOM      6  C   UNL     1       3.760   2.206  -0.474  0.00  0.00    -0.020 A 
ATOM      7  C   UNL     1       2.587   1.442  -0.366  0.00  0.00    +0.032 A 
ATOM      8  C   UNL     1       2.435   0.034  -0.308  0.00  0.00    +0.050 A 
ATOM      9  N   UNL     1       1.229  -0.480  -0.205  0.00  0.00    -0.236 NA
ATOM     10  C   UNL     1       0.141   0.270  -0.153  0.00  0.00    +0.136 A 
ATOM     11  N   UNL     1       0.211   1.586  -0.202  0.00  0.00    -0.224 NA
ATOM     12  C   UNL     1       1.378   2.183  -0.305  0.00  0.00    +0.113 A 
ATOM     13  S   UNL     1       1.927   3.868  -0.400  0.00  0.00    -0.064 S 
ATOM     14  C   UNL     1       3.682   3.563  -0.513  0.00  0.00    +0.080 A 
ATOM     15  C   UNL     1       3.643  -0.865  -0.363  0.00  0.00    +0.066 C 
BRANCH  10  16
ATOM     16  C   UNL     1      -1.207  -0.393  -0.036  0.00  0.00    +0.022 C 
ATOM     17  C   UNL     1      -2.300   0.676   0.005  0.00  0.00    +0.019 C 
ATOM     18  C   UNL     1      -1.433  -1.307  -1.243  0.00  0.00    +0.019 C 
ATOM     19  C   UNL     1      -1.257  -1.224   1.248  0.00  0.00    +0.019 C 
ENDBRANCH  10  16
ENDBRANCH   1  14
BRANCH   3  20
ATOM     20  C   UNL     1       5.564   6.783  -0.520  0.00  0.00    +0.034 A 
ATOM     21  C   UNL     1       5.472   7.933   0.254  0.00  0.00    +0.025 A 
ATOM     22  C   UNL     1       6.511   8.841   0.267  0.00  0.00    +0.026 A 
ATOM     23  C   UNL     1       7.644   8.611  -0.502  0.00  0.00    +0.051 A 
ATOM     24  C   UNL     1       7.734   7.464  -1.280  0.00  0.00    +0.026 A 
ATOM     25  C   UNL     1       6.697   6.553  -1.289  0.00  0.00    +0.025 A 
BRANCH  23  26
ATOM     26  N   UNL     1       8.696   9.534  -0.492  0.00  0.00    -0.207 N 
ATOM     27  C   UNL     1      10.115   9.267  -0.785  0.00  0.00    +0.133 C 
ATOM     28  C   UNL     1      10.795  10.519  -1.376  0.00  0.00    +0.045 C 
ATOM     29  C   UNL     1      10.333  11.695  -0.465  0.00  0.00    +0.190 C 
ATOM     30  S   UNL     1       8.600  11.170  -0.139  0.00  0.00    +0.046 S 
ATOM     31  O   UNL     1       7.718  11.717  -1.109  0.00  0.00    -0.155 OA
ATOM     32  O   UNL     1       8.305  11.242   1.249  0.00  0.00    -0.155 OA
ENDBRANCH  23  26
ENDBRANCH   3  20
TORSDOF 4
