REMARK  Name = ZINC24305937
REMARK  10 active torsions:
REMARK  status: ('A' for Active; 'I' for Inactive)
REMARK    1  A    between atoms: C_1  and  C_2
REMARK    2  A    between atoms: C_2  and  C_3
REMARK    3  A    between atoms: C_2  and  C_4
REMARK    4  A    between atoms: C_2  and  C_5
REMARK    5  A    between atoms: C_12  and  C_14
REMARK    6  A    between atoms: N_16  and  N_17
REMARK    7  A    between atoms: C_18  and  C_20
REMARK    8  A    between atoms: C_20  and  C_21
REMARK    9  A    between atoms: C_21  and  C_22
REMARK   10  A    between atoms: C_22  and  N_23
REMARK                            x       y       z     vdW  Elec       q    Type
REMARK                         _______ _______ _______ _____ _____    ______ ____
ROOT
ATOM      1  N   UNL     1       7.563  -1.164  -6.297  0.00  0.00    -0.234 N 
ATOM      2  C   UNL     1       7.801  -1.509  -7.577  0.00  0.00    +0.229 C 
ATOM      3  O   UNL     1       6.875  -1.749  -8.323  0.00  0.00    -0.274 OA
ATOM      4  H   UNL     1       8.303  -0.971  -5.700  0.00  0.00    +0.173 HD
ENDROOT
BRANCH   1   7
ATOM      5  C   UNL     1       6.007  -0.737  -4.546  0.00  0.00    +0.267 C 
ATOM      6  O   UNL     1       6.936  -0.495  -3.798  0.00  0.00    -0.268 OA
ATOM      7  N   UNL     1       6.246  -1.082  -5.827  0.00  0.00    -0.230 N 
ATOM      8  H   UNL     1       5.505  -1.274  -6.423  0.00  0.00    +0.173 HD
BRANCH   5  15
ATOM      9  C   UNL     1       0.718  -0.497  -1.257  0.00  0.00    -0.001 C 
ATOM     10  C   UNL     1      -0.026   0.007  -2.496  0.00  0.00    +0.009 C 
ATOM     11  C   UNL     1       0.533  -0.709  -3.733  0.00  0.00    +0.043 C 
ATOM     12  C   UNL     1       2.031  -0.643  -3.684  0.00  0.00    -0.006 A 
ATOM     13  C   UNL     1       2.798  -0.317  -2.603  0.00  0.00    -0.036 A 
ATOM     14  C   UNL     1       4.173  -0.320  -2.792  0.00  0.00    +0.024 A 
ATOM     15  C   UNL     1       4.629  -0.652  -4.054  0.00  0.00    +0.076 A 
ATOM     16  S   UNL     1       3.103  -0.949  -4.927  0.00  0.00    -0.088 S 
ATOM     17  C   UNL     1       2.154   0.029  -1.264  0.00  0.00    +0.040 C 
BRANCH   9  19
ATOM     18  C   UNL     1      -0.019   1.526   0.010  0.00  0.00    +0.011 C 
ATOM     19  C   UNL     1       0.002  -0.004   0.002  0.00  0.00    -0.035 C 
ATOM     20  C   UNL     1       0.742  -0.511   1.242  0.00  0.00    +0.011 C 
ATOM     21  C   UNL     1      -1.433  -0.534   0.013  0.00  0.00    +0.011 C 
ENDBRANCH   9  19
ENDBRANCH   5  15
ENDBRANCH   1   7
BRANCH   2  22
ATOM     22  C   UNL     1       9.218  -1.597  -8.083  0.00  0.00    +0.099 C 
BRANCH  22  23
ATOM     23  C   UNL     1       9.209  -2.005  -9.557  0.00  0.00    +0.029 C 
BRANCH  23  24
ATOM     24  C   UNL     1      10.648  -2.093 -10.071  0.00  0.00    +0.118 C 
BRANCH  24  25
ATOM     25  N   UNL     1      10.639  -2.484 -11.483  0.00  0.00    -0.224 N 
ATOM     26  C   UNL     1      10.669  -3.763 -11.917  0.00  0.00    +0.246 C 
ATOM     27  O   UNL     1      10.707  -4.768 -11.241  0.00  0.00    -0.273 OA
ATOM     28  C   UNL     1      10.645  -3.672 -13.421  0.00  0.00    +0.113 C 
ATOM     29  C   UNL     1       9.416  -4.388 -13.997  0.00  0.00    +0.035 C 
ATOM     30  C   UNL     1       9.926  -4.996 -15.329  0.00  0.00    +0.003 C 
ATOM     31  C   UNL     1      11.370  -5.435 -14.977  0.00  0.00    +0.003 C 
ATOM     32  C   UNL     1      11.886  -4.324 -14.037  0.00  0.00    +0.035 C 
ATOM     33  N   UNL     1      10.601  -2.236 -13.702  0.00  0.00    -0.285 N 
ATOM     34  C   UNL     1      10.595  -1.618 -12.503  0.00  0.00    +0.309 C 
ATOM     35  O   UNL     1      10.557  -0.411 -12.365  0.00  0.00    -0.252 OA
ATOM     36  H   UNL     1      10.577  -1.814 -14.575  0.00  0.00    +0.151 HD
ENDBRANCH  24  25
ENDBRANCH  23  24
ENDBRANCH  22  23
ENDBRANCH   2  22
TORSDOF 7
