REMARK  Name = ZINC02493339
REMARK  7 active torsions:
REMARK  status: ('A' for Active; 'I' for Inactive)
REMARK    1  A    between atoms: C_1  and  C_2
REMARK    2  A    between atoms: C_5  and  S_22
REMARK    3  A    between atoms: C_7  and  C_8
REMARK    4  A    between atoms: C_14  and  C_21
REMARK    5  A    between atoms: S_22  and  N_25
REMARK    6  A    between atoms: N_25  and  C_26
REMARK    7  A    between atoms: C_26  and  C_27
REMARK                            x       y       z     vdW  Elec       q    Type
REMARK                         _______ _______ _______ _____ _____    ______ ____
ROOT
ATOM      1  C   UNL     1      -6.612  -1.270   0.028  0.00  0.00    +0.044 C 
ATOM      2  C   UNL     1      -7.073   0.165   0.038  0.00  0.00    -0.040 A 
ATOM      3  C   UNL     1      -8.421   0.457   0.047  0.00  0.00    +0.006 A 
ATOM      4  C   UNL     1      -8.846   1.774   0.057  0.00  0.00    +0.029 A 
ATOM      5  C   UNL     1      -7.924   2.805   0.057  0.00  0.00    +0.106 A 
ATOM      6  C   UNL     1      -6.573   2.526   0.054  0.00  0.00    +0.040 A 
ATOM      7  C   UNL     1      -6.137   1.200   0.039  0.00  0.00    +0.026 A 
ENDROOT
BRANCH   7   8
ATOM      8  C   UNL     1      -4.691   0.894   0.030  0.00  0.00    +0.186 A 
ATOM      9  N   UNL     1      -4.147  -0.306   0.021  0.00  0.00    -0.127 NA
ATOM     10  N   UNL     1      -2.864  -0.208   0.015  0.00  0.00    -0.127 NA
ATOM     11  C   UNL     1      -2.514   1.062   0.020  0.00  0.00    +0.186 A 
ATOM     12  N   UNL     1      -3.669   1.804   0.030  0.00  0.00    -0.192 N 
ATOM     13  N   UNL     1      -3.635   3.197   0.038  0.00  0.00    -0.168 NA
ATOM     14  C   UNL     1      -2.523   3.870   0.046  0.00  0.00    +0.067 A 
ATOM     15  C   UNL     1      -1.236   3.175   0.031  0.00  0.00    +0.008 A 
ATOM     16  C   UNL     1      -1.227   1.761   0.017  0.00  0.00    +0.030 A 
ATOM     17  C   UNL     1      -0.013   1.076   0.008  0.00  0.00    +0.012 A 
ATOM     18  C   UNL     1       1.168   1.785   0.001  0.00  0.00    +0.001 A 
ATOM     19  C   UNL     1       1.161   3.174   0.008  0.00  0.00    +0.001 A 
ATOM     20  C   UNL     1      -0.026   3.872   0.023  0.00  0.00    +0.010 A 
ATOM     21  C   UNL     1      -2.560   5.377   0.054  0.00  0.00    +0.068 C 
ENDBRANCH   7   8
BRANCH   5  22
ATOM     22  S   UNL     1      -8.476   4.479   0.070  0.00  0.00    +0.059 S 
ATOM     23  O   UNL     1      -7.423   5.258  -0.483  0.00  0.00    -0.153 OA
ATOM     24  O   UNL     1      -9.789   4.477  -0.474  0.00  0.00    -0.153 OA
BRANCH  22  25
ATOM     25  N   UNL     1      -8.620   4.935   1.655  0.00  0.00    -0.186 NA
ATOM     26  H   UNL     1      -9.492   5.152   2.019  0.00  0.00    +0.148 HD
BRANCH  25  27
ATOM     27  C   UNL     1      -7.431   5.010   2.507  0.00  0.00    +0.141 C 
BRANCH  27  28
ATOM     28  C   UNL     1      -7.757   5.783   3.759  0.00  0.00    -0.032 A 
ATOM     29  C   UNL     1      -7.577   7.153   3.791  0.00  0.00    +0.005 A 
ATOM     30  C   UNL     1      -7.881   7.863   4.938  0.00  0.00    +0.000 A 
ATOM     31  C   UNL     1      -8.356   7.202   6.055  0.00  0.00    +0.000 A 
ATOM     32  C   UNL     1      -8.531   5.831   6.024  0.00  0.00    +0.000 A 
ATOM     33  C   UNL     1      -8.232   5.122   4.876  0.00  0.00    +0.005 A 
ENDBRANCH  27  28
ENDBRANCH  25  27
ENDBRANCH  22  25
ENDBRANCH   5  22
TORSDOF 5
