REMARK  Name = ZINC06863671
REMARK  5 active torsions:
REMARK  status: ('A' for Active; 'I' for Inactive)
REMARK    1  A    between atoms: C_4  and  O_25
REMARK    2  A    between atoms: C_5  and  C_7
REMARK    3  A    between atoms: C_8  and  C_9
REMARK    4  A    between atoms: C_11  and  C_21
REMARK    5  A    between atoms: C_16  and  C_19
REMARK                            x       y       z     vdW  Elec       q    Type
REMARK                         _______ _______ _______ _____ _____    ______ ____
ROOT
ATOM      1  C   UNK     1       0.602   3.460  -0.359  0.00  0.00    +0.087 A 
ATOM      2  C   UNK     1      -0.794   3.265  -0.457  0.00  0.00    +0.062 A 
ATOM      3  C   UNK     1      -1.086   2.071   0.101  0.00  0.00    +0.150 A 
ATOM      4  N   UNK     1       0.076   1.523   0.549  0.00  0.00    -0.203 N 
ATOM      5  N   UNK     1       1.119   2.409   0.248  0.00  0.00    -0.165 NA
ATOM      6  C   UNK     1       0.206   0.295   1.191  0.00  0.00    +0.195 A 
ATOM      7  N   UNK     1      -0.508  -0.206   2.178  0.00  0.00    -0.214 NA
ATOM      8  C   UNK     1      -0.222  -1.418   2.655  0.00  0.00    +0.161 A 
ATOM      9  C   UNK     1       0.826  -2.116   2.111  0.00  0.00    +0.084 A 
ATOM     10  S   UNK     1       1.389  -1.009   0.897  0.00  0.00    -0.055 S 
ENDROOT
BRANCH   3  11
ATOM     11  C   UNK     1      -2.457   1.455   0.210  0.00  0.00    +0.434 C 
ATOM     12  F   UNK     1      -2.829   1.382   1.556  0.00  0.00    -0.164 F 
ATOM     13  F   UNK     1      -3.379   2.243  -0.487  0.00  0.00    -0.164 F 
ATOM     14  F   UNK     1      -2.435   0.168  -0.339  0.00  0.00    -0.164 F 
ENDBRANCH   3  11
BRANCH   8  15
ATOM     15  C   UNK     1      -1.014  -1.995   3.752  0.00  0.00    +0.405 C 
ATOM     16  O   UNK     1      -0.741  -3.098   4.184  0.00  0.00    -0.239 OA
ATOM     17  O   UNK     1      -2.041  -1.299   4.280  0.00  0.00    -0.239 OA
ENDBRANCH   8  15
BRANCH   1  19
ATOM     18  C   UNK     1       2.681   4.693  -0.691  0.00  0.00    +0.013 C 
ATOM     19  C   UNK     1       1.349   4.632  -0.849  0.00  0.00    +0.030 C 
BRANCH  18  24
ATOM     20  C   UNK     1       3.460   8.008  -2.264  0.00  0.00    +0.001 A 
ATOM     21  C   UNK     1       4.833   8.071  -2.101  0.00  0.00    +0.004 A 
ATOM     22  C   UNK     1       5.511   7.038  -1.480  0.00  0.00    +0.046 A 
ATOM     23  C   UNK     1       4.818   5.934  -1.013  0.00  0.00    +0.124 A 
ATOM     24  C   UNK     1       3.428   5.864  -1.180  0.00  0.00    +0.016 A 
ATOM     25  C   UNK     1       2.755   6.914  -1.809  0.00  0.00    +0.011 A 
BRANCH  23  26
ATOM     26  O   UNK     1       5.483   4.922  -0.398  0.00  0.00    -0.506 OA
ATOM     27  H   UNK     1       5.790   4.230  -1.000  0.00  0.00    +0.292 HD
ENDBRANCH  23  26
ENDBRANCH  18  24
ENDBRANCH   1  19
TORSDOF 5
