REMARK  Name = ZINC06059537
REMARK  4 active torsions:
REMARK  status: ('A' for Active; 'I' for Inactive)
REMARK    1  A    between atoms: C_4  and  C_23
REMARK    2  A    between atoms: C_5  and  C_7
REMARK    3  A    between atoms: N_8  and  N_9
REMARK    4  A    between atoms: C_10  and  C_16
REMARK                            x       y       z     vdW  Elec       q    Type
REMARK                         _______ _______ _______ _____ _____    ______ ____
ROOT
ATOM      1  N   UNL     1       2.850   5.008   0.410  0.00  0.00    -0.188 N 
ATOM      2  C   UNL     1       2.858   5.805   1.540  0.00  0.00    +0.185 A 
ATOM      3  N   UNL     1       2.755   7.051   1.169  0.00  0.00    -0.151 NA
ATOM      4  N   UNL     1       2.668   7.081  -0.230  0.00  0.00    -0.253 N 
ATOM      5  H   UNL     1       2.580   7.874  -0.781  0.00  0.00    +0.191 HD
ATOM      6  C   UNL     1       2.730   5.808  -0.669  0.00  0.00    +0.197 A 
ATOM      7  S   UNL     1       2.666   5.298  -2.302  0.00  0.00    -0.010 S 
ENDROOT
BRANCH   2   8
ATOM      8  C   UNL     1       2.969   5.325   2.935  0.00  0.00    +0.035 A 
ATOM      9  C   UNL     1       2.190   4.252   3.371  0.00  0.00    +0.013 A 
ATOM     10  C   UNL     1       2.298   3.809   4.673  0.00  0.00    +0.001 A 
ATOM     11  C   UNL     1       3.176   4.426   5.546  0.00  0.00    +0.001 A 
ATOM     12  C   UNL     1       3.951   5.490   5.122  0.00  0.00    +0.016 A 
ATOM     13  C   UNL     1       3.856   5.940   3.820  0.00  0.00    +0.029 A 
ATOM     14 BR   UNL     1       4.922   7.390   3.238  0.00  0.00    -0.050 Br
ENDBRANCH   2   8
BRANCH   1  16
ATOM     15  C   UNL     1       4.100   3.041   0.217  0.00  0.00    +0.142 C 
ATOM     16  N   UNL     1       2.945   3.611   0.390  0.00  0.00    -0.171 NA
BRANCH  15  21
ATOM     17  C   UNL     1       3.108  -0.562  -0.117  0.00  0.00    +0.001 A 
ATOM     18  C   UNL     1       4.344  -1.187  -0.165  0.00  0.00    +0.001 A 
ATOM     19  C   UNL     1       5.506  -0.447  -0.094  0.00  0.00    +0.016 A 
ATOM     20  C   UNL     1       5.443   0.941   0.037  0.00  0.00    +0.072 A 
ATOM     21  C   UNL     1       4.185   1.577   0.085  0.00  0.00    +0.009 A 
ATOM     22  C   UNL     1       3.022   0.809   0.007  0.00  0.00    +0.010 A 
BRANCH  20  23
ATOM     23  C   UNL     1       6.681   1.736   0.118  0.00  0.00    +0.387 C 
ATOM     24  O   UNL     1       6.624   2.950   0.132  0.00  0.00    -0.241 OA
ATOM     25  O   UNL     1       7.877   1.117   0.177  0.00  0.00    -0.241 OA
ENDBRANCH  20  23
ENDBRANCH  15  21
ENDBRANCH   1  16
TORSDOF 4
