REMARK  Name = ZINC11937147
REMARK  6 active torsions:
REMARK  status: ('A' for Active; 'I' for Inactive)
REMARK    1  A    between atoms: C_3  and  C_6
REMARK    2  A    between atoms: C_6  and  N_55
REMARK    3  A    between atoms: C_12  and  C_14
REMARK    4  A    between atoms: C_14  and  C_15
REMARK    5  A    between atoms: N_20  and  C_23
REMARK    6  A    between atoms: C_26  and  O_29
REMARK                            x       y       z     vdW  Elec       q    Type
REMARK                         _______ _______ _______ _____ _____    ______ ____
ROOT
ATOM      1  C   UNL     1       9.921   2.621  -0.126  0.00  0.00    +0.090 C 
ENDROOT
BRANCH   1   7
ATOM      2  C   UNL     1      12.544   1.664   2.384  0.00  0.00    -0.058 C 
ATOM      3  C   UNL     1      12.604   3.012   3.106  0.00  0.00    +0.085 C 
ATOM      4  N   UNL     1      12.323   4.095   2.168  0.00  0.00    -0.318 N 
ATOM      5  C   UNL     1      11.723   3.898   0.990  0.00  0.00    +0.200 C 
ATOM      6  O   UNL     1      11.499   4.859   0.284  0.00  0.00    -0.278 OA
ATOM      7  C   UNL     1      11.313   2.537   0.503  0.00  0.00    +0.028 C 
ATOM      8  H   UNL     1      12.584   4.997   2.411  0.00  0.00    +0.149 HD
ATOM      9  N   UNL     1      11.269   1.600   1.641  0.00  0.00    +0.392 N 
ATOM     10  H   UNL     1      10.502   1.869   2.268  0.00  0.00    -0.080 HD
BRANCH   9  11
ATOM     11  C   UNL     1      11.034   0.222   1.154  0.00  0.00    -0.034 C 
BRANCH  11  14
ATOM     12  C   UNL     1       9.259  -1.732   3.901  0.00  0.00    +0.008 A 
ATOM     13  C   UNL     1       9.392  -0.893   2.811  0.00  0.00    +0.009 A 
ATOM     14  C   UNL     1      10.631  -0.645   2.319  0.00  0.00    -0.027 A 
ATOM     15  S   UNL     1      11.660  -1.618   3.405  0.00  0.00    -0.103 S 
ATOM     16  C   UNL     1      10.371  -2.282   4.447  0.00  0.00    +0.045 A 
ENDBRANCH  11  14
ENDBRANCH   9  11
ENDBRANCH   1   7
BRANCH   1  17
ATOM     17  C   UNL     1       8.921   3.043   0.920  0.00  0.00    +0.215 C 
ATOM     18  O   UNL     1       9.266   3.159   2.076  0.00  0.00    -0.276 OA
ATOM     19  N   UNL     1       7.644   3.291   0.569  0.00  0.00    -0.299 N 
ATOM     20  C   UNL     1       6.652   3.703   1.574  0.00  0.00    +0.126 C 
ATOM     21  C   UNL     1       5.423   2.797   1.446  0.00  0.00    +0.124 C 
ATOM     22  N   UNL     1       4.946   2.818   0.057  0.00  0.00    -0.327 N 
ATOM     23  C   UNL     1       5.953   2.271  -0.861  0.00  0.00    +0.124 C 
ATOM     24  C   UNL     1       7.204   3.156  -0.828  0.00  0.00    +0.126 C 
BRANCH  22  25
ATOM     25  C   UNL     1       3.731   2.135  -0.067  0.00  0.00    +0.030 A 
ATOM     26  C   UNL     1       3.110   2.040  -1.305  0.00  0.00    +0.027 A 
ATOM     27  C   UNL     1       1.911   1.364  -1.426  0.00  0.00    +0.047 A 
ATOM     28  C   UNL     1       1.327   0.782  -0.311  0.00  0.00    +0.117 A 
ATOM     29  C   UNL     1       1.944   0.881   0.927  0.00  0.00    +0.047 A 
ATOM     30  C   UNL     1       3.146   1.551   1.049  0.00  0.00    +0.027 A 
BRANCH  28  31
ATOM     31  O   UNL     1       0.146   0.118  -0.431  0.00  0.00    -0.507 OA
ATOM     32  H   UNL     1       0.243  -0.824  -0.628  0.00  0.00    +0.292 HD
ENDBRANCH  28  31
ENDBRANCH  22  25
ENDBRANCH   1  17
TORSDOF 6
