REMARK  Name = ZINC39527510
REMARK  2 active torsions:
REMARK  status: ('A' for Active; 'I' for Inactive)
REMARK    1  A    between atoms: C_8  and  C_12
REMARK    2  A    between atoms: C_18  and  C_20
REMARK                            x       y       z     vdW  Elec       q    Type
REMARK                         _______ _______ _______ _____ _____    ______ ____
ROOT
ATOM      1  C   UNL     1       2.632  -4.207  -0.182  0.00  0.00    +0.223 C 
ATOM      2  O   UNL     1       1.695  -4.781   0.332  0.00  0.00    -0.275 OA
ATOM      3  N   UNL     1       3.748  -4.892  -0.501  0.00  0.00    -0.294 N 
ATOM      4  C   UNL     1       4.958  -4.321  -1.120  0.00  0.00    +0.108 C 
ATOM      5  C   UNL     1       5.643  -5.517  -1.828  0.00  0.00    +0.021 C 
ATOM      6  C   UNL     1       5.367  -6.670  -0.828  0.00  0.00    +0.029 C 
ATOM      7  C   UNL     1       3.963  -6.330  -0.283  0.00  0.00    +0.113 C 
ENDROOT
BRANCH   1  15
ATOM      8  C   UNL     1      -0.017   1.377   0.010  0.00  0.00    +0.000 A 
ATOM      9  C   UNL     1       1.172   2.084   0.002  0.00  0.00    +0.004 A 
ATOM     10  C   UNL     1       2.375   1.409  -0.015  0.00  0.00    +0.046 A 
ATOM     11  C   UNL     1       2.398   0.018  -0.024  0.00  0.00    +0.124 A 
ATOM     12  C   UNL     1       1.207  -0.687  -0.012  0.00  0.00    -0.005 A 
ATOM     13  C   UNL     1       0.002  -0.004   0.002  0.00  0.00    +0.007 A 
ATOM     14  C   UNL     1       1.187  -2.194  -0.010  0.00  0.00    +0.055 C 
ATOM     15  C   UNL     1       2.548  -2.729  -0.463  0.00  0.00    +0.117 C 
ATOM     16  C   UNL     1       3.641  -1.990   0.320  0.00  0.00    +0.242 C 
ATOM     17  O   UNL     1       3.602  -0.610  -0.046  0.00  0.00    -0.491 OA
ENDBRANCH   1  15
BRANCH   7  18
ATOM     18  C   UNL     1       3.893  -6.641   1.190  0.00  0.00    +0.010 A 
ATOM     19  C   UNL     1       3.331  -7.707   1.811  0.00  0.00    +0.013 A 
ATOM     20  C   UNL     1       3.387  -7.786   3.189  0.00  0.00    +0.008 A 
ATOM     21  C   UNL     1       4.002  -6.795   3.880  0.00  0.00    +0.045 A 
ATOM     22  S   UNL     1       4.534  -5.706   2.568  0.00  0.00    -0.100 S 
ENDBRANCH   7  18
TORSDOF 2
