REMARK  Name = ZINC15012725
REMARK  3 active torsions:
REMARK  status: ('A' for Active; 'I' for Inactive)
REMARK    1  A    between atoms: C_2  and  C_3
REMARK    2  A    between atoms: C_3  and  N_4
REMARK    3  A    between atoms: C_8  and  C_9
REMARK                            x       y       z     vdW  Elec       q    Type
REMARK                         _______ _______ _______ _____ _____    ______ ____
ROOT
ATOM      1  N   UNL     1      -1.017   1.861   0.971  0.00  0.00    -0.217 N 
ATOM      2  C   UNL     1       0.080   1.192   0.660  0.00  0.00    +0.261 C 
ATOM      3  O   UNL     1       0.100  -0.025   0.633  0.00  0.00    -0.269 OA
ATOM      4  C   UNL     1       1.277   1.994   0.340  0.00  0.00    +0.080 C 
ATOM      5  C   UNL     1       2.522   1.587  -0.014  0.00  0.00    +0.030 C 
ATOM      6  S   UNL     1       0.635   3.650   0.547  0.00  0.00    -0.026 S 
ATOM      7  C   UNL     1      -1.034   3.209   1.004  0.00  0.00    +0.287 C 
ATOM      8  O   UNL     1      -1.962   3.947   1.276  0.00  0.00    -0.262 OA
ENDROOT
BRANCH   5   9
ATOM      9  C   UNL     1       3.610   2.566  -0.130  0.00  0.00    -0.002 A 
ATOM     10  C   UNL     1       3.490   3.824   0.475  0.00  0.00    +0.059 A 
ATOM     11  C   UNL     1       4.515   4.741   0.363  0.00  0.00    +0.167 A 
ATOM     12  C   UNL     1       5.670   4.416  -0.352  0.00  0.00    +0.168 A 
ATOM     13  C   UNL     1       5.790   3.170  -0.952  0.00  0.00    +0.070 A 
ATOM     14  C   UNL     1       4.773   2.244  -0.841  0.00  0.00    +0.052 A 
ATOM     15 CL   UNL     1       4.932   0.685  -1.587  0.00  0.00    -0.083 Cl
ATOM     16  O   UNL     1       6.520   5.482  -0.313  0.00  0.00    -0.453 OA
ATOM     17  C   UNL     1       6.055   6.306   0.772  0.00  0.00    +0.466 C 
ATOM     18  O   UNL     1       4.647   6.011   0.848  0.00  0.00    -0.453 OA
ENDBRANCH   5   9
BRANCH   1  19
ATOM     19  C   UNL     1      -2.240   1.122   1.292  0.00  0.00    +0.206 C 
BRANCH  19  21
ATOM     20  C   UNL     1      -2.320   0.634   3.891  0.00  0.00    +0.005 C 
ATOM     21  C   UNL     1      -2.285   0.851   2.738  0.00  0.00    -0.086 C 
ENDBRANCH  19  21
ENDBRANCH   1  19
TORSDOF 3
