REMARK  Name = ZINC02210008
REMARK  2 active torsions:
REMARK  status: ('A' for Active; 'I' for Inactive)
REMARK    1  A    between atoms: C_13  and  C_14
REMARK    2  A    between atoms: C_17  and  N_19
REMARK                            x       y       z     vdW  Elec       q    Type
REMARK                         _______ _______ _______ _____ _____    ______ ____
ROOT
ATOM      1  C   UNL     1       9.563   4.718  -0.059  0.00  0.00    +0.002 A 
ATOM      2  C   UNL     1       9.396   3.341  -0.065  0.00  0.00    +0.002 A 
ATOM      3  C   UNL     1       8.129   2.791  -0.058  0.00  0.00    +0.028 A 
ATOM      4  C   UNL     1       7.021   3.621  -0.043  0.00  0.00    +0.077 A 
ATOM      5  C   UNL     1       7.182   5.012  -0.037  0.00  0.00    +0.091 A 
ATOM      6  C   UNL     1       8.470   5.556  -0.045  0.00  0.00    +0.030 A 
ATOM      7  N   UNL     1       5.939   5.560  -0.023  0.00  0.00    -0.221 NA
ATOM      8  C   UNL     1       5.049   4.611  -0.020  0.00  0.00    +0.182 A 
ATOM      9  N   UNL     1       5.638   3.367  -0.032  0.00  0.00    -0.253 N 
ATOM     10  C   UNL     1       4.840   2.290  -0.025  0.00  0.00    +0.272 A 
ATOM     11  O   UNL     1       5.319   1.169  -0.030  0.00  0.00    -0.266 OA
ATOM     12  C   UNL     1       3.436   2.467  -0.017  0.00  0.00    +0.084 A 
ATOM     13  C   UNL     1       2.436   1.518  -0.013  0.00  0.00    +0.067 C 
ATOM     14  S   UNL     1       3.306   4.249  -0.006  0.00  0.00    -0.046 S 
ENDROOT
BRANCH  13  15
ATOM     15  C   UNL     1       1.087   1.918   0.002  0.00  0.00    +0.131 A 
ATOM     16  C   UNL     1      -0.013   1.076   0.008  0.00  0.00    +0.051 A 
ATOM     17  C   UNL     1      -1.144   1.895   0.017  0.00  0.00    +0.066 A 
ATOM     18  C   UNL     1      -0.707   3.188   0.025  0.00  0.00    +0.189 A 
ATOM     19  O   UNL     1       0.635   3.192   0.013  0.00  0.00    -0.442 OA
BRANCH  18  20
ATOM     20  N   UNL     1      -1.514   4.308   0.038  0.00  0.00    -0.301 N 
ATOM     21  C   UNL     1      -2.458   4.290  -1.087  0.00  0.00    +0.108 C 
ATOM     22  C   UNL     1      -3.429   5.466  -0.959  0.00  0.00    +0.019 C 
ATOM     23  C   UNL     1      -2.637   6.777  -0.953  0.00  0.00    +0.003 C 
ATOM     24  C   UNL     1      -1.627   6.750   0.198  0.00  0.00    +0.019 C 
ATOM     25  C   UNL     1      -0.709   5.536   0.036  0.00  0.00    +0.108 C 
ENDBRANCH  18  20
ENDBRANCH  13  15
TORSDOF 2
