REMARK  Name = ZINC47999869
REMARK  8 active torsions:
REMARK  status: ('A' for Active; 'I' for Inactive)
REMARK    1  A    between atoms: C_1  and  C_2
REMARK    2  A    between atoms: N_5  and  C_8
REMARK    3  A    between atoms: C_8  and  C_9
REMARK    4  A    between atoms: C_9  and  C_10
REMARK    5  A    between atoms: C_10  and  C_11
REMARK    6  A    between atoms: C_11  and  N_12
REMARK    7  A    between atoms: C_13  and  C_15
REMARK    8  A    between atoms: C_15  and  N_17
REMARK                            x       y       z     vdW  Elec       q    Type
REMARK                         _______ _______ _______ _____ _____    ______ ____
ROOT
ATOM      1  N   UNL     1       3.762  -7.752   2.306  0.00  0.00    -0.308 N 
ATOM      2  C   UNL     1       4.499  -8.360   3.256  0.00  0.00    +0.301 C 
ATOM      3  O   UNL     1       5.040  -7.700   4.120  0.00  0.00    -0.265 OA
ATOM      4  H   UNL     1       3.329  -8.279   1.616  0.00  0.00    +0.149 HD
ENDROOT
BRANCH   2   5
ATOM      5  C   UNL     1       4.649  -9.844   3.247  0.00  0.00    +0.324 C 
ATOM      6  O   UNL     1       4.106 -10.506   2.381  0.00  0.00    -0.263 OA
BRANCH   5   7
ATOM      7  N   UNL     1       5.377 -10.445   4.186  0.00  0.00    -0.148 NA
ATOM      8  C   UNL     1       5.511 -11.771   4.178  0.00  0.00    +0.164 A 
ATOM      9  N   UNL     1       6.205 -12.542   5.053  0.00  0.00    -0.335 N 
ATOM     10  C   UNL     1       6.234 -13.912   4.888  0.00  0.00    +0.055 A 
ATOM     11  C   UNL     1       6.880 -14.884   5.665  0.00  0.00    +0.027 A 
ATOM     12  C   UNL     1       6.791 -16.217   5.335  0.00  0.00    +0.002 A 
ATOM     13  C   UNL     1       6.064 -16.636   4.233  0.00  0.00    +0.001 A 
ATOM     14  C   UNL     1       5.417 -15.697   3.450  0.00  0.00    +0.017 A 
ATOM     15  C   UNL     1       5.504 -14.365   3.779  0.00  0.00    +0.039 A 
ATOM     16  S   UNL     1       4.854 -12.867   3.087  0.00  0.00    -0.052 S 
ATOM     17  H   UNL     1       6.680 -12.131   5.792  0.00  0.00    +0.168 HD
ENDBRANCH   5   7
ENDBRANCH   2   5
BRANCH   1  18
ATOM     18  C   UNL     1       3.614  -6.294   2.315  0.00  0.00    +0.104 C 
BRANCH  18  19
ATOM     19  C   UNL     1       2.736  -5.863   1.138  0.00  0.00    +0.017 C 
BRANCH  19  20
ATOM     20  C   UNL     1       2.582  -4.341   1.147  0.00  0.00    -0.017 C 
BRANCH  20  21
ATOM     21  C   UNL     1       1.704  -3.911  -0.029  0.00  0.00    -0.079 C 
BRANCH  21  26
ATOM     22  C   UNL     1      -0.019   1.526   0.010  0.00  0.00    +0.007 C 
ATOM     23  C   UNL     1       0.002  -0.004   0.002  0.00  0.00    -0.018 C 
ATOM     24  C   UNL     1       0.727  -0.499  -1.252  0.00  0.00    -0.016 C 
ATOM     25  C   UNL     1       0.814  -2.027  -1.215  0.00  0.00    -0.079 C 
ATOM     26  N   UNL     1       1.556  -2.449  -0.021  0.00  0.00    +0.380 N 
ATOM     27  C   UNL     1       0.829  -2.040   1.187  0.00  0.00    -0.079 C 
ATOM     28  C   UNL     1       0.743  -0.513   1.242  0.00  0.00    -0.016 C 
ATOM     29  H   UNL     1       2.469  -2.020  -0.024  0.00  0.00    -0.082 HD
ENDBRANCH  21  26
ENDBRANCH  20  21
ENDBRANCH  19  20
ENDBRANCH  18  19
ENDBRANCH   1  18
TORSDOF 7
