REMARK  Name = ZINC54762357
REMARK  7 active torsions:
REMARK  status: ('A' for Active; 'I' for Inactive)
REMARK    1  A    between atoms: C_1  and  C_2
REMARK    2  A    between atoms: C_2  and  C_3
REMARK    3  A    between atoms: C_2  and  C_4
REMARK    4  A    between atoms: C_2  and  N_5
REMARK    5  A    between atoms: N_5  and  C_6
REMARK    6  A    between atoms: C_6  and  C_7
REMARK    7  A    between atoms: N_11  and  C_12
REMARK                            x       y       z     vdW  Elec       q    Type
REMARK                         _______ _______ _______ _____ _____    ______ ____
ROOT
ATOM      1  C   UNL     1       2.780  -0.450  -2.455  0.00  0.00    +0.140 A 
ATOM      2  N   UNL     1       3.531  -1.516  -2.552  0.00  0.00    -0.115 NA
ATOM      3  N   UNL     1       3.971  -1.653  -3.751  0.00  0.00    -0.023 NA
ATOM      4  N   UNL     1       3.538  -0.694  -4.496  0.00  0.00    -0.039 NA
ATOM      5  N   UNL     1       2.740   0.124  -3.676  0.00  0.00    -0.198 N 
ENDROOT
BRANCH   5   6
ATOM      6  C   UNL     1       2.050   1.288  -4.048  0.00  0.00    +0.084 A 
ATOM      7  C   UNL     1       2.183   2.445  -3.294  0.00  0.00    +0.044 A 
ATOM      8  C   UNL     1       1.502   3.590  -3.662  0.00  0.00    +0.020 A 
ATOM      9  C   UNL     1       0.689   3.583  -4.781  0.00  0.00    +0.016 A 
ATOM     10  C   UNL     1       0.554   2.432  -5.534  0.00  0.00    +0.018 A 
ATOM     11  C   UNL     1       1.237   1.286  -5.174  0.00  0.00    +0.043 A 
ATOM     12 BR   UNL     1       1.059  -0.287  -6.210  0.00  0.00    -0.048 Br
ATOM     13 BR   UNL     1       1.682   5.168  -2.635  0.00  0.00    -0.050 Br
ENDBRANCH   5   6
BRANCH   1  14
ATOM     14  C   UNL     1       2.085   0.042  -1.212  0.00  0.00    -0.002 C 
BRANCH  14  15
ATOM     15  N   UNL     1       0.705  -0.460  -1.192  0.00  0.00    +0.387 N 
ATOM     16  H   UNL     1       0.714  -1.469  -1.194  0.00  0.00    -0.085 HD
ATOM     17  H   UNL     1       0.213  -0.126  -2.007  0.00  0.00    -0.085 HD
BRANCH  15  19
ATOM     18  C   UNL     1       0.013   1.550   0.024  0.00  0.00    -0.011 C 
ATOM     19  C   UNL     1       0.027   0.020   0.020  0.00  0.00    -0.076 C 
ATOM     20  C   UNL     1       0.772  -0.486   1.256  0.00  0.00    -0.011 C 
ATOM     21  C   UNL     1      -1.411  -0.503   0.041  0.00  0.00    -0.011 C 
ENDBRANCH  15  19
ENDBRANCH  14  15
ENDBRANCH   1  14
TORSDOF 4
