REMARK  Name = ZINC04598523
REMARK  7 active torsions:
REMARK  status: ('A' for Active; 'I' for Inactive)
REMARK    1  A    between atoms: C_1  and  C_2
REMARK    2  A    between atoms: C_2  and  O_3
REMARK    3  A    between atoms: O_3  and  C_4
REMARK    4  A    between atoms: C_4  and  C_6
REMARK    5  A    between atoms: C_17  and  C_29
REMARK    6  A    between atoms: N_18  and  C_22
REMARK    7  A    between atoms: C_27  and  C_28
REMARK                            x       y       z     vdW  Elec       q    Type
REMARK                         _______ _______ _______ _____ _____    ______ ____
ROOT
ATOM      1  C   UNL     1       1.805   1.409   1.276  0.00  0.00    +0.185 C 
ATOM      2  C   UNL     1       2.152  -0.012   0.801  0.00  0.00    +0.125 C 
ATOM      3  C   UNL     1       0.880  -0.676   0.323  0.00  0.00    +0.015 A 
ATOM      4  C   UNL     1       0.804  -2.057   0.326  0.00  0.00    +0.009 A 
ATOM      5  C   UNL     1      -0.340  -2.689  -0.124  0.00  0.00    +0.001 A 
ATOM      6  C   UNL     1      -1.410  -1.940  -0.577  0.00  0.00    +0.004 A 
ATOM      7  C   UNL     1      -1.339  -0.562  -0.576  0.00  0.00    +0.046 A 
ATOM      8  C   UNL     1      -0.190   0.079  -0.121  0.00  0.00    +0.128 A 
ATOM      9  O   UNL     1      -0.160   1.436  -0.128  0.00  0.00    -0.467 OA
ATOM     10  C   UNL     1       1.086   2.095   0.085  0.00  0.00    +0.196 C 
ATOM     11  N   UNL     1       1.925   2.020  -1.108  0.00  0.00    -0.243 N 
ATOM     12  C   UNL     1       2.869   1.078  -1.256  0.00  0.00    +0.141 C 
ATOM     13  S   UNL     1       3.874   1.128  -2.641  0.00  0.00    -0.018 S 
ATOM     14  N   UNL     1       3.054   0.097  -0.358  0.00  0.00    -0.318 N 
ATOM     15  C   UNL     1       0.831   3.562   0.436  0.00  0.00    +0.080 C 
ATOM     16  H   UNL     1       3.778  -0.538  -0.472  0.00  0.00    +0.148 HD
ENDROOT
BRANCH  11  17
ATOM     17  C   UNL     1       1.738   2.959  -2.128  0.00  0.00    +0.042 A 
ATOM     18  C   UNL     1       2.430   4.163  -2.101  0.00  0.00    +0.024 A 
ATOM     19  C   UNL     1       2.247   5.086  -3.112  0.00  0.00    +0.002 A 
ATOM     20  C   UNL     1       1.367   4.816  -4.145  0.00  0.00    +0.000 A 
ATOM     21  C   UNL     1       0.673   3.621  -4.172  0.00  0.00    +0.005 A 
ATOM     22  C   UNL     1       0.856   2.692  -3.167  0.00  0.00    -0.029 A 
ATOM     23  C   UNL     1       0.098   1.389  -3.197  0.00  0.00    +0.045 C 
ENDBRANCH  11  17
BRANCH   1  24
ATOM     24  C   UNL     1       3.067   2.163   1.609  0.00  0.00    +0.318 C 
ATOM     25  O   UNL     1       3.647   2.780   0.748  0.00  0.00    -0.250 OA
BRANCH  24  26
ATOM     26  O   UNL     1       3.546   2.148   2.863  0.00  0.00    -0.465 OA
BRANCH  26  28
ATOM     27  C   UNL     1       5.154   2.763   4.585  0.00  0.00    +0.048 C 
ATOM     28  C   UNL     1       4.765   2.897   3.111  0.00  0.00    +0.229 C 
ENDBRANCH  26  28
ENDBRANCH  24  26
ENDBRANCH   1  24
TORSDOF 4
