REMARK  Name = ZINC11107526
REMARK  9 active torsions:
REMARK  status: ('A' for Active; 'I' for Inactive)
REMARK    1  A    between atoms: C_1  and  C_2
REMARK    2  A    between atoms: C_5  and  N_9
REMARK    3  A    between atoms: C_10  and  C_12
REMARK    4  A    between atoms: C_12  and  O_13
REMARK    5  A    between atoms: O_13  and  C_14
REMARK    6  A    between atoms: C_14  and  C_16
REMARK    7  A    between atoms: C_18  and  S_23
REMARK    8  A    between atoms: S_23  and  N_26
REMARK    9  A    between atoms: N_26  and  C_27
REMARK                            x       y       z     vdW  Elec       q    Type
REMARK                         _______ _______ _______ _____ _____    ______ ____
ROOT
ATOM      1  C   UNL     1      -2.881   2.138  -4.980  0.00  0.00    +0.341 C 
ATOM      2  O   UNL     1      -2.963   2.752  -6.024  0.00  0.00    -0.245 OA
ENDROOT
BRANCH   1   3
ATOM      3  C   UNL     1      -2.271   2.773  -3.795  0.00  0.00    +0.079 A 
ATOM      4  C   UNL     1      -2.176   2.070  -2.592  0.00  0.00    +0.045 A 
ATOM      5  C   UNL     1      -1.605   2.669  -1.489  0.00  0.00    +0.106 A 
ATOM      6  C   UNL     1      -1.131   3.967  -1.570  0.00  0.00    +0.030 A 
ATOM      7  C   UNL     1      -1.216   4.669  -2.759  0.00  0.00    +0.023 A 
ATOM      8  C   UNL     1      -1.786   4.081  -3.872  0.00  0.00    +0.055 A 
ATOM      9 CL   UNL     1      -1.898   4.965  -5.361  0.00  0.00    -0.083 Cl
BRANCH   5  10
ATOM     10  S   UNL     1      -1.484   1.782   0.029  0.00  0.00    +0.058 S 
ATOM     11  O   UNL     1      -2.496   0.785  -0.002  0.00  0.00    -0.153 OA
ATOM     12  O   UNL     1      -1.403   2.755   1.062  0.00  0.00    -0.153 OA
BRANCH  10  13
ATOM     13  N   UNL     1      -0.033   0.984   0.016  0.00  0.00    -0.193 NA
ATOM     14  C   UNL     1       1.220   1.743   0.010  0.00  0.00    +0.127 C 
ATOM     15  H   UNL     1      -0.013   0.015   0.008  0.00  0.00    +0.148 HD
ENDBRANCH  10  13
ENDBRANCH   5  10
ENDBRANCH   1   3
BRANCH   1  16
ATOM     16  O   UNL     1      -3.348   0.876  -4.902  0.00  0.00    -0.452 OA
BRANCH  16  17
ATOM     17  C   UNL     1      -3.935   0.315  -6.106  0.00  0.00    +0.328 C 
BRANCH  17  19
ATOM     18  N   UNL     1      -4.978  -1.814  -6.809  0.00  0.00    -0.282 N 
ATOM     19  C   UNL     1      -4.397  -1.092  -5.831  0.00  0.00    +0.255 C 
ATOM     20  O   UNL     1      -4.247  -1.575  -4.728  0.00  0.00    -0.272 OA
ATOM     21  H   UNL     1      -5.157  -1.407  -7.671  0.00  0.00    +0.155 HD
BRANCH  18  26
ATOM     22  C   UNL     1      -6.375  -7.236  -5.887  0.00  0.00    +0.044 C 
ATOM     23  C   UNL     1      -6.003  -5.796  -6.132  0.00  0.00    -0.049 A 
ATOM     24  C   UNL     1      -6.098  -4.875  -5.106  0.00  0.00    +0.005 A 
ATOM     25  C   UNL     1      -5.759  -3.554  -5.327  0.00  0.00    +0.025 A 
ATOM     26  C   UNL     1      -5.322  -3.152  -6.582  0.00  0.00    +0.048 A 
ATOM     27  C   UNL     1      -5.233  -4.079  -7.613  0.00  0.00    +0.039 A 
ATOM     28  C   UNL     1      -5.569  -5.399  -7.384  0.00  0.00    +0.020 A 
ATOM     29 BR   UNL     1      -4.646  -3.535  -9.327  0.00  0.00    -0.048 Br
ENDBRANCH  18  26
ENDBRANCH  17  19
ENDBRANCH  16  17
ENDBRANCH   1  16
TORSDOF 7
