REMARK  Name = ZINC13345035
REMARK  6 active torsions:
REMARK  status: ('A' for Active; 'I' for Inactive)
REMARK    1  A    between atoms: C_4  and  C_22
REMARK    2  A    between atoms: C_5  and  C_7
REMARK    3  A    between atoms: C_8  and  C_9
REMARK    4  A    between atoms: C_8  and  C_11
REMARK    5  A    between atoms: N_13  and  C_14
REMARK    6  A    between atoms: C_19  and  C_20
REMARK                            x       y       z     vdW  Elec       q    Type
REMARK                         _______ _______ _______ _____ _____    ______ ____
ROOT
ATOM      1  C   UNL     1      -2.482   1.011  -0.028  0.00  0.00    +0.032 C 
ATOM      2  C   UNL     1      -2.477  -0.351  -0.138  0.00  0.00    +0.114 C 
ENDROOT
BRANCH   1   7
ATOM      3  C   UNL     1       1.111   1.908   0.550  0.00  0.00    +0.001 A 
ATOM      4  C   UNL     1       1.177   3.150  -0.059  0.00  0.00    +0.001 A 
ATOM      5  C   UNL     1       0.054   3.698  -0.654  0.00  0.00    +0.013 A 
ATOM      6  C   UNL     1      -1.141   3.011  -0.646  0.00  0.00    +0.062 A 
ATOM      7  C   UNL     1      -1.216   1.752  -0.037  0.00  0.00    -0.012 A 
ATOM      8  C   UNL     1      -0.075   1.207   0.568  0.00  0.00    +0.008 A 
BRANCH   6   9
ATOM      9  C   UNL     1      -2.362   3.611  -1.294  0.00  0.00    +0.418 C 
ATOM     10  F   UNL     1      -2.038   4.860  -1.834  0.00  0.00    -0.166 F 
ATOM     11  F   UNL     1      -2.811   2.765  -2.314  0.00  0.00    -0.166 F 
ATOM     12  F   UNL     1      -3.371   3.764  -0.337  0.00  0.00    -0.166 F 
ENDBRANCH   6   9
ENDBRANCH   1   7
BRANCH   2  13
ATOM     13  C   UNL     1      -3.749  -1.088  -0.216  0.00  0.00    +0.259 C 
ATOM     14  O   UNL     1      -4.804  -0.484  -0.183  0.00  0.00    -0.269 OA
ATOM     15  N   UNL     1      -3.744  -2.431  -0.324  0.00  0.00    -0.280 N 
ATOM     16  H   UNL     1      -2.908  -2.920  -0.263  0.00  0.00    +0.155 HD
BRANCH  15  17
ATOM     17  C   UNL     1      -4.938  -3.117  -0.522  0.00  0.00    +0.048 A 
ATOM     18  C   UNL     1      -6.018  -2.481  -1.120  0.00  0.00    +0.024 A 
ATOM     19  C   UNL     1      -7.199  -3.165  -1.322  0.00  0.00    +0.002 A 
ATOM     20  C   UNL     1      -7.322  -4.486  -0.920  0.00  0.00    +0.001 A 
ATOM     21  C   UNL     1      -6.264  -5.132  -0.321  0.00  0.00    +0.017 A 
ATOM     22  C   UNL     1      -5.059  -4.455  -0.115  0.00  0.00    +0.084 A 
BRANCH  22  23
ATOM     23  C   UNL     1      -3.923  -5.140   0.526  0.00  0.00    +0.388 C 
ATOM     24  O   UNL     1      -2.912  -4.521   0.793  0.00  0.00    -0.241 OA
ATOM     25  O   UNL     1      -4.005  -6.454   0.817  0.00  0.00    -0.241 OA
ENDBRANCH  22  23
ENDBRANCH  15  17
ENDBRANCH   2  13
BRANCH   2  26
ATOM     26  C   UNL     1      -1.234  -1.062  -0.176  0.00  0.00    +0.104 C 
ATOM     27  N   UNL     1      -0.248  -1.625  -0.207  0.00  0.00    -0.191 NA
ENDBRANCH   2  26
TORSDOF 6
