REMARK  Name = ZINC50527118
REMARK  1 active torsions:
REMARK  status: ('A' for Active; 'I' for Inactive)
REMARK    1  A    between atoms: N_9  and  C_10
REMARK                            x       y       z     vdW  Elec       q    Type
REMARK                         _______ _______ _______ _____ _____    ______ ____
ROOT
ATOM      1  C   UNL     1       4.879  -0.533  -0.048  0.00  0.00    +0.129 C 
ATOM      2  C   UNL     1       5.527  -1.120  -1.302  0.00  0.00    +0.065 C 
ATOM      3  C   UNL     1       7.025  -0.989  -1.232  0.00  0.00    -0.024 A 
ATOM      4  C   UNL     1       7.759  -1.052  -2.405  0.00  0.00    +0.005 A 
ATOM      5  C   UNL     1       9.135  -0.938  -2.374  0.00  0.00    +0.000 A 
ATOM      6  C   UNL     1       9.790  -0.760  -1.169  0.00  0.00    +0.002 A 
ATOM      7  C   UNL     1       9.067  -0.695   0.005  0.00  0.00    +0.023 A 
ATOM      8  C   UNL     1       7.681  -0.808  -0.025  0.00  0.00    +0.030 A 
ATOM      9  N   UNL     1       6.965  -0.732   1.175  0.00  0.00    -0.342 N 
ATOM     10  C   UNL     1       5.553  -1.137   1.190  0.00  0.00    +0.128 C 
ATOM     11  H   UNL     1       7.394  -0.414   1.986  0.00  0.00    +0.146 HD
ENDROOT
BRANCH   1  20
ATOM     12  C   UNL     1      -0.016   1.360   0.009  0.00  0.00    +0.001 A 
ATOM     13  C   UNL     1       1.170   2.085   0.002  0.00  0.00    +0.002 A 
ATOM     14  C   UNL     1       2.378   1.448  -0.013  0.00  0.00    +0.028 A 
ATOM     15  C   UNL     1       2.428   0.056  -0.021  0.00  0.00    +0.069 A 
ATOM     16  C   UNL     1       1.228  -0.679  -0.013  0.00  0.00    +0.020 A 
ATOM     17  C   UNL     1       0.002  -0.004   0.002  0.00  0.00    +0.011 A 
ATOM     18  C   UNL     1       1.609  -2.088  -0.025  0.00  0.00    +0.143 A 
ATOM     19  N   UNL     1       2.910  -2.147  -0.038  0.00  0.00    -0.178 NA
ATOM     20  N   UNL     1       3.450  -0.857  -0.036  0.00  0.00    -0.259 N 
ENDBRANCH   1  20
TORSDOF 1
