REMARK  Name = ZINC66793511
REMARK  13 active torsions:
REMARK  status: ('A' for Active; 'I' for Inactive)
REMARK    1  A    between atoms: C_1  and  C_2
REMARK    2  A    between atoms: C_2  and  C_3
REMARK    3  A    between atoms: C_2  and  C_4
REMARK    4  A    between atoms: C_2  and  C_5
REMARK    5  A    between atoms: N_10  and  C_12
REMARK    6  A    between atoms: C_12  and  N_13
REMARK    7  A    between atoms: C_16  and  C_19
REMARK    8  A    between atoms: C_19  and  N_20
REMARK    9  A    between atoms: C_21  and  O_23
REMARK   10  A    between atoms: O_23  and  C_24
REMARK   11  A    between atoms: C_24  and  C_25
REMARK   12  A    between atoms: C_24  and  C_26
REMARK   13  A    between atoms: C_24  and  C_27
REMARK                            x       y       z     vdW  Elec       q    Type
REMARK                         _______ _______ _______ _____ _____    ______ ____
ROOT
ATOM      1  N   UNL     1       1.185   1.639  -4.816  0.00  0.00    +0.393 N 
ATOM      2  C   UNL     1       0.576   0.618  -5.676  0.00  0.00    -0.076 C 
ATOM      3  C   UNL     1      -0.641   1.209  -6.392  0.00  0.00    -0.014 C 
ATOM      4  C   UNL     1      -0.195   2.399  -7.247  0.00  0.00    +0.003 C 
ATOM      5  C   UNL     1       0.506   3.424  -6.351  0.00  0.00    -0.014 C 
ATOM      6  C   UNL     1       1.679   2.751  -5.636  0.00  0.00    -0.076 C 
ATOM      7  H   UNL     1       0.495   1.984  -4.165  0.00  0.00    -0.079 HD
ENDROOT
BRANCH   1   8
ATOM      8  C   UNL     1       2.304   1.046  -4.072  0.00  0.00    +0.073 C 
BRANCH   8  14
ATOM      9  C   UNL     1       0.707  -0.490  -1.238  0.00  0.00    +0.067 A 
ATOM     10  C   UNL     1       0.845  -1.869  -1.467  0.00  0.00    +0.031 A 
ATOM     11  C   UNL     1       1.489  -2.277  -2.600  0.00  0.00    +0.073 A 
ATOM     12  C   UNL     1       1.978  -1.282  -3.474  0.00  0.00    +0.266 A 
ATOM     13  O   UNL     1       2.561  -1.594  -4.500  0.00  0.00    -0.266 OA
ATOM     14  N   UNL     1       1.795   0.016  -3.163  0.00  0.00    -0.246 N 
ATOM     15  N   UNL     1       1.181   0.373  -2.093  0.00  0.00    -0.174 NA
BRANCH   9  17
ATOM     16  C   UNL     1      -0.019   1.526   0.010  0.00  0.00    +0.017 C 
ATOM     17  C   UNL     1       0.002  -0.004   0.002  0.00  0.00    +0.006 C 
ATOM     18  C   UNL     1       0.742  -0.511   1.242  0.00  0.00    +0.017 C 
ATOM     19  C   UNL     1      -1.433  -0.534   0.013  0.00  0.00    +0.017 C 
ENDBRANCH   9  17
ENDBRANCH   8  14
ENDBRANCH   1   8
BRANCH   4  20
ATOM     20  C   UNL     1      -1.417   3.043  -7.904  0.00  0.00    +0.111 C 
BRANCH  20  21
ATOM     21  N   UNL     1      -0.980   4.105  -8.814  0.00  0.00    -0.281 N 
ATOM     22  C   UNL     1      -1.891   4.816  -9.508  0.00  0.00    +0.401 C 
ATOM     23  O   UNL     1      -3.075   4.576  -9.378  0.00  0.00    -0.226 OA
ATOM     24  H   UNL     1      -0.034   4.296  -8.917  0.00  0.00    +0.152 HD
BRANCH  22  25
ATOM     25  O   UNL     1      -1.488   5.791 -10.344  0.00  0.00    -0.445 OA
BRANCH  25  26
ATOM     26  C   UNL     1      -2.508   6.504 -11.047  0.00  0.00    +0.107 C 
ATOM     27  C   UNL     1      -3.441   7.183 -10.042  0.00  0.00    +0.055 C 
ATOM     28  C   UNL     1      -1.864   7.565 -11.942  0.00  0.00    +0.055 C 
ATOM     29  C   UNL     1      -3.310   5.528 -11.909  0.00  0.00    +0.055 C 
ENDBRANCH  25  26
ENDBRANCH  22  25
ENDBRANCH  20  21
ENDBRANCH   4  20
TORSDOF 7
