REMARK  Name = ZINC24905832
REMARK  5 active torsions:
REMARK  status: ('A' for Active; 'I' for Inactive)
REMARK    1  A    between atoms: C_1  and  O_2
REMARK    2  A    between atoms: O_2  and  C_3
REMARK    3  A    between atoms: C_6  and  C_9
REMARK    4  A    between atoms: C_9  and  C_10
REMARK    5  A    between atoms: C_10  and  N_11
REMARK                            x       y       z     vdW  Elec       q    Type
REMARK                         _______ _______ _______ _____ _____    ______ ____
ROOT
ATOM      1  N   UNL     1       1.951   7.929   2.444  0.00  0.00    +0.380 N 
ATOM      2  C   UNL     1       2.239   6.500   2.619  0.00  0.00    -0.079 C 
ATOM      3  C   UNL     1       1.100   5.672   2.019  0.00  0.00    -0.018 C 
ATOM      4  C   UNL     1       0.961   6.006   0.532  0.00  0.00    -0.028 C 
ATOM      5  C   UNL     1       0.713   7.508   0.373  0.00  0.00    -0.018 C 
ATOM      6  C   UNL     1       1.863   8.282   1.022  0.00  0.00    -0.079 C 
ATOM      7  N   UNL     1      -0.138   5.249  -0.052  0.00  0.00    -0.357 N 
ATOM      8  C   UNL     1      -0.044   3.864  -0.005  0.00  0.00    +0.084 A 
ATOM      9  C   UNL     1      -1.239   3.134   0.019  0.00  0.00    +0.146 A 
ATOM     10  C   UNL     1      -1.218   1.755   0.017  0.00  0.00    +0.040 A 
ATOM     11  C   UNL     1      -0.013   1.076   0.008  0.00  0.00    +0.005 A 
ATOM     12  C   UNL     1       1.173   1.787   0.001  0.00  0.00    +0.027 A 
ATOM     13  C   UNL     1       1.154   3.167  -0.003  0.00  0.00    +0.089 A 
ATOM     14  S   UNL     1       2.684   4.057   0.018  0.00  0.00    -0.055 S 
ATOM     15  O   UNL     1       3.231   3.919   1.322  0.00  0.00    -0.191 OA
ATOM     16  O   UNL     1       3.393   3.696  -1.159  0.00  0.00    -0.191 OA
ATOM     17  N   UNL     1       2.220   5.654  -0.155  0.00  0.00    +0.486 NA
ATOM     18  F   UNL     1      -2.422   3.786   0.039  0.00  0.00    -0.203 F 
ATOM     19  H   UNL     1      -0.991   5.777  -0.503  0.00  0.00    +0.144 HD
ATOM     20  H   UNL     1       0.972   8.132   2.902  0.00  0.00    -0.082 HD
ENDROOT
BRANCH   1  21
ATOM     21  C   UNL     1       2.953   8.755   3.131  0.00  0.00    -0.074 C 
BRANCH  21  22
ATOM     22  C   UNL     1       2.490  10.214   3.141  0.00  0.00    +0.016 C 
BRANCH  22  26
ATOM     23  C   UNL     1       5.405  12.618   5.138  0.00  0.00    +0.120 A 
ATOM     24  C   UNL     1       5.494  12.413   3.768  0.00  0.00    +0.046 A 
ATOM     25  C   UNL     1       4.550  11.635   3.125  0.00  0.00    +0.007 A 
ATOM     26  C   UNL     1       3.518  11.062   3.845  0.00  0.00    -0.049 A 
ATOM     27  C   UNL     1       3.424  11.270   5.208  0.00  0.00    +0.007 A 
ATOM     28  C   UNL     1       4.368  12.042   5.857  0.00  0.00    +0.046 A 
BRANCH  23  30
ATOM     29  C   UNL     1       6.178  13.551   7.183  0.00  0.00    +0.277 C 
ATOM     30  O   UNL     1       6.332  13.383   5.772  0.00  0.00    -0.495 OA
ENDBRANCH  23  30
ENDBRANCH  22  26
ENDBRANCH  21  22
ENDBRANCH   1  21
TORSDOF 4
