REMARK  Name = ZINC52095074
REMARK  3 active torsions:
REMARK  status: ('A' for Active; 'I' for Inactive)
REMARK    1  A    between atoms: C_1  and  C_2
REMARK    2  A    between atoms: C_5  and  C_7
REMARK    3  A    between atoms: C_7  and  C_9
REMARK                            x       y       z     vdW  Elec       q    Type
REMARK                         _______ _______ _______ _____ _____    ______ ____
ROOT
ATOM      1  C   UNL     1       2.473  -3.268   1.261  0.00  0.00    -0.006 A 
ATOM      2  C   UNL     1       1.990  -3.964   2.353  0.00  0.00    +0.034 A 
ATOM      3  C   UNL     1       2.715  -3.986   3.534  0.00  0.00    +0.067 A 
ATOM      4  C   UNL     1       3.931  -3.303   3.616  0.00  0.00    +0.068 A 
ATOM      5  C   UNL     1       4.408  -2.607   2.516  0.00  0.00    +0.043 A 
ATOM      6  C   UNL     1       3.681  -2.596   1.341  0.00  0.00    +0.025 A 
ATOM      7 BR   UNL     1       4.335  -1.654  -0.163  0.00  0.00    -0.050 Br
ATOM      8  N   UNL     1       4.419  -3.505   4.905  0.00  0.00    -0.306 N 
ATOM      9  H   UNL     1       5.250  -3.151   5.259  0.00  0.00    +0.170 HD
ATOM     10  C   UNL     1       3.541  -4.274   5.576  0.00  0.00    +0.325 A 
ATOM     11  O   UNL     1       3.667  -4.636   6.731  0.00  0.00    -0.247 OA
ATOM     12  N   UNL     1       2.503  -4.580   4.776  0.00  0.00    -0.306 N 
ATOM     13  H   UNL     1       1.737  -5.123   5.022  0.00  0.00    +0.170 HD
ENDROOT
BRANCH   1  14
ATOM     14  C   UNL     1       1.684  -3.245  -0.023  0.00  0.00    +0.177 C 
ATOM     15 CL   UNL     1      -0.064  -3.493   0.341  0.00  0.00    -0.108 Cl
BRANCH  14  20
ATOM     16  C   UNL     1       2.691  -7.848  -1.822  0.00  0.00    +0.086 C 
ATOM     17  C   UNL     1       2.607  -6.348  -1.712  0.00  0.00    +0.102 A 
ATOM     18  C   UNL     1       3.059  -5.466  -2.623  0.00  0.00    +0.045 A 
ATOM     19  C   UNL     1       2.777  -4.176  -2.118  0.00  0.00    +0.047 A 
ATOM     20  C   UNL     1       2.169  -4.346  -0.930  0.00  0.00    +0.127 A 
ATOM     21  O   UNL     1       2.064  -5.663  -0.692  0.00  0.00    -0.463 OA
ENDBRANCH  14  20
ENDBRANCH   1  14
TORSDOF 2
