REMARK  Name = ZINC63270171
REMARK  7 active torsions:
REMARK  status: ('A' for Active; 'I' for Inactive)
REMARK    1  A    between atoms: C_1  and  C_2
REMARK    2  A    between atoms: C_3  and  O_30
REMARK    3  A    between atoms: C_11  and  C_16
REMARK    4  A    between atoms: C_13  and  C_15
REMARK    5  A    between atoms: C_16  and  C_17
REMARK    6  A    between atoms: C_17  and  C_18
REMARK    7  A    between atoms: O_30  and  C_31
REMARK                            x       y       z     vdW  Elec       q    Type
REMARK                         _______ _______ _______ _____ _____    ______ ____
ROOT
ATOM      1  C   UNL     1      -0.018   1.503   0.010  0.00  0.00    +0.051 C 
ATOM      2  C   UNL     1       0.002  -0.004   0.002  0.00  0.00    +0.034 A 
ATOM      3  C   UNL     1       0.006  -0.688  -1.202  0.00  0.00    +0.126 A 
ATOM      4  C   UNL     1       0.024  -2.076  -1.207  0.00  0.00    +0.046 A 
ATOM      5  C   UNL     1       0.035  -2.768  -0.013  0.00  0.00    +0.011 A 
ATOM      6  C   UNL     1       0.029  -2.088   1.195  0.00  0.00    -0.001 A 
ATOM      7  C   UNL     1       0.023  -0.704   1.203  0.00  0.00    +0.141 A 
ATOM      8  O   UNL     1       0.043   0.007   2.363  0.00  0.00    -0.425 OA
ATOM      9  C   UNL     1      -0.146  -0.671   3.513  0.00  0.00    +0.316 C 
ATOM     10  O   UNL     1      -0.826  -0.225   4.407  0.00  0.00    -0.250 OA
ATOM     11  C   UNL     1       0.534  -2.020   3.631  0.00  0.00    +0.106 C 
ATOM     12  C   UNL     1       0.029  -2.891   2.471  0.00  0.00    +0.033 C 
ATOM     13  C   UNL     1      -1.390  -3.381   2.763  0.00  0.00    +0.013 C 
ENDROOT
BRANCH   3  14
ATOM     14  O   UNL     1      -0.009  -0.003  -2.376  0.00  0.00    -0.495 OA
ATOM     15  C   UNL     1      -0.004  -0.775  -3.578  0.00  0.00    +0.277 C 
ENDBRANCH   3  14
BRANCH  11  16
ATOM     16  C   UNL     1       2.052  -1.846   3.542  0.00  0.00    +0.024 C 
BRANCH  16  17
ATOM     17  C   UNL     1       2.544  -1.042   4.747  0.00  0.00    +0.097 C 
BRANCH  17  18
ATOM     18  C   UNL     1       4.039  -0.871   4.660  0.00  0.00    +0.216 C 
ATOM     19  O   UNL     1       4.650  -1.344   3.726  0.00  0.00    -0.276 OA
ATOM     20  N   UNL     1       4.696  -0.191   5.620  0.00  0.00    -0.295 N 
ATOM     21  C   UNL     1       6.153  -0.007   5.551  0.00  0.00    +0.114 C 
ATOM     22  C   UNL     1       6.466   1.487   5.399  0.00  0.00    +0.074 C 
ATOM     23  C   UNL     1       5.621   2.264   6.378  0.00  0.00    +0.039 A 
ATOM     24  H   UNL     1       3.237   2.716   8.343  0.00  0.00    +0.166 HD
ATOM     25  C   UNL     1       4.514   1.779   6.981  0.00  0.00    +0.054 A 
ATOM     26  N   UNL     1       4.028   2.765   7.783  0.00  0.00    -0.348 N 
ATOM     27  C   UNL     1       4.856   3.827   7.649  0.00  0.00    +0.171 A 
ATOM     28  N   UNL     1       5.806   3.516   6.806  0.00  0.00    -0.349 N 
ATOM     29  C   UNL     1       3.972   0.393   6.764  0.00  0.00    +0.162 C 
ATOM     30  H   UNL     1       6.530   4.101   6.536  0.00  0.00    +0.166 HD
ENDBRANCH  17  18
ENDBRANCH  16  17
ENDBRANCH  11  16
TORSDOF 4
