REMARK  Name = ZINC24357011
REMARK  8 active torsions:
REMARK  status: ('A' for Active; 'I' for Inactive)
REMARK    1  A    between atoms: C_1  and  C_2
REMARK    2  A    between atoms: C_2  and  C_3
REMARK    3  A    between atoms: C_2  and  C_4
REMARK    4  A    between atoms: C_7  and  C_13
REMARK    5  A    between atoms: C_9  and  N_10
REMARK    6  A    between atoms: C_14  and  C_15
REMARK    7  A    between atoms: C_18  and  C_20
REMARK    8  A    between atoms: N_22  and  C_23
REMARK                            x       y       z     vdW  Elec       q    Type
REMARK                         _______ _______ _______ _____ _____    ______ ____
ROOT
ATOM      1  C   UNL     1       2.955   5.921  -1.515  0.00  0.00    +0.144 A 
ATOM      2  N   UNL     1       2.069   6.908  -1.693  0.00  0.00    -0.140 NA
ATOM      3  N   UNL     1       2.427   8.058  -2.067  0.00  0.00    -0.136 NA
ATOM      4  C   UNL     1       3.704   8.354  -2.304  0.00  0.00    +0.187 A 
ATOM      5  S   UNL     1       4.470   6.778  -1.935  0.00  0.00    -0.040 S 
ENDROOT
BRANCH   4   6
ATOM      6  C   UNL     1       4.314   9.619  -2.741  0.00  0.00    +0.275 C 
ATOM      7  O   UNL     1       5.517   9.690  -2.904  0.00  0.00    -0.268 OA
ATOM      8  N   UNL     1       3.539  10.700  -2.959  0.00  0.00    -0.280 N 
ATOM      9  H   UNL     1       2.465  10.663  -2.726  0.00  0.00    +0.155 HD
BRANCH   8  10
ATOM     10  C   UNL     1       4.101  11.870  -3.482  0.00  0.00    +0.034 A 
ATOM     11  C   UNL     1       3.613  13.110  -3.094  0.00  0.00    +0.026 A 
ATOM     12  C   UNL     1       4.173  14.264  -3.607  0.00  0.00    +0.040 A 
ATOM     13  C   UNL     1       5.214  14.183  -4.517  0.00  0.00    +0.124 A 
ATOM     14  C   UNL     1       5.699  12.947  -4.910  0.00  0.00    +0.040 A 
ATOM     15  C   UNL     1       5.145  11.791  -4.395  0.00  0.00    +0.026 A 
ATOM     16  F   UNL     1       5.758  15.312  -5.022  0.00  0.00    -0.205 F 
ENDBRANCH   8  10
ENDBRANCH   4   6
BRANCH   1  18
ATOM     17  C   UNL     1       1.502   4.093  -0.815  0.00  0.00    +0.030 C 
ATOM     18  C   UNL     1       2.746   4.534  -1.090  0.00  0.00    +0.075 C 
ATOM     19 CL   UNL     1       4.101   3.458  -0.941  0.00  0.00    -0.081 Cl
BRANCH  17  23
ATOM     20  C   UNL     1       0.832  -0.024  -0.041  0.00  0.00    -0.015 A 
ATOM     21  C   UNL     1       1.831   0.358  -0.919  0.00  0.00    +0.007 A 
ATOM     22  C   UNL     1       2.055   1.694  -1.176  0.00  0.00    +0.008 A 
ATOM     23  C   UNL     1       1.270   2.665  -0.546  0.00  0.00    -0.021 A 
ATOM     24  C   UNL     1       0.262   2.271   0.340  0.00  0.00    +0.041 A 
ATOM     25  C   UNL     1       0.050   0.931   0.586  0.00  0.00    +0.130 A 
BRANCH  20  27
ATOM     26  C   UNL     1       0.443  -2.236  -1.090  0.00  0.00    +0.012 C 
ATOM     27  C   UNL     1       0.594  -1.486   0.235  0.00  0.00    +0.015 C 
ATOM     28  C   UNL     1       1.781  -2.058   1.012  0.00  0.00    +0.012 C 
ENDBRANCH  20  27
BRANCH  25  29
ATOM     29  N   UNL     1      -1.016   0.512   1.524  0.00  0.00    +0.057 N 
ATOM     30  O   UNL     1      -1.606   1.346   2.187  0.00  0.00    -0.126 OA
ATOM     31  O   UNL     1      -1.303  -0.667   1.633  0.00  0.00    -0.126 OA
ENDBRANCH  25  29
ENDBRANCH  17  23
ENDBRANCH   1  18
TORSDOF 6
