REMARK  Name = ZINC39252134
REMARK  7 active torsions:
REMARK  status: ('A' for Active; 'I' for Inactive)
REMARK    1  A    between atoms: C_1  and  C_2
REMARK    2  A    between atoms: C_2  and  C_3
REMARK    3  A    between atoms: C_2  and  C_4
REMARK    4  A    between atoms: C_11  and  C_13
REMARK    5  A    between atoms: N_18  and  C_20
REMARK    6  A    between atoms: C_20  and  C_21
REMARK    7  A    between atoms: C_21  and  C_22
REMARK                            x       y       z     vdW  Elec       q    Type
REMARK                         _______ _______ _______ _____ _____    ______ ____
ROOT
ATOM      1  C   UNL     1       6.065  -4.149  -1.213  0.00  0.00    +0.101 C 
ATOM      2  C   UNL     1       6.746  -3.805   0.132  0.00  0.00    +0.110 C 
ATOM      3  C   UNL     1       7.611  -5.010   0.429  0.00  0.00    +0.216 C 
ATOM      4  O   UNL     1       8.515  -5.034   1.237  0.00  0.00    -0.276 OA
ATOM      5  N   UNL     1       7.232  -6.051  -0.333  0.00  0.00    -0.300 N 
ATOM      6  C   UNL     1       6.101  -5.694  -1.200  0.00  0.00    +0.121 C 
ENDROOT
BRANCH   1  13
ATOM      7  C   UNL     1       0.718  -0.497  -1.257  0.00  0.00    +0.156 C 
ATOM      8  N   UNL     1       0.743  -1.976  -1.318  0.00  0.00    -0.253 N 
ATOM      9  N   UNL     1       1.997  -2.544  -1.296  0.00  0.00    -0.163 NA
ATOM     10  C   UNL     1       3.091  -1.851  -1.226  0.00  0.00    +0.179 C 
ATOM     11  S   UNL     1       2.525  -0.157  -1.177  0.00  0.00    -0.065 S 
ATOM     12  N   UNL     1       4.402  -2.319  -1.198  0.00  0.00    -0.263 N 
ATOM     13  C   UNL     1       4.646  -3.643  -1.245  0.00  0.00    +0.224 C 
ATOM     14  O   UNL     1       3.724  -4.428  -1.312  0.00  0.00    -0.275 OA
ATOM     15  H   UNL     1      -0.067  -2.508  -1.371  0.00  0.00    +0.169 HD
ATOM     16  H   UNL     1       5.139  -1.691  -1.144  0.00  0.00    +0.157 HD
BRANCH   7  18
ATOM     17  C   UNL     1      -0.019   1.526   0.010  0.00  0.00    +0.010 C 
ATOM     18  C   UNL     1       0.002  -0.004   0.002  0.00  0.00    +0.015 C 
ATOM     19  C   UNL     1      -1.433  -0.534   0.013  0.00  0.00    +0.010 C 
ENDBRANCH   7  18
ENDBRANCH   1  13
BRANCH   5  20
ATOM     20  C   UNL     1       7.865  -7.371  -0.304  0.00  0.00    +0.112 C 
BRANCH  20  21
ATOM     21  C   UNL     1       7.166  -8.250   0.735  0.00  0.00    +0.056 C 
BRANCH  21  22
ATOM     22  C   UNL     1       7.818  -9.608   0.765  0.00  0.00    -0.021 A 
ATOM     23  C   UNL     1       9.007  -9.987   1.531  0.00  0.00    +0.004 A 
ATOM     24  C   UNL     1       9.858  -9.303   2.402  0.00  0.00    +0.030 A 
ATOM     25  C   UNL     1      10.920  -9.966   2.977  0.00  0.00    +0.042 A 
ATOM     26  C   UNL     1      11.147 -11.306   2.693  0.00  0.00    +0.022 A 
ATOM     27  C   UNL     1      10.317 -11.994   1.836  0.00  0.00    +0.027 A 
ATOM     28  C   UNL     1       9.238 -11.345   1.245  0.00  0.00    +0.047 A 
ATOM     29  N   UNL     1       8.255 -11.748   0.369  0.00  0.00    -0.360 N 
ATOM     30  C   UNL     1       7.415 -10.702   0.099  0.00  0.00    +0.087 A 
ATOM     31 CL   UNL     1      11.980  -9.121   4.061  0.00  0.00    -0.084 Cl
ATOM     32  H   UNL     1       8.168 -12.641   0.001  0.00  0.00    +0.165 HD
ENDBRANCH  21  22
ENDBRANCH  20  21
ENDBRANCH   5  20
TORSDOF 5
