REMARK  Name = ZINC44816392
REMARK  5 active torsions:
REMARK  status: ('A' for Active; 'I' for Inactive)
REMARK    1  A    between atoms: C_1  and  C_2
REMARK    2  A    between atoms: C_3  and  C_13
REMARK    3  A    between atoms: C_6  and  O_11
REMARK    4  A    between atoms: O_11  and  C_12
REMARK    5  A    between atoms: N_15  and  C_16
REMARK                            x       y       z     vdW  Elec       q    Type
REMARK                         _______ _______ _______ _____ _____    ______ ____
ROOT
ATOM      1  C   UNL     1      -2.510  -0.377   0.012  0.00  0.00    +0.252 C 
ATOM      2  O   UNL     1      -3.096  -0.190  -1.038  0.00  0.00    -0.270 OA
ATOM      3  N   UNL     1      -3.146  -0.180   1.184  0.00  0.00    -0.279 N 
ATOM      4  H   UNL     1      -2.700  -0.391   2.019  0.00  0.00    +0.155 HD
ENDROOT
BRANCH   1   7
ATOM      5  C   UNL     1      -0.006   1.476   0.006  0.00  0.00    +0.087 C 
ATOM      6  C   UNL     1       0.003  -0.031  -0.001  0.00  0.00    +0.115 A 
ATOM      7  C   UNL     1      -1.107  -0.819   0.002  0.00  0.00    +0.085 A 
ATOM      8  C   UNL     1      -0.610  -2.209  -0.007  0.00  0.00    +0.036 A 
ATOM      9  C   UNL     1      -1.223  -3.458  -0.010  0.00  0.00    +0.058 A 
ATOM     10  C   UNL     1      -0.444  -4.601  -0.019  0.00  0.00    +0.121 A 
ATOM     11  C   UNL     1       0.944  -4.499  -0.026  0.00  0.00    +0.049 A 
ATOM     12  C   UNL     1       1.556  -3.265  -0.024  0.00  0.00    +0.050 A 
ATOM     13  C   UNL     1       0.788  -2.107  -0.015  0.00  0.00    +0.136 A 
ATOM     14  O   UNL     1       1.102  -0.793  -0.016  0.00  0.00    -0.459 OA
BRANCH  10  15
ATOM     15  O   UNL     1      -1.034  -5.825  -0.021  0.00  0.00    -0.495 OA
ATOM     16  C   UNL     1      -0.170  -6.963  -0.031  0.00  0.00    +0.277 C 
ENDBRANCH  10  15
ENDBRANCH   1   7
BRANCH   3  17
ATOM     17  C   UNL     1      -4.450   0.330   1.195  0.00  0.00    +0.072 A 
ATOM     18  C   UNL     1      -5.339  -0.013   0.185  0.00  0.00    +0.029 A 
ATOM     19  C   UNL     1      -6.626   0.490   0.198  0.00  0.00    +0.043 A 
ATOM     20  C   UNL     1      -7.032   1.335   1.216  0.00  0.00    +0.161 A 
ATOM     21  C   UNL     1      -6.147   1.681   2.226  0.00  0.00    +0.195 A 
ATOM     22  C   UNL     1      -4.859   1.175   2.221  0.00  0.00    +0.182 A 
ATOM     23  F   UNL     1      -3.997   1.505   3.208  0.00  0.00    -0.200 F 
ATOM     24  F   UNL     1      -6.545   2.506   3.219  0.00  0.00    -0.199 F 
ATOM     25  F   UNL     1      -8.291   1.825   1.225  0.00  0.00    -0.202 F 
ENDBRANCH   3  17
TORSDOF 3
