REMARK  Name = ZINC61498710
REMARK  7 active torsions:
REMARK  status: ('A' for Active; 'I' for Inactive)
REMARK    1  A    between atoms: C_1  and  C_2
REMARK    2  A    between atoms: N_5  and  C_8
REMARK    3  A    between atoms: C_8  and  C_9
REMARK    4  A    between atoms: C_9  and  C_10
REMARK    5  A    between atoms: C_10  and  N_11
REMARK    6  A    between atoms: N_14  and  C_15
REMARK    7  A    between atoms: C_21  and  C_23
REMARK                            x       y       z     vdW  Elec       q    Type
REMARK                         _______ _______ _______ _____ _____    ______ ____
ROOT
ATOM      1  N   UNL     1       5.959  -4.769   3.911  0.00  0.00    -0.299 N 
ATOM      2  C   UNL     1       5.824  -6.093   3.695  0.00  0.00    +0.300 C 
ATOM      3  O   UNL     1       5.327  -6.492   2.660  0.00  0.00    -0.253 OA
ATOM      4  N   UNL     1       6.239  -6.973   4.627  0.00  0.00    -0.296 N 
ATOM      5  H   UNL     1       6.356  -4.450   4.737  0.00  0.00    +0.150 HD
ATOM      6  H   UNL     1       6.635  -6.654   5.453  0.00  0.00    +0.151 HD
ENDROOT
BRANCH   4   7
ATOM      7  C   UNL     1       6.092  -8.412   4.393  0.00  0.00    +0.077 C 
ATOM      8  C   UNL     1       7.289  -8.922   3.587  0.00  0.00    +0.041 C 
ATOM      9  C   UNL     1       7.114 -10.420   3.314  0.00  0.00    +0.109 C 
ATOM     10  N   UNL     1       6.909 -11.113   4.593  0.00  0.00    -0.301 N 
ATOM     11  C   UNL     1       5.841 -10.643   5.488  0.00  0.00    +0.109 C 
ATOM     12  C   UNL     1       6.030  -9.143   5.736  0.00  0.00    +0.041 C 
ATOM     13  C   UNL     1       7.684 -12.159   4.940  0.00  0.00    +0.219 C 
ATOM     14  O   UNL     1       7.558 -12.672   6.032  0.00  0.00    -0.275 OA
BRANCH  13  15
ATOM     15  C   UNL     1       8.709 -12.691   3.971  0.00  0.00    +0.075 C 
ATOM     16  C   UNL     1       8.028 -13.633   2.976  0.00  0.00    +0.013 C 
ATOM     17  C   UNL     1       9.068 -14.173   1.992  0.00  0.00    +0.001 C 
ATOM     18  C   UNL     1      10.148 -14.938   2.760  0.00  0.00    +0.000 C 
ATOM     19  C   UNL     1      10.829 -13.996   3.756  0.00  0.00    +0.001 C 
ATOM     20  C   UNL     1       9.789 -13.455   4.739  0.00  0.00    +0.013 C 
ENDBRANCH  13  15
ENDBRANCH   4   7
BRANCH   1  21
ATOM     21  C   UNL     1       5.508  -3.812   2.898  0.00  0.00    +0.104 C 
BRANCH  21  22
ATOM     22  C   UNL     1       5.775  -2.388   3.387  0.00  0.00    +0.000 C 
BRANCH  22  23
ATOM     23  C   UNL     1       5.303  -1.388   2.329  0.00  0.00    -0.077 C 
BRANCH  23  28
ATOM     24  C   UNL     1       5.153   4.075   3.959  0.00  0.00    +0.007 C 
ATOM     25  C   UNL     1       4.758   2.686   3.453  0.00  0.00    -0.018 C 
ATOM     26  C   UNL     1       5.559   2.354   2.191  0.00  0.00    -0.016 C 
ATOM     27  C   UNL     1       5.218   0.933   1.736  0.00  0.00    -0.079 C 
ATOM     28  N   UNL     1       5.559  -0.020   2.799  0.00  0.00    +0.380 N 
ATOM     29  C   UNL     1       4.743   0.248   3.989  0.00  0.00    -0.079 C 
ATOM     30  C   UNL     1       5.066   1.642   4.531  0.00  0.00    -0.016 C 
ATOM     31  H   UNL     1       6.536   0.075   3.034  0.00  0.00    -0.082 HD
ENDBRANCH  23  28
ENDBRANCH  22  23
ENDBRANCH  21  22
ENDBRANCH   1  21
TORSDOF 6
