REMARK  Name = ZINC28293538
REMARK  6 active torsions:
REMARK  status: ('A' for Active; 'I' for Inactive)
REMARK    1  A    between atoms: C_1  and  C_2
REMARK    2  A    between atoms: C_2  and  N_3
REMARK    3  A    between atoms: N_6  and  C_9
REMARK    4  A    between atoms: C_9  and  C_15
REMARK    5  A    between atoms: C_15  and  N_16
REMARK    6  A    between atoms: C_17  and  C_19
REMARK                            x       y       z     vdW  Elec       q    Type
REMARK                         _______ _______ _______ _____ _____    ______ ____
ROOT
ATOM      1  C   UNL     1      -0.729   1.579   1.267  0.00  0.00    -0.050 C 
ATOM      2  C   UNL     1      -0.013   1.086   0.008  0.00  0.00    -0.010 C 
ATOM      3  C   UNL     1      -0.753   1.593  -1.232  0.00  0.00    -0.001 C 
ATOM      4  C   UNL     1      -2.188   1.063  -1.221  0.00  0.00    -0.000 C 
ATOM      5  C   UNL     1      -2.904   1.556   0.038  0.00  0.00    -0.001 C 
ATOM      6  C   UNL     1      -2.164   1.050   1.278  0.00  0.00    -0.010 C 
ENDROOT
BRANCH   1  10
ATOM      7  N   UNL     1       0.252  -0.376   4.881  0.00  0.00    -0.306 NA
ATOM      8  C   UNL     1       0.134   1.089   4.900  0.00  0.00    +0.066 C 
ATOM      9  C   UNL     1      -0.679   1.548   3.688  0.00  0.00    -0.062 C 
ATOM     10  N   UNL     1      -0.018   1.093   2.457  0.00  0.00    +0.386 N 
ATOM     11  C   UNL     1       0.100  -0.372   2.437  0.00  0.00    -0.062 C 
ATOM     12  C   UNL     1       0.913  -0.832   3.650  0.00  0.00    +0.066 C 
ATOM     13  H   UNL     1       0.997   1.516   2.440  0.00  0.00    -0.081 HD
BRANCH   7  15
ATOM     14  C   UNL     1       0.851  -2.387   6.144  0.00  0.00    +0.020 C 
ATOM     15  C   UNL     1       0.963  -0.863   6.071  0.00  0.00    +0.081 C 
ENDBRANCH   7  15
ENDBRANCH   1  10
BRANCH   1  16
ATOM     16  C   UNL     1      -0.750   3.109   1.275  0.00  0.00    +0.092 C 
BRANCH  16  17
ATOM     17  N   UNL     1       0.625   3.616   1.265  0.00  0.00    -0.310 N 
ATOM     18  C   UNL     1       0.853   4.944   1.270  0.00  0.00    +0.279 C 
ATOM     19  O   UNL     1      -0.083   5.723   1.283  0.00  0.00    -0.267 OA
ATOM     20  H   UNL     1       1.470   2.913   1.253  0.00  0.00    +0.149 HD
BRANCH  18  21
ATOM     21  C   UNL     1       2.228   5.452   1.259  0.00  0.00    +0.191 A 
ATOM     22  C   UNL     1       2.598   6.766   1.257  0.00  0.00    +0.056 A 
ATOM     23  C   UNL     1       4.001   6.791   1.249  0.00  0.00    +0.058 A 
ATOM     24  C   UNL     1       4.422   5.505   1.238  0.00  0.00    +0.171 A 
ATOM     25  O   UNL     1       3.350   4.702   1.244  0.00  0.00    -0.444 OA
ATOM     26 BR   UNL     1       6.225   4.936   1.218  0.00  0.00    -0.008 Br
ENDBRANCH  18  21
ENDBRANCH  16  17
ENDBRANCH   1  16
TORSDOF 5
