REMARK  Name = ZINC01760624
REMARK  4 active torsions:
REMARK  status: ('A' for Active; 'I' for Inactive)
REMARK    1  A    between atoms: C_5  and  O_9
REMARK    2  A    between atoms: O_9  and  C_10
REMARK    3  A    between atoms: C_10  and  C_12
REMARK    4  A    between atoms: C_15  and  N_18
REMARK                            x       y       z     vdW  Elec       q    Type
REMARK                         _______ _______ _______ _____ _____    ______ ____
ROOT
ATOM      1  C   UNL     1       0.002  -0.004   0.002  0.00  0.00    +0.345 C 
ATOM      2  O   UNL     1       1.062  -0.597  -0.011  0.00  0.00    -0.245 OA
ENDROOT
BRANCH   1   3
ATOM      3  C   UNL     1      -1.267  -0.760   0.010  0.00  0.00    +0.060 A 
ATOM      4  C   UNL     1      -2.487  -0.082   0.031  0.00  0.00    +0.017 A 
ATOM      5  C   UNL     1      -3.669  -0.794   0.033  0.00  0.00    +0.033 A 
ATOM      6  C   UNL     1      -3.646  -2.177   0.025  0.00  0.00    +0.126 A 
ATOM      7  C   UNL     1      -2.440  -2.856   0.010  0.00  0.00    +0.033 A 
ATOM      8  C   UNL     1      -1.252  -2.156   0.002  0.00  0.00    +0.017 A 
BRANCH   6   9
ATOM      9  N   UNL     1      -4.918  -2.935   0.034  0.00  0.00    +0.056 N 
ATOM     10  O   UNL     1      -4.901  -4.152   0.026  0.00  0.00    -0.126 OA
ATOM     11  O   UNL     1      -5.981  -2.340   0.047  0.00  0.00    -0.126 OA
ENDBRANCH   6   9
ENDBRANCH   1   3
BRANCH   1  12
ATOM     12  O   UNL     1      -0.016   1.343   0.009  0.00  0.00    -0.417 OA
BRANCH  12  17
ATOM     13  C   UNL     1       3.882   3.405  -0.718  0.00  0.00    +0.004 A 
ATOM     14  C   UNL     1       3.882   3.390   0.676  0.00  0.00    +0.001 A 
ATOM     15  C   UNL     1       2.934   2.883   1.539  0.00  0.00    +0.018 A 
ATOM     16  C   UNL     1       1.727   2.255   1.242  0.00  0.00    +0.060 A 
ATOM     17  C   UNL     1       1.183   1.975   0.001  0.00  0.00    +0.191 A 
ATOM     18  C   UNL     1       1.718   2.271  -1.277  0.00  0.00    +0.222 A 
ATOM     19  O   UNL     1       1.040   1.923  -2.234  0.00  0.00    -0.284 OA
ATOM     20  C   UNL     1       2.932   2.913  -1.584  0.00  0.00    +0.055 A 
ATOM     21  I   UNL     1       0.588   1.646   2.891  0.00  0.00    -0.040 I 
ENDBRANCH  12  17
ENDBRANCH   1  12
TORSDOF 4
