REMARK  Name = ZINC23362213
REMARK  9 active torsions:
REMARK  status: ('A' for Active; 'I' for Inactive)
REMARK    1  A    between atoms: C_1  and  C_2
REMARK    2  A    between atoms: C_2  and  C_3
REMARK    3  A    between atoms: C_2  and  N_4
REMARK    4  A    between atoms: N_7  and  C_10
REMARK    5  A    between atoms: N_21  and  C_24
REMARK    6  A    between atoms: C_24  and  C_25
REMARK    7  A    between atoms: C_25  and  C_26
REMARK    8  A    between atoms: C_29  and  O_32
REMARK    9  A    between atoms: O_32  and  C_33
REMARK                            x       y       z     vdW  Elec       q    Type
REMARK                         _______ _______ _______ _____ _____    ______ ____
ROOT
ATOM      1  C   UNL     1      -4.889  -2.542  -1.176  0.00  0.00    +0.062 C 
ATOM      2  C   UNL     1      -4.842  -4.069  -1.272  0.00  0.00    +0.024 C 
ATOM      3  C   UNL     1      -6.241  -4.614  -1.561  0.00  0.00    +0.038 C 
ATOM      4  C   UNL     1      -7.213  -4.054  -0.526  0.00  0.00    -0.023 A 
ATOM      5  C   UNL     1      -6.892  -2.954   0.194  0.00  0.00    -0.003 A 
ATOM      6  S   UNL     1      -8.287  -2.668   1.253  0.00  0.00    -0.073 S 
ATOM      7  C   UNL     1      -9.294  -4.020   0.730  0.00  0.00    +0.116 A 
ATOM      8  C   UNL     1      -8.508  -4.653  -0.257  0.00  0.00    +0.076 A 
ATOM      9  C   UNL     1      -9.066  -5.816  -0.889  0.00  0.00    +0.262 A 
ATOM     10  O   UNL     1      -8.468  -6.434  -1.752  0.00  0.00    -0.267 OA
ATOM     11  N   UNL     1     -10.298  -6.181  -0.463  0.00  0.00    -0.298 N 
ATOM     12  C   UNL     1     -10.979  -5.507   0.495  0.00  0.00    +0.203 A 
ATOM     13  N   UNL     1     -10.502  -4.439   1.096  0.00  0.00    -0.230 NA
ATOM     14  C   UNL     1      -5.630  -2.150   0.111  0.00  0.00    +0.061 C 
ENDROOT
BRANCH   1  18
ATOM     15  N   UNL     1      -1.376  -0.512   0.012  0.00  0.00    +0.383 N 
ATOM     16  C   UNL     1      -2.087  -0.024  -1.177  0.00  0.00    -0.063 C 
ATOM     17  C   UNL     1      -3.528  -0.538  -1.157  0.00  0.00    +0.066 C 
ATOM     18  N   UNL     1      -3.521  -2.008  -1.138  0.00  0.00    -0.303 NA
ATOM     19  C   UNL     1      -2.791  -2.511   0.034  0.00  0.00    +0.066 C 
ATOM     20  C   UNL     1      -1.356  -1.981   0.004  0.00  0.00    -0.063 C 
ATOM     21  H   UNL     1      -1.848  -0.187   0.843  0.00  0.00    -0.081 HD
BRANCH  15  23
ATOM     22  C   UNL     1      -0.019   1.526   0.010  0.00  0.00    -0.014 C 
ATOM     23  C   UNL     1       0.002  -0.004   0.002  0.00  0.00    -0.075 C 
ATOM     24  C   UNL     1       0.742  -0.511   1.242  0.00  0.00    -0.014 C 
ENDBRANCH  15  23
ENDBRANCH   1  18
BRANCH  11  25
ATOM     25  C   UNL     1     -10.925  -7.359  -1.066  0.00  0.00    +0.131 C 
BRANCH  25  26
ATOM     26  C   UNL     1     -10.545  -8.606  -0.264  0.00  0.00    +0.057 C 
BRANCH  26  27
ATOM     27  C   UNL     1     -11.190  -9.818  -0.885  0.00  0.00    -0.045 A 
ATOM     28  C   UNL     1     -12.450 -10.215  -0.477  0.00  0.00    +0.007 A 
ATOM     29  C   UNL     1     -13.043 -11.326  -1.044  0.00  0.00    +0.046 A 
ATOM     30  C   UNL     1     -12.373 -12.044  -2.024  0.00  0.00    +0.120 A 
ATOM     31  C   UNL     1     -11.109 -11.644  -2.432  0.00  0.00    +0.046 A 
ATOM     32  C   UNL     1     -10.523 -10.529  -1.865  0.00  0.00    +0.007 A 
BRANCH  30  33
ATOM     33  O   UNL     1     -12.954 -13.138  -2.584  0.00  0.00    -0.495 OA
ATOM     34  C   UNL     1     -12.206 -13.828  -3.587  0.00  0.00    +0.277 C 
ENDBRANCH  30  33
ENDBRANCH  26  27
ENDBRANCH  25  26
ENDBRANCH  11  25
TORSDOF 6
