REMARK  Name = ZINC21333845
REMARK  9 active torsions:
REMARK  status: ('A' for Active; 'I' for Inactive)
REMARK    1  A    between atoms: C_1  and  C_2
REMARK    2  A    between atoms: C_2  and  C_4
REMARK    3  A    between atoms: C_2  and  O_29
REMARK    4  A    between atoms: C_4  and  N_5
REMARK    5  A    between atoms: N_14  and  C_15
REMARK    6  A    between atoms: C_15  and  C_16
REMARK    7  A    between atoms: N_18  and  C_19
REMARK    8  A    between atoms: C_19  and  C_21
REMARK    9  A    between atoms: C_19  and  C_22
REMARK                            x       y       z     vdW  Elec       q    Type
REMARK                         _______ _______ _______ _____ _____    ______ ____
ROOT
ATOM      1  N   UNL     1       1.627  -1.751  -0.022  0.00  0.00    -0.314 N 
ATOM      2  C   UNL     1       1.242  -0.427  -0.012  0.00  0.00    +0.175 A 
ATOM      3  N   UNL     1       0.002  -0.004   0.002  0.00  0.00    -0.327 N 
ATOM      4  C   UNL     1      -0.016   1.355   0.009  0.00  0.00    +0.065 A 
ATOM      5  C   UNL     1      -1.044   2.301   0.029  0.00  0.00    +0.028 A 
ATOM      6  C   UNL     1      -0.738   3.643   0.028  0.00  0.00    +0.002 A 
ATOM      7  C   UNL     1       0.584   4.064   0.018  0.00  0.00    +0.002 A 
ATOM      8  C   UNL     1       1.610   3.142   0.004  0.00  0.00    +0.028 A 
ATOM      9  C   UNL     1       1.320   1.786  -0.001  0.00  0.00    +0.068 A 
ATOM     10  N   UNL     1       2.095   0.638  -0.015  0.00  0.00    -0.305 N 
ATOM     11  H   UNL     1       2.695  -2.013  -0.034  0.00  0.00    +0.149 HD
ATOM     12  H   UNL     1      -0.826  -0.728   0.006  0.00  0.00    +0.169 HD
ENDROOT
BRANCH   1  13
ATOM     13  C   UNL     1       0.613  -2.809  -0.018  0.00  0.00    +0.135 C 
BRANCH  13  15
ATOM     14  C   UNL     1       0.247  -5.277  -0.153  0.00  0.00    +0.039 C 
ATOM     15  C   UNL     1       1.302  -4.175  -0.032  0.00  0.00    +0.128 C 
BRANCH  15  16
ATOM     16  O   UNL     1       2.036  -4.350   1.181  0.00  0.00    -0.391 OA
ATOM     17  H   UNL     1       2.842  -3.649   1.443  0.00  0.00    +0.210 HD
ENDBRANCH  15  16
ENDBRANCH  13  15
ENDBRANCH   1  13
BRANCH  10  18
ATOM     18  C   UNL     1       3.559   0.579  -0.028  0.00  0.00    +0.220 C 
BRANCH  18  19
ATOM     19  C   UNL     1       4.048   0.566  -1.454  0.00  0.00    +0.233 C 
ATOM     20  O   UNL     1       3.252   0.603  -2.368  0.00  0.00    -0.274 OA
ATOM     21  N   UNL     1       5.370   0.513  -1.713  0.00  0.00    -0.307 N 
ATOM     22  H   UNL     1       6.092   0.480  -0.883  0.00  0.00    +0.149 HD
BRANCH  21  23
ATOM     23  C   UNL     1       5.845   0.501  -3.098  0.00  0.00    +0.100 C 
ATOM     24  C   UNL     1       5.950   1.938  -3.614  0.00  0.00    +0.033 C 
BRANCH  23  25
ATOM     25  C   UNL     1       7.200  -0.155  -3.159  0.00  0.00    -0.027 A 
ATOM     26  C   UNL     1       8.135   0.100  -2.173  0.00  0.00    +0.008 A 
ATOM     27  C   UNL     1       9.377  -0.506  -2.225  0.00  0.00    +0.038 A 
ATOM     28  C   UNL     1       9.688  -1.358  -3.270  0.00  0.00    +0.123 A 
ATOM     29  C   UNL     1       8.752  -1.608  -4.260  0.00  0.00    +0.038 A 
ATOM     30  C   UNL     1       7.509  -1.006  -4.203  0.00  0.00    +0.008 A 
ATOM     31  F   UNL     1      10.903  -1.946  -3.325  0.00  0.00    -0.205 F 
ENDBRANCH  23  25
ENDBRANCH  21  23
ENDBRANCH  18  19
ENDBRANCH  10  18
TORSDOF 7
