REMARK  Name = ZINC01011831
REMARK  6 active torsions:
REMARK  status: ('A' for Active; 'I' for Inactive)
REMARK    1  A    between atoms: C_1  and  O_2
REMARK    2  A    between atoms: O_2  and  C_3
REMARK    3  A    between atoms: C_5  and  O_25
REMARK    4  A    between atoms: C_8  and  C_9
REMARK    5  A    between atoms: N_13  and  C_17
REMARK    6  A    between atoms: O_25  and  C_26
REMARK                            x       y       z     vdW  Elec       q    Type
REMARK                         _______ _______ _______ _____ _____    ______ ____
ROOT
ATOM      1  C   UNL     1      -1.042   5.018   0.206  0.00  0.00    +0.032 C 
ATOM      2  C   UNL     1      -0.542   3.786   0.483  0.00  0.00    +0.080 C 
ATOM      3  C   UNL     1       0.859   3.355   0.643  0.00  0.00    +0.265 C 
ATOM      4  O   UNL     1       1.785   4.137   0.531  0.00  0.00    -0.269 OA
ATOM      5  N   UNL     1       1.059   2.076   0.915  0.00  0.00    -0.197 N 
ATOM      6  C   UNL     1       0.030   1.213   1.040  0.00  0.00    +0.290 C 
ATOM      7  O   UNL     1       0.069   0.022   1.285  0.00  0.00    -0.262 OA
ATOM      8  S   UNL     1      -1.400   2.241   0.749  0.00  0.00    -0.025 S 
ENDROOT
BRANCH   1  14
ATOM      9  C   UNL     1      -3.051   6.389  -0.324  0.00  0.00    +0.131 A 
ATOM     10  C   UNL     1      -4.415   6.606  -0.239  0.00  0.00    +0.093 A 
ATOM     11  C   UNL     1      -5.218   5.720   0.465  0.00  0.00    +0.137 A 
ATOM     12  C   UNL     1      -4.660   4.605   1.084  0.00  0.00    +0.060 A 
ATOM     13  C   UNL     1      -3.305   4.373   1.003  0.00  0.00    +0.030 A 
ATOM     14  C   UNL     1      -2.485   5.261   0.295  0.00  0.00    +0.019 A 
ATOM     15 BR   UNL     1      -5.766   3.406   2.040  0.00  0.00    -0.046 Br
BRANCH   9  17
ATOM     16  C   UNL     1      -2.910   8.382  -1.610  0.00  0.00    +0.277 C 
ATOM     17  O   UNL     1      -2.264   7.258  -1.007  0.00  0.00    -0.494 OA
ENDBRANCH   9  17
BRANCH  11  18
ATOM     18  O   UNL     1      -6.555   5.941   0.549  0.00  0.00    -0.494 OA
ATOM     19  C   UNL     1      -7.064   7.103  -0.109  0.00  0.00    +0.277 C 
ENDBRANCH  11  18
ENDBRANCH   1  14
BRANCH   5  20
ATOM     20  C   UNL     1       2.371   1.607   1.078  0.00  0.00    +0.045 A 
ATOM     21  C   UNL     1       3.225   1.540  -0.014  0.00  0.00    +0.025 A 
ATOM     22  C   UNL     1       4.519   1.084   0.149  0.00  0.00    +0.022 A 
ATOM     23  C   UNL     1       4.959   0.683   1.398  0.00  0.00    +0.041 A 
ATOM     24  C   UNL     1       4.107   0.743   2.487  0.00  0.00    +0.022 A 
ATOM     25  C   UNL     1       2.815   1.204   2.330  0.00  0.00    +0.025 A 
ATOM     26 CL   UNL     1       6.583   0.104   1.600  0.00  0.00    -0.084 Cl
ENDBRANCH   5  20
TORSDOF 4
