REMARK  Name = ZINC40038294
REMARK  6 active torsions:
REMARK  status: ('A' for Active; 'I' for Inactive)
REMARK    1  A    between atoms: C_1  and  C_2
REMARK    2  A    between atoms: C_10  and  C_11
REMARK    3  A    between atoms: N_13  and  C_14
REMARK    4  A    between atoms: C_15  and  C_22
REMARK    5  A    between atoms: N_24  and  C_25
REMARK    6  A    between atoms: C_25  and  C_26
REMARK                            x       y       z     vdW  Elec       q    Type
REMARK                         _______ _______ _______ _____ _____    ______ ____
ROOT
ATOM      1  C   UNL     1       0.060  -0.873   4.799  0.00  0.00    +0.085 A 
ATOM      2  C   UNL     1       0.088  -1.655   5.939  0.00  0.00    +0.069 A 
ATOM      3  C   UNL     1       0.089  -0.963   7.226  0.00  0.00    -0.023 A 
ATOM      4  C   UNL     1       0.061   0.379   7.128  0.00  0.00    -0.004 A 
ATOM      5  S   UNL     1       0.045   0.699   5.382  0.00  0.00    -0.077 S 
ATOM      6  C   UNL     1       0.059   1.040   8.479  0.00  0.00    +0.043 C 
ATOM      7  C   UNL     1      -0.343  -0.081   9.462  0.00  0.00    +0.010 C 
ATOM      8  C   UNL     1       0.117  -1.343   8.705  0.00  0.00    +0.037 C 
ENDROOT
BRANCH   1  11
ATOM      9  C   UNL     1       0.031  -0.383   2.483  0.00  0.00    +0.284 C 
ATOM     10  O   UNL     1       0.017   0.805   2.745  0.00  0.00    -0.266 OA
ATOM     11  N   UNL     1       0.054  -1.292   3.478  0.00  0.00    -0.273 N 
ATOM     12  H   UNL     1       0.065  -2.239   3.270  0.00  0.00    +0.156 HD
BRANCH   9  22
ATOM     13  C   UNL     1      -0.018   1.503   0.010  0.00  0.00    +0.048 C 
ATOM     14  C   UNL     1       0.002  -0.004   0.002  0.00  0.00    +0.008 A 
ATOM     15  C   UNL     1       0.009  -0.877  -1.171  0.00  0.00    +0.027 A 
ATOM     16  C   UNL     1      -0.001  -0.653  -2.551  0.00  0.00    +0.050 A 
ATOM     17  C   UNL     1       0.009  -1.727  -3.414  0.00  0.00    +0.124 A 
ATOM     18  C   UNL     1       0.030  -3.025  -2.917  0.00  0.00    +0.042 A 
ATOM     19  C   UNL     1       0.040  -3.259  -1.559  0.00  0.00    +0.050 A 
ATOM     20  C   UNL     1       0.029  -2.191  -0.669  0.00  0.00    +0.136 A 
ATOM     21  O   UNL     1       0.035  -2.113   0.676  0.00  0.00    -0.450 OA
ATOM     22  C   UNL     1       0.024  -0.827   1.083  0.00  0.00    +0.194 A 
ATOM     23  F   UNL     1      -0.001  -1.517  -4.749  0.00  0.00    -0.205 F 
ENDBRANCH   9  22
ENDBRANCH   1  11
BRANCH   2  24
ATOM     24  C   UNL     1       0.114  -3.119   5.860  0.00  0.00    +0.247 C 
ATOM     25  O   UNL     1       1.179  -3.707   5.815  0.00  0.00    -0.270 OA
ATOM     26  N   UNL     1      -1.040  -3.813   5.836  0.00  0.00    -0.304 N 
ATOM     27  H   UNL     1      -1.889  -3.345   5.871  0.00  0.00    +0.149 HD
BRANCH  26  28
ATOM     28  C   UNL     1      -1.014  -5.276   5.757  0.00  0.00    +0.179 C 
BRANCH  28  29
ATOM     29  C   UNL     1      -2.426  -5.804   5.745  0.00  0.00    +0.122 A 
ATOM     30  C   UNL     1      -3.174  -6.026   4.649  0.00  0.00    +0.046 A 
ATOM     31  C   UNL     1      -4.421  -6.517   5.098  0.00  0.00    +0.041 A 
ATOM     32  C   UNL     1      -4.361  -6.565   6.441  0.00  0.00    +0.195 A 
ATOM     33  O   UNL     1      -3.148  -6.138   6.827  0.00  0.00    -0.466 OA
ENDBRANCH  28  29
ENDBRANCH  26  28
ENDBRANCH   2  24
TORSDOF 5
