REMARK  Name = ZINC07897328
REMARK  4 active torsions:
REMARK  status: ('A' for Active; 'I' for Inactive)
REMARK    1  A    between atoms: C_5  and  C_6
REMARK    2  A    between atoms: C_9  and  C_11
REMARK    3  A    between atoms: C_11  and  S_12
REMARK    4  A    between atoms: S_12  and  C_13
REMARK                            x       y       z     vdW  Elec       q    Type
REMARK                         _______ _______ _______ _____ _____    ______ ____
ROOT
ATOM      1  C   UNL     1      -1.127  -0.946   0.008  0.00  0.00    +0.255 A 
ATOM      2  N   UNL     1      -2.404  -0.634   0.017  0.00  0.00    -0.107 NA
ATOM      3  N   UNL     1      -3.104  -1.714   0.020  0.00  0.00    -0.111 NA
ATOM      4  C   UNL     1      -2.312  -2.748   0.014  0.00  0.00    +0.228 A 
ATOM      5  O   UNL     1      -1.046  -2.293   0.000  0.00  0.00    -0.419 OA
ENDROOT
BRANCH   1  10
ATOM      6  C   UNL     1      -0.017   1.378   0.010  0.00  0.00    +0.022 A 
ATOM      7  C   UNL     1       1.184   2.049   0.002  0.00  0.00    +0.024 A 
ATOM      8  C   UNL     1       2.343   1.338  -0.013  0.00  0.00    +0.056 A 
ATOM      9  S   UNL     1       1.754  -0.347  -0.017  0.00  0.00    -0.077 S 
ATOM     10  C   UNL     1       0.002  -0.004   0.002  0.00  0.00    +0.077 A 
ATOM     11 BR   UNL     1       4.124   1.973  -0.027  0.00  0.00    -0.043 Br
ENDBRANCH   1  10
BRANCH   4  12
ATOM     12  C   UNL     1      -2.737  -4.194   0.015  0.00  0.00    +0.175 C 
BRANCH  12  13
ATOM     13  S   UNL     1      -2.918  -4.772  -1.695  0.00  0.00    -0.075 S 
BRANCH  13  14
ATOM     14  C   UNL     1      -3.412  -6.455  -1.526  0.00  0.00    +0.210 A 
ATOM     15  N   UNL     1      -3.661  -7.298  -2.535  0.00  0.00    -0.188 NA
ATOM     16  C   UNL     1      -4.005  -8.473  -2.055  0.00  0.00    +0.209 A 
ATOM     17  N   UNL     1      -3.981  -8.397  -0.708  0.00  0.00    -0.246 N 
ATOM     18  H   UNL     1      -4.188  -9.109  -0.083  0.00  0.00    +0.192 HD
ATOM     19  N   UNL     1      -3.590  -7.087  -0.391  0.00  0.00    -0.144 NA
ATOM     20  N   UNL     1      -4.335  -9.591  -2.800  0.00  0.00    -0.328 N 
ATOM     21  H   UNL     1      -4.324  -9.548  -3.769  0.00  0.00    +0.145 HD
ATOM     22  H   UNL     1      -4.577 -10.417  -2.354  0.00  0.00    +0.145 HD
ENDBRANCH  13  14
ENDBRANCH  12  13
ENDBRANCH   4  12
TORSDOF 4
