REMARK  Name = ZINC05785178
REMARK  4 active torsions:
REMARK  status: ('A' for Active; 'I' for Inactive)
REMARK    1  A    between atoms: C_1  and  C_2
REMARK    2  A    between atoms: C_3  and  C_17
REMARK    3  A    between atoms: C_4  and  C_10
REMARK    4  A    between atoms: C_17  and  C_19
REMARK                            x       y       z     vdW  Elec       q    Type
REMARK                         _______ _______ _______ _____ _____    ______ ____
ROOT
ATOM      1  C   UNL     1       0.579   1.401  -0.358  0.00  0.00    +0.061 C 
ATOM      2  C   UNL     1       0.427  -0.089  -0.196  0.00  0.00    +0.018 C 
ATOM      3  C   UNL     1      -0.811  -0.635  -0.191  0.00  0.00    +0.041 C 
ATOM      4  C   UNL     1      -0.918  -2.137  -0.026  0.00  0.00    +0.142 C 
ATOM      5  N   UNL     1       0.343  -2.884   0.118  0.00  0.00    -0.288 N 
ATOM      6  C   UNL     1       1.502  -2.197   0.094  0.00  0.00    +0.304 C 
ATOM      7  O   UNL     1       2.548  -2.804   0.212  0.00  0.00    -0.252 OA
ATOM      8  N   UNL     1       1.540  -0.867  -0.061  0.00  0.00    -0.273 N 
ATOM      9  H   UNL     1       0.340  -3.848   0.228  0.00  0.00    +0.151 HD
ATOM     10  H   UNL     1       2.407  -0.432  -0.073  0.00  0.00    +0.156 HD
ENDROOT
BRANCH   4  11
ATOM     11  C   UNL     1      -1.648  -2.686  -1.224  0.00  0.00    -0.004 A 
ATOM     12  C   UNL     1      -0.938  -3.112  -2.331  0.00  0.00    +0.007 A 
ATOM     13  C   UNL     1      -1.607  -3.616  -3.430  0.00  0.00    +0.000 A 
ATOM     14  C   UNL     1      -2.988  -3.693  -3.424  0.00  0.00    +0.001 A 
ATOM     15  C   UNL     1      -3.699  -3.267  -2.318  0.00  0.00    +0.020 A 
ATOM     16  C   UNL     1      -3.029  -2.768  -1.215  0.00  0.00    +0.046 A 
ATOM     17 CL   UNL     1      -3.921  -2.239   0.177  0.00  0.00    -0.083 Cl
ENDBRANCH   4  11
BRANCH   3  18
ATOM     18  C   UNL     1      -1.966   0.169  -0.336  0.00  0.00    +0.193 C 
ATOM     19  O   UNL     1      -2.543   0.219  -1.407  0.00  0.00    -0.287 OA
BRANCH  18  20
ATOM     20  C   UNL     1      -2.472   0.951   0.814  0.00  0.00    +0.022 A 
ATOM     21  C   UNL     1      -1.810   0.900   2.042  0.00  0.00    +0.012 A 
ATOM     22  C   UNL     1      -2.287   1.631   3.110  0.00  0.00    +0.001 A 
ATOM     23  C   UNL     1      -3.420   2.413   2.966  0.00  0.00    +0.000 A 
ATOM     24  C   UNL     1      -4.081   2.467   1.752  0.00  0.00    +0.001 A 
ATOM     25  C   UNL     1      -3.611   1.746   0.674  0.00  0.00    +0.012 A 
ENDBRANCH  18  20
ENDBRANCH   3  18
TORSDOF 3
