REMARK  Name = ZINC46850031
REMARK  5 active torsions:
REMARK  status: ('A' for Active; 'I' for Inactive)
REMARK    1  A    between atoms: C_1  and  C_2
REMARK    2  A    between atoms: C_2  and  C_24
REMARK    3  A    between atoms: N_5  and  C_9
REMARK    4  A    between atoms: C_9  and  C_10
REMARK    5  A    between atoms: N_22  and  C_23
REMARK                            x       y       z     vdW  Elec       q    Type
REMARK                         _______ _______ _______ _____ _____    ______ ____
ROOT
ATOM      1  C   UNL     1      -0.573   1.295  -1.556  0.00  0.00    +0.047 C 
ATOM      2  C   UNL     1      -0.365  -0.118  -1.008  0.00  0.00    +0.135 C 
ATOM      3  C   UNL     1       0.649  -0.872  -1.845  0.00  0.00    +0.251 C 
ATOM      4  O   UNL     1       0.564  -1.151  -3.022  0.00  0.00    -0.272 OA
ATOM      5  N   UNL     1       1.665  -1.165  -1.010  0.00  0.00    -0.216 N 
ATOM      6  C   UNL     1       1.436  -0.706   0.226  0.00  0.00    +0.310 C 
ATOM      7  O   UNL     1       2.209  -0.849   1.154  0.00  0.00    -0.252 OA
ATOM      8  N   UNL     1       0.255  -0.070   0.328  0.00  0.00    -0.281 N 
ATOM      9  H   UNL     1      -0.115   0.341   1.124  0.00  0.00    +0.152 HD
ENDROOT
BRANCH   2  10
ATOM     10  C   UNL     1      -1.674  -0.863  -0.957  0.00  0.00    -0.013 A 
ATOM     11  C   UNL     1      -2.077  -1.625  -2.038  0.00  0.00    +0.009 A 
ATOM     12  C   UNL     1      -3.277  -2.309  -1.994  0.00  0.00    +0.041 A 
ATOM     13  C   UNL     1      -4.077  -2.233  -0.867  0.00  0.00    +0.158 A 
ATOM     14  C   UNL     1      -3.672  -1.469   0.217  0.00  0.00    +0.159 A 
ATOM     15  C   UNL     1      -2.468  -0.789   0.172  0.00  0.00    +0.047 A 
ATOM     16  F   UNL     1      -4.451  -1.393   1.318  0.00  0.00    -0.202 F 
ATOM     17  F   UNL     1      -5.250  -2.901  -0.824  0.00  0.00    -0.202 F 
ENDBRANCH   2  10
BRANCH   5  18
ATOM     18  C   UNL     1       2.871  -1.896  -1.406  0.00  0.00    +0.194 C 
BRANCH  18  19
ATOM     19  C   UNL     1       3.963  -0.916  -1.749  0.00  0.00    +0.157 A 
ATOM     20  N   UNL     1       4.765  -0.321  -0.907  0.00  0.00    -0.131 NA
ATOM     21  N   UNL     1       5.576   0.450  -1.540  0.00  0.00    -0.110 NA
ATOM     22  C   UNL     1       5.334   0.389  -2.831  0.00  0.00    +0.239 A 
ATOM     23  N   UNL     1       4.305  -0.487  -2.997  0.00  0.00    -0.263 N 
ATOM     24  C   UNL     1       3.804  -0.784  -4.272  0.00  0.00    +0.071 A 
ATOM     25  C   UNL     1       2.769  -1.637  -4.648  0.00  0.00    +0.034 A 
ATOM     26  C   UNL     1       2.452  -1.771  -5.954  0.00  0.00    +0.048 A 
ATOM     27  S   UNL     1       3.529  -0.755  -6.751  0.00  0.00    -0.090 S 
ATOM     28  C   UNL     1       4.418  -0.139  -5.347  0.00  0.00    +0.101 A 
ATOM     29  C   UNL     1       5.478   0.758  -5.163  0.00  0.00    +0.269 A 
ATOM     30  O   UNL     1       5.993   1.305  -6.122  0.00  0.00    -0.266 OA
ATOM     31  N   UNL     1       5.921   1.018  -3.913  0.00  0.00    -0.279 N 
ATOM     32  C   UNL     1       7.031   1.952  -3.706  0.00  0.00    +0.155 C 
ENDBRANCH  18  19
ENDBRANCH   5  18
TORSDOF 3
