REMARK  Name = ZINC04856844
REMARK  8 active torsions:
REMARK  status: ('A' for Active; 'I' for Inactive)
REMARK    1  A    between atoms: C_1  and  C_2
REMARK    2  A    between atoms: C_2  and  C_3
REMARK    3  A    between atoms: C_2  and  C_4
REMARK    4  A    between atoms: C_4  and  C_6
REMARK    5  A    between atoms: C_4  and  N_53
REMARK    6  A    between atoms: N_10  and  C_11
REMARK    7  A    between atoms: C_11  and  C_12
REMARK    8  A    between atoms: N_19  and  C_22
REMARK                            x       y       z     vdW  Elec       q    Type
REMARK                         _______ _______ _______ _____ _____    ______ ____
ROOT
ATOM      1  C   UNL     1       1.446  -1.334  -0.249  0.00  0.00    +0.005 C 
ENDROOT
BRANCH   1   7
ATOM      2  C   UNL     1      -0.722  -2.131   0.480  0.00  0.00    -0.059 C 
ATOM      3  C   UNL     1      -1.424  -3.144   1.387  0.00  0.00    +0.086 C 
ATOM      4  N   UNL     1      -1.050  -2.887   2.785  0.00  0.00    -0.333 N 
ATOM      5  C   UNL     1       0.404  -2.996   2.967  0.00  0.00    +0.086 C 
ATOM      6  C   UNL     1       1.106  -1.983   2.060  0.00  0.00    -0.059 C 
ATOM      7  N   UNL     1       0.739  -2.266   0.656  0.00  0.00    +0.389 N 
ATOM      8  H   UNL     1       1.016  -3.228   0.426  0.00  0.00    -0.081 HD
BRANCH   4   9
ATOM      9  C   UNL     1      -1.730  -3.749   3.651  0.00  0.00    +0.030 A 
ATOM     10  C   UNL     1      -1.017  -4.562   4.523  0.00  0.00    +0.026 A 
ATOM     11  C   UNL     1      -1.690  -5.409   5.382  0.00  0.00    +0.040 A 
ATOM     12  C   UNL     1      -3.074  -5.457   5.365  0.00  0.00    +0.124 A 
ATOM     13  C   UNL     1      -3.786  -4.651   4.493  0.00  0.00    +0.040 A 
ATOM     14  C   UNL     1      -3.117  -3.798   3.637  0.00  0.00    +0.026 A 
ATOM     15  F   UNL     1      -3.730  -6.289   6.203  0.00  0.00    -0.205 F 
ENDBRANCH   4   9
ENDBRANCH   1   7
BRANCH   1  16
ATOM     16  C   UNL     1       1.007   0.085   0.008  0.00  0.00    +0.139 A 
ATOM     17  N   UNL     1      -0.183   0.588  -0.211  0.00  0.00    -0.115 NA
ATOM     18  N   UNL     1      -0.161   1.829   0.136  0.00  0.00    -0.023 NA
ATOM     19  N   UNL     1       1.013   2.130   0.571  0.00  0.00    -0.044 NA
ATOM     20  N   UNL     1       1.762   1.081   0.508  0.00  0.00    -0.226 N 
BRANCH  20  21
ATOM     21  C   UNL     1       3.169   0.992   0.906  0.00  0.00    +0.189 C 
BRANCH  21  22
ATOM     22  C   UNL     1       4.043   1.462  -0.228  0.00  0.00    +0.011 A 
ATOM     23  C   UNL     1       4.410   2.725  -0.555  0.00  0.00    +0.013 A 
ATOM     24  C   UNL     1       5.229   2.923  -1.651  0.00  0.00    +0.008 A 
ATOM     25  C   UNL     1       5.640   1.847  -2.366  0.00  0.00    +0.045 A 
ATOM     26  S   UNL     1       4.869   0.500  -1.484  0.00  0.00    -0.100 S 
ENDBRANCH  21  22
ENDBRANCH  20  21
ENDBRANCH   1  16
BRANCH   1  28
ATOM     27  C   UNL     1       1.950  -0.835  -2.644  0.00  0.00    +0.006 C 
ATOM     28  C   UNL     1       1.128  -1.712  -1.697  0.00  0.00    -0.024 C 
ATOM     29  C   UNL     1       1.479  -3.183  -1.929  0.00  0.00    +0.006 C 
ENDBRANCH   1  28
TORSDOF 6
