REMARK  Name = ZINC62075818
REMARK  7 active torsions:
REMARK  status: ('A' for Active; 'I' for Inactive)
REMARK    1  A    between atoms: C_1  and  C_2
REMARK    2  A    between atoms: C_2  and  O_3
REMARK    3  A    between atoms: O_3  and  C_4
REMARK    4  A    between atoms: C_6  and  C_27
REMARK    5  A    between atoms: C_7  and  S_11
REMARK    6  A    between atoms: C_9  and  C_10
REMARK    7  A    between atoms: S_11  and  N_14
REMARK                            x       y       z     vdW  Elec       q    Type
REMARK                         _______ _______ _______ _____ _____    ______ ____
ROOT
ATOM      1  S   UNL     1       1.645  -6.272  -2.103  0.00  0.00    +0.061 S 
ATOM      2  O   UNL     1       0.514  -7.129  -2.034  0.00  0.00    -0.153 OA
ATOM      3  O   UNL     1       2.406  -6.110  -3.292  0.00  0.00    -0.153 OA
ENDROOT
BRANCH   1   4
ATOM      4  N   UNL     1       2.699  -6.784  -0.932  0.00  0.00    -0.172 NA
ATOM      5  C   UNL     1       4.149  -6.561  -1.056  0.00  0.00    +0.114 C 
ATOM      6  C   UNL     1       4.578  -5.626   0.073  0.00  0.00    +0.052 C 
ATOM      7  C   UNL     1       4.011  -6.082   1.392  0.00  0.00    -0.038 A 
ATOM      8  C   UNL     1       4.628  -5.623   2.550  0.00  0.00    +0.053 A 
ATOM      9  C   UNL     1       4.154  -5.993   3.795  0.00  0.00    +0.167 A 
ATOM     10  C   UNL     1       3.047  -6.834   3.889  0.00  0.00    +0.167 A 
ATOM     11  C   UNL     1       2.438  -7.290   2.735  0.00  0.00    +0.054 A 
ATOM     12  C   UNL     1       2.922  -6.920   1.486  0.00  0.00    -0.025 A 
ATOM     13  C   UNL     1       2.224  -7.472   0.273  0.00  0.00    +0.145 C 
ATOM     14  O   UNL     1       2.773  -7.049   5.208  0.00  0.00    -0.453 OA
ATOM     15  C   UNL     1       3.968  -6.667   5.916  0.00  0.00    +0.466 C 
ATOM     16  O   UNL     1       4.575  -5.684   5.056  0.00  0.00    -0.453 OA
ENDBRANCH   1   4
BRANCH   1  20
ATOM     17  C   UNL     1       0.218  -2.144  -0.907  0.00  0.00    +0.124 A 
ATOM     18  C   UNL     1       0.007  -2.605  -2.199  0.00  0.00    +0.051 A 
ATOM     19  C   UNL     1       0.443  -3.865  -2.561  0.00  0.00    -0.021 A 
ATOM     20  C   UNL     1       1.090  -4.666  -1.638  0.00  0.00    +0.109 A 
ATOM     21  C   UNL     1       1.301  -4.208  -0.350  0.00  0.00    +0.035 A 
ATOM     22  C   UNL     1       0.872  -2.947   0.015  0.00  0.00    -0.007 A 
ATOM     23  C   UNL     1       1.108  -2.447   1.417  0.00  0.00    +0.047 C 
ATOM     24  C   UNL     1       0.213  -4.367  -3.963  0.00  0.00    +0.046 C 
BRANCH  17  25
ATOM     25  O   UNL     1      -0.210  -0.905  -0.549  0.00  0.00    -0.492 OA
BRANCH  25  27
ATOM     26  C   UNL     1      -1.281   1.221  -0.966  0.00  0.00    +0.048 C 
ATOM     27  C   UNL     1      -0.876  -0.133  -1.550  0.00  0.00    +0.225 C 
ENDBRANCH  25  27
ENDBRANCH  17  25
ENDBRANCH   1  20
TORSDOF 4
