REMARK  Name = ZINC67280581
REMARK  5 active torsions:
REMARK  status: ('A' for Active; 'I' for Inactive)
REMARK    1  A    between atoms: C_1  and  C_2
REMARK    2  A    between atoms: C_5  and  N_10
REMARK    3  A    between atoms: C_6  and  O_8
REMARK    4  A    between atoms: O_8  and  C_9
REMARK    5  A    between atoms: C_17  and  C_20
REMARK                            x       y       z     vdW  Elec       q    Type
REMARK                         _______ _______ _______ _____ _____    ______ ____
ROOT
ATOM      1  N   UNL     1       0.049  -4.175  -0.030  0.00  0.00    -0.266 N 
ATOM      2  C   UNL     1      -0.041  -4.841  -1.198  0.00  0.00    +0.307 C 
ATOM      3  O   UNL     1      -0.046  -4.229  -2.249  0.00  0.00    -0.252 OA
ATOM      4  N   UNL     1      -0.124  -6.186  -1.202  0.00  0.00    -0.280 N 
ATOM      5  C   UNL     1      -0.226  -6.942   0.056  0.00  0.00    +0.137 C 
ATOM      6  C   UNL     1      -1.408  -7.912  -0.056  0.00  0.00    +0.179 C 
ATOM      7  O   UNL     1      -1.272  -8.684  -1.252  0.00  0.00    -0.369 OA
ATOM      8  C   UNL     1      -1.305  -7.912  -2.454  0.00  0.00    +0.166 C 
ATOM      9  C   UNL     1      -0.123  -6.942  -2.465  0.00  0.00    +0.145 C 
ATOM     10  H   UNL     1       0.092  -4.665   0.806  0.00  0.00    +0.156 HD
ENDROOT
BRANCH   1  15
ATOM     11  C   UNL     1       0.174   1.503  -0.008  0.00  0.00    +0.044 C 
ATOM     12  C   UNL     1       0.140  -0.004  -0.011  0.00  0.00    -0.047 A 
ATOM     13  C   UNL     1       0.517  -0.700  -1.145  0.00  0.00    +0.005 A 
ATOM     14  C   UNL     1       0.487  -2.081  -1.154  0.00  0.00    +0.027 A 
ATOM     15  C   UNL     1       0.080  -2.773  -0.024  0.00  0.00    +0.077 A 
ATOM     16  C   UNL     1      -0.299  -2.072   1.119  0.00  0.00    +0.141 A 
ATOM     17  C   UNL     1      -0.262  -0.687   1.121  0.00  0.00    +0.051 A 
BRANCH  16  18
ATOM     18  O   UNL     1      -0.700  -2.745   2.230  0.00  0.00    -0.493 OA
ATOM     19  C   UNL     1      -1.074  -1.961   3.364  0.00  0.00    +0.277 C 
ENDBRANCH  16  18
ENDBRANCH   1  15
BRANCH   8  20
ATOM     20  C   UNL     1      -1.216  -8.831  -3.645  0.00  0.00    -0.015 A 
ATOM     21  C   UNL     1      -0.450  -9.980  -3.576  0.00  0.00    +0.006 A 
ATOM     22  C   UNL     1      -0.368 -10.824  -4.668  0.00  0.00    +0.003 A 
ATOM     23  C   UNL     1      -1.050 -10.519  -5.830  0.00  0.00    +0.038 A 
ATOM     24  C   UNL     1      -1.817  -9.369  -5.901  0.00  0.00    +0.124 A 
ATOM     25  C   UNL     1      -1.904  -8.527  -4.804  0.00  0.00    +0.044 A 
ATOM     26  F   UNL     1      -2.485  -9.070  -7.037  0.00  0.00    -0.205 F 
ENDBRANCH   8  20
TORSDOF 3
