REMARK  Name = ZINC08764696
REMARK  1 active torsions:
REMARK  status: ('A' for Active; 'I' for Inactive)
REMARK    1  A    between atoms: C_8  and  C_10
REMARK                            x       y       z     vdW  Elec       q    Type
REMARK                         _______ _______ _______ _____ _____    ______ ____
ROOT
ATOM      1  C   UNL     1      -4.037   1.981   0.125  0.00  0.00    +0.282 C 
ATOM      2  O   UNL     1      -4.644   2.191  -0.908  0.00  0.00    -0.267 OA
ATOM      3  N   UNL     1      -2.745   1.600   0.081  0.00  0.00    -0.294 N 
ATOM      4  C   UNL     1      -2.102   1.272  -1.197  0.00  0.00    +0.113 C 
ATOM      5  C   UNL     1      -0.787   2.027  -1.332  0.00  0.00    +0.027 C 
ATOM      6  C   UNL     1       0.080   1.848  -0.086  0.00  0.00    +0.018 C 
ATOM      7  C   UNL     1      -0.696   2.377   1.123  0.00  0.00    +0.054 C 
ATOM      8  C   UNL     1      -1.948   1.503   1.315  0.00  0.00    +0.117 C 
ATOM      9  C   UNL     1      -1.158   3.790   0.853  0.00  0.00    +0.027 A 
ATOM     10  C   UNL     1      -1.332   4.609   1.925  0.00  0.00    +0.022 A 
ATOM     11  C   UNL     1      -1.823   5.907   1.755  0.00  0.00    +0.007 A 
ATOM     12  C   UNL     1      -2.152   6.329   0.500  0.00  0.00    +0.070 A 
ATOM     13  C   UNL     1      -1.965   5.459  -0.583  0.00  0.00    +0.251 A 
ATOM     14  O   UNL     1      -2.318   5.799  -1.700  0.00  0.00    -0.268 OA
ATOM     15  N   UNL     1      -1.395   4.242  -0.400  0.00  0.00    -0.312 N 
ATOM     16  C   UNL     1      -1.006   3.505  -1.603  0.00  0.00    +0.130 C 
ENDROOT
BRANCH   1  24
ATOM     17  C   UNL     1      -7.207   2.842   5.195  0.00  0.00    +0.001 A 
ATOM     18  C   UNL     1      -6.066   2.302   5.772  0.00  0.00    +0.004 A 
ATOM     19  C   UNL     1      -4.995   1.921   4.994  0.00  0.00    +0.047 A 
ATOM     20  C   UNL     1      -5.053   2.078   3.613  0.00  0.00    +0.136 A 
ATOM     21  C   UNL     1      -6.212   2.626   3.033  0.00  0.00    +0.021 A 
ATOM     22  C   UNL     1      -7.287   3.005   3.841  0.00  0.00    +0.011 A 
ATOM     23  C   UNL     1      -5.956   2.661   1.594  0.00  0.00    +0.063 A 
ATOM     24  C   UNL     1      -4.712   2.143   1.420  0.00  0.00    +0.191 A 
ATOM     25  O   UNL     1      -4.188   1.806   2.617  0.00  0.00    -0.450 OA
ENDBRANCH   1  24
TORSDOF 1
