REMARK  Name = ZINC39412393
REMARK  4 active torsions:
REMARK  status: ('A' for Active; 'I' for Inactive)
REMARK    1  A    between atoms: C_7  and  C_10
REMARK    2  A    between atoms: N_11  and  N_12
REMARK    3  A    between atoms: C_13  and  C_15
REMARK    4  A    between atoms: C_15  and  C_16
REMARK                            x       y       z     vdW  Elec       q    Type
REMARK                         _______ _______ _______ _____ _____    ______ ____
ROOT
ATOM      1  C   UNL     1       0.677  -3.128  -0.022  0.00  0.00    +0.136 C 
ATOM      2  N   UNL     1       1.141  -4.352  -0.033  0.00  0.00    -0.188 NA
ENDROOT
BRANCH   1   9
ATOM      3  C   UNL     1      -0.016   1.353   0.009  0.00  0.00    +0.001 A 
ATOM      4  C   UNL     1       1.164   2.102   0.002  0.00  0.00    +0.002 A 
ATOM      5  C   UNL     1       2.384   1.514  -0.013  0.00  0.00    +0.026 A 
ATOM      6  C   UNL     1       2.485   0.097  -0.022  0.00  0.00    +0.043 A 
ATOM      7  N   UNL     1       3.531  -0.702  -0.037  0.00  0.00    -0.380 N 
ATOM      8  C   UNL     1       3.076  -2.096  -0.040  0.00  0.00    +0.150 C 
ATOM      9  C   UNL     1       1.565  -2.042  -0.024  0.00  0.00    +0.000 C 
ATOM     10  C   UNL     1       1.238  -0.688  -0.013  0.00  0.00    +0.004 A 
ATOM     11  C   UNL     1       0.002  -0.004   0.002  0.00  0.00    +0.010 A 
ATOM     12  H   UNL     1       4.458  -0.414  -0.045  0.00  0.00    +0.160 HD
ENDBRANCH   1   9
BRANCH   2  13
ATOM     13  N   UNL     1       0.255  -5.437  -0.030  0.00  0.00    -0.207 N 
ATOM     14  C   UNL     1       0.733  -6.697  -0.041  0.00  0.00    +0.237 C 
ATOM     15  O   UNL     1       1.930  -6.892  -0.054  0.00  0.00    -0.274 OA
ATOM     16  H   UNL     1      -0.702  -5.281  -0.020  0.00  0.00    +0.177 HD
BRANCH  14  17
ATOM     17  C   UNL     1      -0.220  -7.864  -0.038  0.00  0.00    +0.132 C 
BRANCH  17  18
ATOM     18  C   UNL     1       0.562  -9.152  -0.053  0.00  0.00    -0.038 A 
ATOM     19  C   UNL     1       0.914  -9.733  -1.257  0.00  0.00    +0.005 A 
ATOM     20  C   UNL     1       1.632 -10.914  -1.271  0.00  0.00    +0.020 A 
ATOM     21  C   UNL     1       1.998 -11.515  -0.080  0.00  0.00    +0.041 A 
ATOM     22  C   UNL     1       1.646 -10.933   1.125  0.00  0.00    +0.020 A 
ATOM     23  C   UNL     1       0.933  -9.749   1.138  0.00  0.00    +0.005 A 
ATOM     24 CL   UNL     1       2.899 -12.999  -0.097  0.00  0.00    -0.084 Cl
ENDBRANCH  17  18
ENDBRANCH  14  17
ENDBRANCH   2  13
TORSDOF 4
