REMARK  Name = ZINC10067051
REMARK  10 active torsions:
REMARK  status: ('A' for Active; 'I' for Inactive)
REMARK    1  A    between atoms: C_1  and  C_2
REMARK    2  A    between atoms: C_2  and  N_49
REMARK    3  A    between atoms: C_3  and  C_4
REMARK    4  A    between atoms: C_3  and  N_49
REMARK    5  A    between atoms: C_5  and  C_6
REMARK    6  A    between atoms: C_5  and  N_49
REMARK    7  A    between atoms: C_6  and  N_7
REMARK    8  A    between atoms: C_12  and  O_17
REMARK    9  A    between atoms: O_17  and  C_18
REMARK   10  A    between atoms: C_19  and  C_21
REMARK                            x       y       z     vdW  Elec       q    Type
REMARK                         _______ _______ _______ _____ _____    ______ ____
ROOT
ATOM      1  N   UNL     1      -0.556   5.485  -0.381  0.00  0.00    -0.248 N 
ATOM      2  C   UNL     1      -0.334   4.120  -0.340  0.00  0.00    +0.168 A 
ATOM      3  N   UNL     1       0.787   3.474  -0.114  0.00  0.00    -0.224 NA
ATOM      4  C   UNL     1       0.859   2.126  -0.104  0.00  0.00    +0.084 A 
ATOM      5  C   UNL     1       1.995   1.315   0.125  0.00  0.00    +0.074 A 
ATOM      6  C   UNL     1       1.895  -0.056   0.099  0.00  0.00    +0.122 A 
ATOM      7  C   UNL     1       0.681  -0.689  -0.151  0.00  0.00    +0.047 A 
ATOM      8  C   UNL     1      -0.447   0.077  -0.379  0.00  0.00    +0.021 A 
ATOM      9  C   UNL     1      -0.354   1.446  -0.355  0.00  0.00    +0.041 A 
ATOM     10  S   UNL     1      -1.497   2.786  -0.591  0.00  0.00    -0.052 S 
ATOM     11  C   UNL     1       0.463   6.341  -0.170  0.00  0.00    +0.254 C 
ATOM     12  O   UNL     1       1.581   5.913   0.047  0.00  0.00    -0.270 OA
ENDROOT
BRANCH  11  13
ATOM     13  C   UNL     1       0.225   7.791  -0.203  0.00  0.00    +0.064 A 
ATOM     14  C   UNL     1      -1.089   8.344   0.020  0.00  0.00    +0.042 A 
ATOM     15  C   UNL     1      -1.204   9.686  -0.025  0.00  0.00    +0.080 A 
ATOM     16  S   UNL     1       0.455  10.224  -0.383  0.00  0.00    -0.064 S 
ATOM     17  C   UNL     1       1.247   8.686  -0.455  0.00  0.00    +0.091 A 
ATOM     18 CL   UNL     1       2.921   8.349  -0.767  0.00  0.00    -0.075 Cl
ATOM     19 CL   UNL     1      -2.627  10.655   0.203  0.00  0.00    -0.076 Cl
ENDBRANCH  11  13
BRANCH   6  20
ATOM     20  O   UNL     1       3.005  -0.809   0.323  0.00  0.00    -0.495 OA
ATOM     21  C   UNL     1       2.845  -2.228   0.284  0.00  0.00    +0.277 C 
ENDBRANCH   6  20
BRANCH   1  22
ATOM     22  C   UNL     1      -1.901   6.000  -0.654  0.00  0.00    +0.097 C 
BRANCH  22  23
ATOM     23  C   UNL     1      -2.733   5.956   0.629  0.00  0.00    -0.059 C 
BRANCH  23  24
ATOM     24  N   UNL     1      -4.078   6.498   0.343  0.00  0.00    +0.380 N 
ATOM     25  H   UNL     1      -3.979   7.413  -0.113  0.00  0.00    -0.082 HD
BRANCH  24  27
ATOM     26  C   UNL     1      -5.039   4.232   0.109  0.00  0.00    -0.017 C 
ATOM     27  C   UNL     1      -4.808   5.587  -0.564  0.00  0.00    -0.082 C 
ENDBRANCH  24  27
BRANCH  24  28
ATOM     28  C   UNL     1      -4.833   6.668   1.602  0.00  0.00    -0.082 C 
ATOM     29  C   UNL     1      -6.060   7.540   1.327  0.00  0.00    -0.017 C 
ENDBRANCH  24  28
ENDBRANCH  23  24
ENDBRANCH  22  23
ENDBRANCH   1  22
TORSDOF 7
