REMARK  Name = ZINC66087971
REMARK  7 active torsions:
REMARK  status: ('A' for Active; 'I' for Inactive)
REMARK    1  A    between atoms: C_3  and  C_8
REMARK    2  A    between atoms: C_10  and  C_22
REMARK    3  A    between atoms: C_12  and  C_13
REMARK    4  A    between atoms: C_12  and  C_15
REMARK    5  A    between atoms: C_15  and  N_21
REMARK    6  A    between atoms: C_16  and  C_17
REMARK    7  A    between atoms: C_16  and  C_19
REMARK                            x       y       z     vdW  Elec       q    Type
REMARK                         _______ _______ _______ _____ _____    ______ ____
ROOT
ATOM      1  C   UNL     1       3.653   2.211  -0.017  0.00  0.00    +0.065 C 
ATOM      2  C   UNL     1       4.946   1.438  -0.281  0.00  0.00    +0.127 C 
ATOM      3  C   UNL     1       4.640   1.961   1.125  0.00  0.00    +0.120 C 
ENDROOT
BRANCH   1   6
ATOM      4  C   UNL     1      -0.029   1.376   0.054  0.00  0.00    +0.001 A 
ATOM      5  C   UNL     1       1.153   2.093   0.045  0.00  0.00    +0.004 A 
ATOM      6  C   UNL     1       2.365   1.429  -0.007  0.00  0.00    -0.040 A 
ATOM      7  C   UNL     1       2.394   0.047  -0.050  0.00  0.00    +0.019 A 
ATOM      8  C   UNL     1       1.212  -0.670  -0.041  0.00  0.00    +0.018 A 
ATOM      9  C   UNL     1       0.000  -0.005   0.011  0.00  0.00    +0.015 A 
ATOM     10 BR   UNL     1       1.252  -2.560  -0.100  0.00  0.00    -0.050 Br
ENDBRANCH   1   6
BRANCH   3  11
ATOM     11  C   UNL     1       4.259   0.975   2.149  0.00  0.00    +0.077 C 
ATOM     12  N   UNL     1       3.965   0.214   2.939  0.00  0.00    -0.196 NA
ENDBRANCH   3  11
BRANCH   3  13
ATOM     13  C   UNL     1       5.443   3.136   1.620  0.00  0.00    +0.051 C 
ATOM     14  C   UNL     1       6.815   3.050   1.694  0.00  0.00    +0.146 C 
BRANCH  13  15
ATOM     15  N   UNL     1       4.812   4.281   1.994  0.00  0.00    -0.358 N 
ATOM     16  H   UNL     1       3.843   4.314   2.022  0.00  0.00    +0.142 HD
ATOM     17  H   UNL     1       5.331   5.064   2.233  0.00  0.00    +0.142 HD
ENDBRANCH  13  15
BRANCH  14  18
ATOM     18  C   UNL     1       7.479   1.844   1.300  0.00  0.00    +0.112 C 
ATOM     19  N   UNL     1       8.006   0.887   0.988  0.00  0.00    -0.190 NA
ENDBRANCH  14  18
BRANCH  14  20
ATOM     20  C   UNL     1       7.578   4.167   2.165  0.00  0.00    +0.112 C 
ATOM     21  N   UNL     1       8.183   5.052   2.539  0.00  0.00    -0.190 NA
ENDBRANCH  14  20
ENDBRANCH   3  13
BRANCH   2  22
ATOM     22  C   UNL     1       6.003   2.121  -1.045  0.00  0.00    +0.069 C 
ATOM     23  N   UNL     1       6.818   2.648  -1.635  0.00  0.00    -0.196 NA
ENDBRANCH   2  22
TORSDOF 7
