REMARK  Name = ZINC06545586
REMARK  9 active torsions:
REMARK  status: ('A' for Active; 'I' for Inactive)
REMARK    1  A    between atoms: C_1  and  C_2
REMARK    2  A    between atoms: C_4  and  C_22
REMARK    3  A    between atoms: C_5  and  C_20
REMARK    4  A    between atoms: C_6  and  O_8
REMARK    5  A    between atoms: O_8  and  C_9
REMARK    6  A    between atoms: C_9  and  C_10
REMARK    7  A    between atoms: N_12  and  N_13
REMARK    8  A    between atoms: C_22  and  O_23
REMARK    9  A    between atoms: O_23  and  C_24
REMARK                            x       y       z     vdW  Elec       q    Type
REMARK                         _______ _______ _______ _____ _____    ______ ____
ROOT
ATOM      1  C   UNL     1       2.466   1.858   0.080  0.00  0.00    +0.067 C 
ATOM      2  C   UNL     1       1.177   2.601  -0.163  0.00  0.00    +0.056 A 
ATOM      3  C   UNL     1       0.012   1.888  -0.383  0.00  0.00    +0.046 A 
ATOM      4  C   UNL     1      -1.171   2.570  -0.612  0.00  0.00    +0.016 A 
ATOM      5  C   UNL     1      -1.143   3.969  -0.602  0.00  0.00    +0.120 A 
ATOM      6  C   UNL     1       0.079   4.620  -0.370  0.00  0.00    +0.234 A 
ATOM      7  N   UNL     1       1.181   3.920  -0.162  0.00  0.00    -0.216 NA
ATOM      8 BR   UNL     1       0.037  -0.003  -0.379  0.00  0.00    -0.048 Br
ENDROOT
BRANCH   5   9
ATOM      9  C   UNL     1      -2.339   4.724  -0.828  0.00  0.00    +0.105 C 
ATOM     10  N   UNL     1      -3.288   5.322  -1.008  0.00  0.00    -0.191 NA
ENDBRANCH   5   9
BRANCH   6  11
ATOM     11  O   UNL     1       0.129   5.974  -0.361  0.00  0.00    -0.466 OA
BRANCH  11  12
ATOM     12  C   UNL     1       1.403   6.574  -0.120  0.00  0.00    +0.328 C 
BRANCH  12  13
ATOM     13  C   UNL     1       1.265   8.074  -0.146  0.00  0.00    +0.270 C 
ATOM     14  O   UNL     1       0.181   8.580  -0.351  0.00  0.00    -0.270 OA
ATOM     15  N   UNL     1       2.345   8.854   0.058  0.00  0.00    -0.204 N 
ATOM     16  H   UNL     1       3.211   8.450   0.221  0.00  0.00    +0.177 HD
BRANCH  15  17
ATOM     17  N   UNL     1       2.216  10.249   0.034  0.00  0.00    -0.189 NA
ATOM     18  C   UNL     1       3.257  10.990   0.124  0.00  0.00    +0.037 C 
ATOM     19  C   UNL     1       4.643  10.384   0.117  0.00  0.00    +0.052 C 
ATOM     20  C   UNL     1       5.483  11.113  -0.944  0.00  0.00    +0.006 C 
ATOM     21  C   UNL     1       5.454  12.617  -0.665  0.00  0.00    +0.001 C 
ATOM     22  C   UNL     1       4.026  13.144  -0.812  0.00  0.00    +0.006 C 
ATOM     23  C   UNL     1       3.131  12.492   0.248  0.00  0.00    +0.052 C 
ENDBRANCH  15  17
ENDBRANCH  12  13
ENDBRANCH  11  12
ENDBRANCH   6  11
BRANCH   4  24
ATOM     24  C   UNL     1      -2.456   1.825  -0.861  0.00  0.00    +0.197 C 
BRANCH  24  25
ATOM     25  O   UNL     1      -3.119   1.588   0.383  0.00  0.00    -0.378 OA
ATOM     26  C   UNL     1      -4.356   0.884   0.258  0.00  0.00    +0.194 C 
ENDBRANCH  24  25
ENDBRANCH   4  24
TORSDOF 7
