REMARK  Name = ZINC50375538
REMARK  4 active torsions:
REMARK  status: ('A' for Active; 'I' for Inactive)
REMARK    1  A    between atoms: C_1  and  C_2
REMARK    2  A    between atoms: N_10  and  C_11
REMARK    3  A    between atoms: C_16  and  O_18
REMARK    4  A    between atoms: O_18  and  C_19
REMARK                            x       y       z     vdW  Elec       q    Type
REMARK                         _______ _______ _______ _____ _____    ______ ____
ROOT
ATOM      1  C   UNL     1      -0.018   1.503   0.010  0.00  0.00    +0.044 C 
ATOM      2  C   UNL     1       0.002  -0.004   0.002  0.00  0.00    -0.048 A 
ATOM      3  C   UNL     1       0.006  -0.687  -1.202  0.00  0.00    +0.005 A 
ATOM      4  C   UNL     1       0.024  -2.068  -1.220  0.00  0.00    +0.028 A 
ATOM      5  C   UNL     1       0.040  -2.773  -0.027  0.00  0.00    +0.068 A 
ATOM      6  C   UNL     1       0.036  -2.085   1.188  0.00  0.00    +0.065 A 
ATOM      7  C   UNL     1       0.023  -0.698   1.196  0.00  0.00    +0.031 A 
ATOM      8  N   UNL     1       0.054  -3.046   2.196  0.00  0.00    -0.334 N 
ATOM      9  C   UNL     1       0.069  -4.263   1.620  0.00  0.00    +0.159 A 
ATOM     10  N   UNL     1       0.060  -4.131   0.280  0.00  0.00    -0.314 N 
ATOM     11  S   UNL     1       0.094  -5.752   2.465  0.00  0.00    -0.013 S 
ATOM     12  H   UNL     1       0.057  -2.868   3.149  0.00  0.00    +0.168 HD
ENDROOT
BRANCH  10  13
ATOM     13  C   UNL     1       0.070  -5.229  -0.689  0.00  0.00    +0.118 C 
ATOM     14  C   UNL     1      -1.143  -6.152  -0.455  0.00  0.00    +0.028 C 
ATOM     15  C   UNL     1      -0.599  -7.575  -0.735  0.00  0.00    +0.005 C 
ATOM     16  C   UNL     1       0.832  -7.515  -0.143  0.00  0.00    +0.034 C 
ATOM     17  C   UNL     1       1.327  -6.095  -0.491  0.00  0.00    +0.141 C 
BRANCH  17  18
ATOM     18  O   UNL     1       2.116  -5.575   0.580  0.00  0.00    -0.378 OA
ATOM     19  C   UNL     1       3.518  -5.815   0.439  0.00  0.00    +0.194 C 
ENDBRANCH  17  18
ENDBRANCH  10  13
TORSDOF 2
