REMARK  Name = ZINC48552965
REMARK  3 active torsions:
REMARK  status: ('A' for Active; 'I' for Inactive)
REMARK    1  A    between atoms: C_9  and  N_11
REMARK    2  A    between atoms: N_11  and  C_12
REMARK    3  A    between atoms: C_13  and  C_18
REMARK                            x       y       z     vdW  Elec       q    Type
REMARK                         _______ _______ _______ _____ _____    ______ ____
ROOT
ATOM      1  N   UNL     1       4.577  -0.496  -0.997  0.00  0.00    -0.329 N 
ATOM      2  H   UNL     1       4.566  -0.835  -1.906  0.00  0.00    +0.147 HD
ENDROOT
BRANCH   1  11
ATOM      3  C   UNL     1      -0.017   1.377   0.010  0.00  0.00    +0.000 A 
ATOM      4  C   UNL     1       1.172   2.083   0.002  0.00  0.00    +0.000 A 
ATOM      5  C   UNL     1       2.376   1.406  -0.013  0.00  0.00    +0.006 A 
ATOM      6  C   UNL     1       2.396   0.021  -0.021  0.00  0.00    -0.024 A 
ATOM      7  C   UNL     1       1.208  -0.685  -0.013  0.00  0.00    -0.042 A 
ATOM      8  C   UNL     1       0.002  -0.004   0.002  0.00  0.00    +0.004 A 
ATOM      9  C   UNL     1       1.496  -2.171  -0.025  0.00  0.00    +0.037 C 
ATOM     10  C   UNL     1       2.966  -2.294  -0.480  0.00  0.00    +0.031 C 
ATOM     11  C   UNL     1       3.564  -0.942  -0.037  0.00  0.00    +0.102 C 
ENDBRANCH   1  11
BRANCH   1  12
ATOM     12  C   UNL     1       5.548   0.406  -0.607  0.00  0.00    +0.105 A 
ATOM     13  C   UNL     1       6.585   0.951  -1.367  0.00  0.00    +0.118 A 
ATOM     14  C   UNL     1       7.402   1.842  -0.669  0.00  0.00    +0.157 A 
ATOM     15  N   UNL     1       7.115   2.063   0.584  0.00  0.00    -0.196 NA
ATOM     16  S   UNL     1       5.768   1.124   0.893  0.00  0.00    +0.029 S 
ATOM     17 CL   UNL     1       8.747   2.625  -1.438  0.00  0.00    -0.060 Cl
BRANCH  13  18
ATOM     18  C   UNL     1       6.794   0.623  -2.745  0.00  0.00    +0.105 C 
ATOM     19  N   UNL     1       6.960   0.363  -3.839  0.00  0.00    -0.191 NA
ENDBRANCH  13  18
ENDBRANCH   1  12
TORSDOF 3
