REMARK  Name = ZINC39421201
REMARK  6 active torsions:
REMARK  status: ('A' for Active; 'I' for Inactive)
REMARK    1  A    between atoms: C_1  and  C_2
REMARK    2  A    between atoms: C_4  and  C_9
REMARK    3  A    between atoms: C_5  and  C_8
REMARK    4  A    between atoms: N_11  and  C_12
REMARK    5  A    between atoms: C_12  and  C_13
REMARK    6  A    between atoms: C_20  and  C_23
REMARK                            x       y       z     vdW  Elec       q    Type
REMARK                         _______ _______ _______ _____ _____    ______ ____
ROOT
ATOM      1  C   UNL     1      -2.689   1.528  -4.117  0.00  0.00    +0.195 C 
ATOM      2  C   UNL     1      -3.797   1.832  -5.154  0.00  0.00    +0.085 C 
ATOM      3  C   UNL     1      -3.018   1.824  -6.455  0.00  0.00    -0.000 A 
ATOM      4  C   UNL     1      -3.324   2.285  -7.718  0.00  0.00    +0.027 A 
ATOM      5  C   UNL     1      -2.408   2.156  -8.751  0.00  0.00    +0.042 A 
ATOM      6  C   UNL     1      -1.184   1.564  -8.515  0.00  0.00    +0.032 A 
ATOM      7  C   UNL     1      -0.867   1.092  -7.242  0.00  0.00    +0.025 A 
ATOM      8  C   UNL     1      -1.797   1.219  -6.195  0.00  0.00    +0.132 A 
ATOM      9  O   UNL     1      -1.707   0.822  -4.895  0.00  0.00    -0.486 OA
ATOM     10 CL   UNL     1      -2.800   2.738 -10.338  0.00  0.00    -0.084 Cl
ENDROOT
BRANCH   7  11
ATOM     11  C   UNL     1       0.444   0.459  -6.994  0.00  0.00    -0.014 C 
ATOM     12  C   UNL     1       1.592   1.240  -6.896  0.00  0.00    +0.014 C 
ATOM     13  C   UNL     1       2.765   0.535  -6.603  0.00  0.00    -0.017 C 
ATOM     14  C   UNL     1       4.059   0.741  -6.918  0.00  0.00    +0.025 C 
ATOM     15  C   UNL     1       4.803  -0.418  -6.615  0.00  0.00    +0.106 C 
ATOM     16  N   UNL     1       4.077  -1.331  -6.032  0.00  0.00    -0.279 NA
ATOM     17  C   UNL     1       2.752  -0.767  -5.820  0.00  0.00    +0.158 C 
ATOM     18  C   UNL     1       1.617  -1.601  -6.330  0.00  0.00    +0.005 C 
ATOM     19  C   UNL     1       0.544  -0.999  -6.842  0.00  0.00    +0.007 C 
ENDBRANCH   7  11
BRANCH   1  20
ATOM     20  C   UNL     1      -3.229   0.642  -2.992  0.00  0.00    +0.149 C 
BRANCH  20  23
ATOM     21  C   UNL     1      -2.424  -0.335  -0.910  0.00  0.00    +0.244 C 
ATOM     22  O   UNL     1      -3.524  -0.834  -0.754  0.00  0.00    -0.270 OA
ATOM     23  N   UNL     1      -2.176   0.421  -1.998  0.00  0.00    -0.308 N 
ATOM     24  H   UNL     1      -1.300   0.818  -2.123  0.00  0.00    +0.149 HD
BRANCH  21  27
ATOM     25  C   UNL     1      -0.019   1.526   0.010  0.00  0.00    +0.046 C 
ATOM     26  C   UNL     1       0.002  -0.004   0.002  0.00  0.00    +0.182 C 
ATOM     27  C   UNL     1      -1.408  -0.549   0.050  0.00  0.00    +0.066 C 
ATOM     28  C   UNL     1      -1.513  -1.277   1.178  0.00  0.00    +0.046 C 
ATOM     29  N   UNL     1      -0.343  -1.273   1.871  0.00  0.00    -0.269 N 
ATOM     30  O   UNL     1       0.633  -0.501   1.191  0.00  0.00    -0.266 OA
ATOM     31  C   UNL     1      -2.761  -2.001   1.614  0.00  0.00    +0.066 C 
ATOM     32  H   UNL     1      -0.196  -1.733   2.712  0.00  0.00    +0.194 HD
ENDBRANCH  21  27
ENDBRANCH  20  23
ENDBRANCH   1  20
TORSDOF 4
