REMARK  Name = ZINC07666742
REMARK  4 active torsions:
REMARK  status: ('A' for Active; 'I' for Inactive)
REMARK    1  A    between atoms: C_1  and  C_2
REMARK    2  A    between atoms: C_7  and  N_8
REMARK    3  A    between atoms: C_12  and  C_13
REMARK    4  A    between atoms: C_16  and  C_18
REMARK                            x       y       z     vdW  Elec       q    Type
REMARK                         _______ _______ _______ _____ _____    ______ ____
ROOT
ATOM      1  N   UNL     1      -0.017   1.397   0.010  0.00  0.00    -0.216 N 
ATOM      2  C   UNL     1      -1.131   2.157   0.019  0.00  0.00    +0.271 C 
ATOM      3  O   UNL     1      -2.283   1.765   0.021  0.00  0.00    -0.268 OA
ATOM      4  C   UNL     1      -0.675   3.552   0.028  0.00  0.00    +0.100 C 
ATOM      5  C   UNL     1      -1.448   4.674   0.041  0.00  0.00    +0.074 C 
ATOM      6  N   UNL     1       0.724   3.483   0.014  0.00  0.00    -0.292 N 
ATOM      7  C   UNL     1       1.070   2.183   0.004  0.00  0.00    +0.148 C 
ATOM      8  S   UNL     1       2.683   1.609  -0.015  0.00  0.00    -0.018 S 
ATOM      9  H   UNL     1       1.334   4.237   0.012  0.00  0.00    +0.154 HD
ENDROOT
BRANCH   1  16
ATOM     10  C   UNL     1      -0.022   0.065  -2.505  0.00  0.00    +0.045 C 
ATOM     11  C   UNL     1       0.001  -0.693  -1.203  0.00  0.00    -0.029 A 
ATOM     12  C   UNL     1       0.019  -2.074  -1.208  0.00  0.00    +0.005 A 
ATOM     13  C   UNL     1       0.040  -2.771  -0.013  0.00  0.00    +0.000 A 
ATOM     14  C   UNL     1       0.042  -2.087   1.189  0.00  0.00    +0.002 A 
ATOM     15  C   UNL     1       0.028  -0.706   1.200  0.00  0.00    +0.024 A 
ATOM     16  C   UNL     1       0.002  -0.004   0.002  0.00  0.00    +0.046 A 
ENDBRANCH   1  16
BRANCH   5  17
ATOM     17  C   UNL     1      -0.841   5.951   0.043  0.00  0.00    +0.130 A 
ATOM     18  C   UNL     1      -1.498   7.165   0.050  0.00  0.00    +0.049 A 
ATOM     19  C   UNL     1      -0.505   8.157   0.052  0.00  0.00    +0.045 A 
ATOM     20  C   UNL     1       0.690   7.526   0.037  0.00  0.00    +0.103 A 
ATOM     21  O   UNL     1       0.485   6.201   0.031  0.00  0.00    -0.461 OA
ATOM     22  C   UNL     1       2.036   8.204   0.028  0.00  0.00    +0.086 C 
ENDBRANCH   5  17
TORSDOF 2
