REMARK  Name = ZINC35357717
REMARK  6 active torsions:
REMARK  status: ('A' for Active; 'I' for Inactive)
REMARK    1  A    between atoms: C_1  and  C_2
REMARK    2  A    between atoms: C_2  and  O_3
REMARK    3  A    between atoms: O_3  and  C_4
REMARK    4  A    between atoms: C_4  and  C_6
REMARK    5  A    between atoms: C_6  and  N_7
REMARK    6  A    between atoms: C_20  and  C_22
REMARK                            x       y       z     vdW  Elec       q    Type
REMARK                         _______ _______ _______ _____ _____    ______ ____
ROOT
ATOM      1  N   UNL     1      -2.634  -4.078  -0.618  0.00  0.00    -0.289 N 
ATOM      2  C   UNL     1      -3.724  -4.658  -0.078  0.00  0.00    +0.303 C 
ATOM      3  O   UNL     1      -4.570  -3.975   0.466  0.00  0.00    -0.253 OA
ATOM      4  N   UNL     1      -3.877  -5.995  -0.141  0.00  0.00    -0.285 N 
ATOM      5  C   UNL     1      -2.810  -6.845  -0.689  0.00  0.00    +0.112 C 
ATOM      6  C   UNL     1      -3.398  -7.711  -1.809  0.00  0.00    +0.056 C 
ATOM      7  C   UNL     1      -4.616  -8.458  -1.286  0.00  0.00    +0.087 C 
ATOM      8  C   UNL     1      -5.687  -7.498  -0.788  0.00  0.00    +0.056 C 
ATOM      9  C   UNL     1      -5.110  -6.631   0.343  0.00  0.00    +0.112 C 
ATOM     10  N   UNL     1      -4.241  -9.421  -0.244  0.00  0.00    -0.282 N 
ATOM     11  C   UNL     1      -4.381 -10.833  -0.599  0.00  0.00    +0.120 C 
ATOM     12  C   UNL     1      -5.555 -11.038  -1.602  0.00  0.00    +0.090 C 
ATOM     13  S   UNL     1      -5.310  -9.514  -2.622  0.00  0.00    -0.133 S 
ATOM     14  C   UNL     1      -3.795  -9.028   0.965  0.00  0.00    +0.248 C 
ATOM     15  O   UNL     1      -3.501  -7.864   1.156  0.00  0.00    -0.270 OA
ATOM     16  H   UNL     1      -1.924  -4.627  -0.986  0.00  0.00    +0.151 HD
ENDROOT
BRANCH  14  17
ATOM     17  C   UNL     1      -3.661 -10.013   2.059  0.00  0.00    +0.037 A 
ATOM     18  C   UNL     1      -3.435 -11.359   1.767  0.00  0.00    +0.014 A 
ATOM     19  C   UNL     1      -3.311 -12.273   2.792  0.00  0.00    +0.021 A 
ATOM     20  C   UNL     1      -3.411 -11.858   4.109  0.00  0.00    +0.041 A 
ATOM     21  C   UNL     1      -3.635 -10.524   4.406  0.00  0.00    +0.021 A 
ATOM     22  C   UNL     1      -3.755  -9.600   3.389  0.00  0.00    +0.014 A 
ATOM     23 CL   UNL     1      -3.255 -13.015   5.394  0.00  0.00    -0.084 Cl
ENDBRANCH  14  17
BRANCH   1  24
ATOM     24  C   UNL     1      -2.521  -2.617  -0.649  0.00  0.00    +0.226 C 
BRANCH  24  25
ATOM     25  C   UNL     1      -1.219  -2.228  -1.299  0.00  0.00    +0.324 C 
ATOM     26  O   UNL     1      -0.462  -3.083  -1.696  0.00  0.00    -0.249 OA
BRANCH  25  27
ATOM     27  O   UNL     1      -0.899  -0.932  -1.438  0.00  0.00    -0.464 OA
BRANCH  27  29
ATOM     28  C   UNL     1       0.540   0.881  -2.132  0.00  0.00    +0.048 C 
ATOM     29  C   UNL     1       0.351  -0.635  -2.063  0.00  0.00    +0.229 C 
ENDBRANCH  27  29
ENDBRANCH  25  27
ENDBRANCH  24  25
ENDBRANCH   1  24
TORSDOF 5
