REMARK  Name = ZINC20469988
REMARK  3 active torsions:
REMARK  status: ('A' for Active; 'I' for Inactive)
REMARK    1  A    between atoms: C_4  and  C_7
REMARK    2  A    between atoms: N_14  and  N_15
REMARK    3  A    between atoms: C_16  and  C_17
REMARK                            x       y       z     vdW  Elec       q    Type
REMARK                         _______ _______ _______ _____ _____    ______ ____
ROOT
ATOM      1  C   UNL     1       3.690  -0.678  -0.037  0.00  0.00    +0.028 C 
ATOM      2  C   UNL     1       3.716  -2.031   0.058  0.00  0.00    +0.079 C 
ATOM      3  C   UNL     1       4.872  -2.954   0.169  0.00  0.00    +0.276 C 
ATOM      4  O   UNL     1       6.022  -2.546   0.187  0.00  0.00    -0.267 OA
ATOM      5  N   UNL     1       4.589  -4.234   0.246  0.00  0.00    -0.153 NA
ATOM      6  C   UNL     1       3.346  -4.690   0.228  0.00  0.00    +0.171 C 
ATOM      7  S   UNL     1       2.366  -3.203   0.092  0.00  0.00    -0.050 S 
ATOM      8  N   UNL     1       2.915  -5.988   0.301  0.00  0.00    -0.217 N 
ATOM      9  H   UNL     1       1.966  -6.186   0.276  0.00  0.00    +0.176 HD
ENDROOT
BRANCH   1  13
ATOM     10  C   UNL     1       0.039   1.321  -0.844  0.00  0.00    +0.000 A 
ATOM     11  C   UNL     1       1.164   2.053  -0.503  0.00  0.00    +0.001 A 
ATOM     12  C   UNL     1       2.355   1.410  -0.239  0.00  0.00    +0.008 A 
ATOM     13  C   UNL     1       2.425   0.015  -0.317  0.00  0.00    -0.024 A 
ATOM     14  C   UNL     1       1.283  -0.717  -0.662  0.00  0.00    +0.008 A 
ATOM     15  C   UNL     1       0.100  -0.059  -0.923  0.00  0.00    +0.001 A 
ENDBRANCH   1  13
BRANCH   8  16
ATOM     16  N   UNL     1       3.845  -7.029   0.411  0.00  0.00    -0.188 NA
ATOM     17  C   UNL     1       3.437  -8.260   0.480  0.00  0.00    +0.138 C 
BRANCH  17  18
ATOM     18  C   UNL     1       4.417  -9.356   0.596  0.00  0.00    -0.005 A 
ATOM     19  C   UNL     1       5.784  -9.074   0.637  0.00  0.00    +0.009 A 
ATOM     20  C   UNL     1       6.694 -10.105   0.746  0.00  0.00    +0.001 A 
ATOM     21  C   UNL     1       6.256 -11.415   0.813  0.00  0.00    +0.000 A 
ATOM     22  C   UNL     1       4.903 -11.702   0.772  0.00  0.00    +0.001 A 
ATOM     23  C   UNL     1       3.981 -10.681   0.670  0.00  0.00    +0.009 A 
ENDBRANCH  17  18
ENDBRANCH   8  16
TORSDOF 3
