REMARK  Name = ZINC33669346
REMARK  4 active torsions:
REMARK  status: ('A' for Active; 'I' for Inactive)
REMARK    1  A    between atoms: C_9  and  C_11
REMARK    2  A    between atoms: C_11  and  C_23
REMARK    3  A    between atoms: C_12  and  C_13
REMARK    4  A    between atoms: C_17  and  N_19
REMARK                            x       y       z     vdW  Elec       q    Type
REMARK                         _______ _______ _______ _____ _____    ______ ____
ROOT
ATOM      1  C   UNL     1       4.798   2.705   0.336  0.00  0.00    +0.094 C 
ATOM      2  C   UNL     1       5.340   3.867  -0.130  0.00  0.00    +0.030 C 
ENDROOT
BRANCH   1  11
ATOM      3  C   UNL     1      -0.438   2.182   3.220  0.00  0.00    +0.002 A 
ATOM      4  C   UNL     1      -0.373   3.568   3.210  0.00  0.00    +0.002 A 
ATOM      5  C   UNL     1       0.685   4.212   2.633  0.00  0.00    +0.030 A 
ATOM      6  C   UNL     1       1.719   3.470   2.050  0.00  0.00    +0.089 A 
ATOM      7  C   UNL     1       1.655   2.065   2.066  0.00  0.00    +0.066 A 
ATOM      8  C   UNL     1       0.572   1.430   2.657  0.00  0.00    +0.028 A 
ATOM      9  N   UNL     1       2.797   1.620   1.428  0.00  0.00    -0.337 N 
ATOM     10  H   UNL     1       2.977   0.541   1.314  0.00  0.00    +0.167 HD
ATOM     11  C   UNL     1       3.508   2.728   1.050  0.00  0.00    +0.150 A 
ATOM     12  N   UNL     1       2.868   3.812   1.419  0.00  0.00    -0.227 NA
ENDBRANCH   1  11
BRANCH   2  13
ATOM     13  C   UNL     1       4.548   5.103  -0.116  0.00  0.00    -0.021 A 
ATOM     14  C   UNL     1       3.208   5.086  -0.523  0.00  0.00    +0.009 A 
ATOM     15  C   UNL     1       2.471   6.250  -0.501  0.00  0.00    +0.018 A 
ATOM     16  C   UNL     1       3.055   7.437  -0.088  0.00  0.00    +0.048 A 
ATOM     17  C   UNL     1       4.381   7.463   0.310  0.00  0.00    +0.141 A 
ATOM     18  C   UNL     1       5.131   6.307   0.299  0.00  0.00    +0.041 A 
ATOM     19 BR   UNL     1       2.036   9.030  -0.070  0.00  0.00    -0.048 Br
BRANCH  17  20
ATOM     20  N   UNL     1       4.995   8.737   0.749  0.00  0.00    +0.058 N 
ATOM     21  O   UNL     1       6.161   8.762   1.099  0.00  0.00    -0.126 OA
ATOM     22  O   UNL     1       4.334   9.760   0.758  0.00  0.00    -0.126 OA
ENDBRANCH  17  20
ENDBRANCH   2  13
BRANCH   1  23
ATOM     23  C   UNL     1       5.482   1.464   0.131  0.00  0.00    +0.103 C 
ATOM     24  N   UNL     1       6.024   0.479  -0.031  0.00  0.00    -0.191 NA
ENDBRANCH   1  23
TORSDOF 4
