REMARK  Name = ZINC04237234
REMARK  7 active torsions:
REMARK  status: ('A' for Active; 'I' for Inactive)
REMARK    1  A    between atoms: C_1  and  N_62
REMARK    2  A    between atoms: C_2  and  N_62
REMARK    3  A    between atoms: C_3  and  C_4
REMARK    4  A    between atoms: C_3  and  N_62
REMARK    5  A    between atoms: C_9  and  C_10
REMARK    6  A    between atoms: N_24  and  S_26
REMARK    7  A    between atoms: S_26  and  C_29
REMARK                            x       y       z     vdW  Elec       q    Type
REMARK                         _______ _______ _______ _____ _____    ______ ____
ROOT
ATOM      1  C   UNL     1      -1.546  -0.736   0.385  0.00  0.00    +0.047 A 
ATOM      2  C   UNL     1      -2.175  -1.274  -0.728  0.00  0.00    +0.015 A 
ATOM      3  C   UNL     1      -3.344  -2.013  -0.543  0.00  0.00    +0.022 A 
ATOM      4  C   UNL     1      -3.866  -2.189   0.702  0.00  0.00    +0.026 A 
ATOM      5  N   UNL     1      -3.309  -1.589   1.779  0.00  0.00    -0.311 N 
ATOM      6  C   UNL     1      -2.123  -0.942   1.657  0.00  0.00    +0.259 A 
ATOM      7  O   UNL     1      -1.553  -0.529   2.654  0.00  0.00    -0.267 OA
ATOM      8  C   UNL     1      -3.939  -1.571   3.099  0.00  0.00    +0.130 C 
ATOM      9  C   UNL     1      -4.950  -2.690   3.272  0.00  0.00    +0.025 C 
ATOM     10  C   UNL     1      -5.878  -2.743   2.057  0.00  0.00    +0.017 C 
ATOM     11  C   UNL     1      -5.048  -3.123   0.829  0.00  0.00    +0.052 C 
ATOM     12  C   UNL     1      -4.498  -4.545   1.038  0.00  0.00    +0.119 C 
ATOM     13  N   UNL     1      -3.673  -4.522   2.256  0.00  0.00    -0.176 NA
ATOM     14  C   UNL     1      -4.276  -4.036   3.503  0.00  0.00    +0.114 C 
ENDROOT
BRANCH   1  20
ATOM     15  C   UNL     1       0.911  -0.626  -0.026  0.00  0.00    -0.056 A 
ATOM     16  C   UNL     1       2.079   0.096  -0.159  0.00  0.00    +0.002 A 
ATOM     17  C   UNL     1       2.062   1.473  -0.026  0.00  0.00    +0.000 A 
ATOM     18  C   UNL     1       0.876   2.134   0.240  0.00  0.00    +0.001 A 
ATOM     19  C   UNL     1      -0.298   1.422   0.374  0.00  0.00    +0.009 A 
ATOM     20  C   UNL     1      -0.288   0.034   0.242  0.00  0.00    -0.011 A 
BRANCH  15  21
ATOM     21  C   UNL     1       0.930  -2.126  -0.170  0.00  0.00    -0.043 C 
BRANCH  21  24
ATOM     22  C   UNL     1       1.467  -2.107  -2.531  0.00  0.00    -0.096 C 
ATOM     23  C   UNL     1       0.176  -3.930  -1.598  0.00  0.00    -0.096 C 
ATOM     24  N   UNL     1       0.453  -2.480  -1.524  0.00  0.00    +0.379 N 
ATOM     25  H   UNL     1      -0.414  -1.965  -1.716  0.00  0.00    -0.082 HD
ENDBRANCH  21  24
ENDBRANCH  15  21
ENDBRANCH   1  20
BRANCH  13  26
ATOM     26  S   UNL     1      -2.099  -5.034   2.221  0.00  0.00    +0.061 S 
ATOM     27  O   UNL     1      -1.629  -4.815   0.898  0.00  0.00    -0.153 OA
ATOM     28  O   UNL     1      -1.462  -4.468   3.358  0.00  0.00    -0.153 OA
BRANCH  26  29
ATOM     29  C   UNL     1      -2.112  -6.779   2.468  0.00  0.00    +0.106 A 
ATOM     30  C   UNL     1      -2.136  -7.294   3.750  0.00  0.00    +0.031 A 
ATOM     31  C   UNL     1      -2.153  -8.662   3.945  0.00  0.00    +0.040 A 
ATOM     32  C   UNL     1      -2.133  -9.517   2.855  0.00  0.00    +0.124 A 
ATOM     33  C   UNL     1      -2.104  -8.999   1.571  0.00  0.00    +0.040 A 
ATOM     34  C   UNL     1      -2.093  -7.630   1.379  0.00  0.00    +0.031 A 
ATOM     35  F   UNL     1      -2.143 -10.854   3.044  0.00  0.00    -0.205 F 
ENDBRANCH  26  29
ENDBRANCH  13  26
TORSDOF 5
