REMARK  Name = ZINC54219987
REMARK  3 active torsions:
REMARK  status: ('A' for Active; 'I' for Inactive)
REMARK    1  A    between atoms: C_1  and  C_2
REMARK    2  A    between atoms: C_8  and  C_13
REMARK    3  A    between atoms: C_13  and  N_14
REMARK                            x       y       z     vdW  Elec       q    Type
REMARK                         _______ _______ _______ _____ _____    ______ ____
ROOT
ATOM      1  C   UNL     1      -0.018   1.503   0.010  0.00  0.00    +0.044 C 
ATOM      2  C   UNL     1       0.002  -0.004   0.002  0.00  0.00    -0.050 A 
ATOM      3  C   UNL     1       0.006  -0.686  -1.206  0.00  0.00    +0.007 A 
ATOM      4  C   UNL     1       0.025  -2.065  -1.236  0.00  0.00    +0.047 A 
ATOM      5  C   UNL     1       0.041  -2.781  -0.046  0.00  0.00    +0.139 A 
ATOM      6  C   UNL     1       0.037  -2.087   1.176  0.00  0.00    +0.022 A 
ATOM      7  C   UNL     1       0.023  -0.689   1.185  0.00  0.00    +0.015 A 
ATOM      8  C   UNL     1       0.053  -2.850   2.428  0.00  0.00    -0.016 A 
ATOM      9  C   UNL     1       0.072  -4.205   2.351  0.00  0.00    +0.097 A 
ATOM     10  C   UNL     1       0.074  -4.837   1.089  0.00  0.00    +0.338 A 
ATOM     11  O   UNL     1       0.091  -6.053   1.034  0.00  0.00    -0.245 OA
ATOM     12  O   UNL     1       0.059  -4.131  -0.052  0.00  0.00    -0.422 OA
ENDROOT
BRANCH   8  13
ATOM     13  C   UNL     1       0.051  -2.150   3.762  0.00  0.00    +0.120 C 
BRANCH  13  14
ATOM     14  N   UNL     1       1.428  -1.797   4.133  0.00  0.00    -0.298 NA
ATOM     15  C   UNL     1       1.982  -0.800   3.208  0.00  0.00    +0.090 C 
ATOM     16  C   UNL     1       3.460  -0.569   3.532  0.00  0.00    +0.080 C 
ATOM     17  C   UNL     1       3.590  -0.088   4.979  0.00  0.00    +0.172 C 
ATOM     18  C   UNL     1       2.958  -1.115   5.920  0.00  0.00    +0.080 C 
ATOM     19  C   UNL     1       1.495  -1.330   5.523  0.00  0.00    +0.090 C 
ATOM     20  O   UNL     1       4.979   0.073   5.308  0.00  0.00    -0.346 OA
ATOM     21  C   UNL     1       5.251   1.478   5.086  0.00  0.00    +0.191 C 
ATOM     22  C   UNL     1       3.924   2.132   5.542  0.00  0.00    +0.191 C 
ATOM     23  O   UNL     1       2.928   1.174   5.128  0.00  0.00    -0.346 OA
ENDBRANCH  13  14
ENDBRANCH   8  13
TORSDOF 2
