REMARK  Name = ZINC56544381
REMARK  3 active torsions:
REMARK  status: ('A' for Active; 'I' for Inactive)
REMARK    1  A    between atoms: C_1  and  C_2
REMARK    2  A    between atoms: C_5  and  N_9
REMARK    3  A    between atoms: C_16  and  C_19
REMARK                            x       y       z     vdW  Elec       q    Type
REMARK                         _______ _______ _______ _____ _____    ______ ____
ROOT
ATOM      1  N   UNL     1       0.053  -4.172  -0.025  0.00  0.00    -0.267 N 
ATOM      2  C   UNL     1      -0.040  -4.840  -1.192  0.00  0.00    +0.307 C 
ATOM      3  O   UNL     1      -0.050  -4.229  -2.243  0.00  0.00    -0.252 OA
ATOM      4  N   UNL     1      -0.124  -6.185  -1.194  0.00  0.00    -0.280 N 
ATOM      5  C   UNL     1      -0.225  -6.939   0.066  0.00  0.00    +0.137 C 
ATOM      6  C   UNL     1       0.832  -8.049   0.051  0.00  0.00    +0.179 C 
ATOM      7  O   UNL     1       0.703  -8.807  -1.155  0.00  0.00    -0.369 OA
ATOM      8  C   UNL     1       0.935  -8.053  -2.347  0.00  0.00    +0.166 C 
ATOM      9  C   UNL     1      -0.123  -6.943  -2.455  0.00  0.00    +0.145 C 
ATOM     10  H   UNL     1       0.093  -4.661   0.812  0.00  0.00    +0.156 HD
ENDROOT
BRANCH   1  15
ATOM     11  C   UNL     1       0.214   1.501  -0.010  0.00  0.00    +0.044 C 
ATOM     12  C   UNL     1       0.171  -0.005  -0.013  0.00  0.00    -0.048 A 
ATOM     13  C   UNL     1       0.511  -0.702  -1.157  0.00  0.00    +0.005 A 
ATOM     14  C   UNL     1       0.473  -2.083  -1.164  0.00  0.00    +0.026 A 
ATOM     15  C   UNL     1       0.093  -2.772  -0.021  0.00  0.00    +0.070 A 
ATOM     16  C   UNL     1      -0.248  -2.069   1.129  0.00  0.00    +0.145 A 
ATOM     17  C   UNL     1      -0.203  -0.686   1.131  0.00  0.00    +0.043 A 
ATOM     18  F   UNL     1      -0.619  -2.735   2.245  0.00  0.00    -0.204 F 
ENDBRANCH   1  15
BRANCH   8  19
ATOM     19  C   UNL     1       0.834  -8.961  -3.545  0.00  0.00    -0.017 A 
ATOM     20  C   UNL     1      -0.148  -9.933  -3.594  0.00  0.00    +0.007 A 
ATOM     21  C   UNL     1      -0.241 -10.767  -4.693  0.00  0.00    +0.020 A 
ATOM     22  C   UNL     1       0.650 -10.629  -5.743  0.00  0.00    +0.041 A 
ATOM     23  C   UNL     1       1.632  -9.657  -5.692  0.00  0.00    +0.020 A 
ATOM     24  C   UNL     1       1.721  -8.820  -4.596  0.00  0.00    +0.007 A 
ATOM     25 CL   UNL     1       0.534 -11.677  -7.122  0.00  0.00    -0.084 Cl
ENDBRANCH   8  19
TORSDOF 2
