REMARK  Name = ZINC67266956
REMARK  5 active torsions:
REMARK  status: ('A' for Active; 'I' for Inactive)
REMARK    1  A    between atoms: C_1  and  C_2
REMARK    2  A    between atoms: C_2  and  C_4
REMARK    3  A    between atoms: C_2  and  N_10
REMARK    4  A    between atoms: C_4  and  C_5
REMARK    5  A    between atoms: C_11  and  C_13
REMARK                            x       y       z     vdW  Elec       q    Type
REMARK                         _______ _______ _______ _____ _____    ______ ____
ROOT
ATOM      1  C   UNL     1      -3.465  -1.164  -1.134  0.00  0.00    +0.075 C 
ATOM      2  C   UNL     1      -4.343  -0.238  -0.291  0.00  0.00    +0.015 C 
ATOM      3  C   UNL     1      -5.777  -0.774  -0.272  0.00  0.00    +0.036 C 
ATOM      4  C   UNL     1      -6.311  -0.851  -1.698  0.00  0.00    +0.112 C 
ATOM      5  C   UNL     1      -5.432  -1.755  -2.555  0.00  0.00    +0.036 C 
ATOM      6  C   UNL     1      -4.000  -1.215  -2.566  0.00  0.00    +0.015 C 
ATOM      7  C   UNL     1      -7.739  -1.346  -1.701  0.00  0.00    +0.244 C 
ATOM      8  O   UNL     1      -8.146  -2.417  -1.303  0.00  0.00    -0.273 OA
ATOM      9  N   UNL     1      -8.466  -0.346  -2.240  0.00  0.00    -0.238 N 
ATOM     10  C   UNL     1      -7.698   0.698  -2.573  0.00  0.00    +0.307 C 
ATOM     11  O   UNL     1      -8.125   1.719  -3.076  0.00  0.00    -0.252 OA
ATOM     12  N   UNL     1      -6.398   0.491  -2.288  0.00  0.00    -0.285 N 
ATOM     13  H   UNL     1      -9.427  -0.380  -2.371  0.00  0.00    +0.159 HD
ATOM     14  H   UNL     1      -5.664   1.107  -2.441  0.00  0.00    +0.151 HD
ENDROOT
BRANCH   1  16
ATOM     15  N   UNL     1      -1.372  -0.511   0.012  0.00  0.00    -0.312 N 
ATOM     16  C   UNL     1      -2.051  -0.643  -1.145  0.00  0.00    +0.216 C 
ATOM     17  O   UNL     1      -1.524  -0.341  -2.194  0.00  0.00    -0.276 OA
ATOM     18  H   UNL     1      -1.794  -0.752   0.852  0.00  0.00    +0.149 HD
BRANCH  15  20
ATOM     19  C   UNL     1      -0.019   1.526   0.010  0.00  0.00    +0.028 C 
ATOM     20  C   UNL     1       0.002  -0.004   0.002  0.00  0.00    +0.077 C 
BRANCH  20  21
ATOM     21  C   UNL     1       0.742  -0.511   1.242  0.00  0.00    +0.096 C 
BRANCH  21  22
ATOM     22  C   UNL     1       0.870  -2.011   1.172  0.00  0.00    +0.107 A 
ATOM     23  C   UNL     1       1.890  -2.688   0.616  0.00  0.00    +0.045 A 
ATOM     24  C   UNL     1       1.603  -4.064   0.773  0.00  0.00    +0.041 A 
ATOM     25  C   UNL     1       0.424  -4.144   1.415  0.00  0.00    +0.195 A 
ATOM     26  O   UNL     1      -0.013  -2.898   1.660  0.00  0.00    -0.468 OA
ENDBRANCH  21  22
ENDBRANCH  20  21
ENDBRANCH  15  20
ENDBRANCH   1  16
TORSDOF 4
