REMARK  Name = ZINC48907834
REMARK  6 active torsions:
REMARK  status: ('A' for Active; 'I' for Inactive)
REMARK    1  A    between atoms: C_1  and  C_2
REMARK    2  A    between atoms: C_5  and  C_20
REMARK    3  A    between atoms: C_6  and  S_9
REMARK    4  A    between atoms: S_9  and  N_12
REMARK    5  A    between atoms: N_12  and  C_13
REMARK    6  A    between atoms: N_17  and  C_19
REMARK                            x       y       z     vdW  Elec       q    Type
REMARK                         _______ _______ _______ _____ _____    ______ ____
ROOT
ATOM      1  S   UNL     1      -0.501  -2.853   2.651  0.00  0.00    +0.060 S 
ATOM      2  O   UNL     1      -1.223  -1.977   3.505  0.00  0.00    -0.153 OA
ATOM      3  O   UNL     1      -1.048  -4.075   2.175  0.00  0.00    -0.153 OA
ENDROOT
BRANCH   1   9
ATOM      4  C   UNL     1       1.094  -2.525  -2.318  0.00  0.00    +0.045 C 
ATOM      5  C   UNL     1       0.680  -1.822  -1.050  0.00  0.00    -0.029 A 
ATOM      6  C   UNL     1       0.653  -0.441  -1.003  0.00  0.00    +0.025 A 
ATOM      7  C   UNL     1       0.273   0.204   0.160  0.00  0.00    +0.046 A 
ATOM      8  C   UNL     1      -0.080  -0.534   1.276  0.00  0.00    -0.004 A 
ATOM      9  C   UNL     1      -0.052  -1.914   1.229  0.00  0.00    +0.128 A 
ATOM     10  C   UNL     1       0.322  -2.560   0.064  0.00  0.00    +0.070 A 
ATOM     11 CL   UNL     1       0.349  -4.294   0.003  0.00  0.00    -0.081 Cl
ATOM     12  C   UNL     1      -0.493   0.169   2.544  0.00  0.00    +0.047 C 
ATOM     13 CL   UNL     1       0.240   1.938   0.219  0.00  0.00    -0.083 Cl
ENDBRANCH   1   9
BRANCH   1  14
ATOM     14  N   UNL     1       0.900  -3.240   3.445  0.00  0.00    -0.189 NA
ATOM     15  H   UNL     1       1.154  -4.169   3.557  0.00  0.00    +0.148 HD
BRANCH  14  16
ATOM     16  C   UNL     1       1.757  -2.178   3.978  0.00  0.00    +0.058 C 
ATOM     17  C   UNL     1       2.921  -1.887   3.003  0.00  0.00    -0.000 C 
ATOM     18  C   UNL     1       4.120  -1.651   3.956  0.00  0.00    -0.078 C 
ATOM     19  N   UNL     1       3.890  -2.637   5.042  0.00  0.00    +0.379 N 
ATOM     20  C   UNL     1       2.429  -2.638   5.285  0.00  0.00    -0.059 C 
ATOM     21  C   UNL     1       4.604  -2.227   6.259  0.00  0.00    -0.096 C 
ATOM     22  H   UNL     1       4.196  -3.554   4.751  0.00  0.00    -0.082 HD
ENDBRANCH  14  16
ENDBRANCH   1  14
TORSDOF 3
