REMARK  Name = ZINC28050378
REMARK  5 active torsions:
REMARK  status: ('A' for Active; 'I' for Inactive)
REMARK    1  A    between atoms: C_3  and  C_6
REMARK    2  A    between atoms: N_7  and  N_8
REMARK    3  A    between atoms: C_12  and  C_15
REMARK    4  A    between atoms: C_15  and  C_16
REMARK    5  A    between atoms: N_18  and  C_19
REMARK                            x       y       z     vdW  Elec       q    Type
REMARK                         _______ _______ _______ _____ _____    ______ ____
ROOT
ATOM      1  N   UNL     1      -8.105   3.201   3.774  0.00  0.00    -0.127 NA
ATOM      2  C   UNL     1      -7.546   2.897   2.616  0.00  0.00    +0.183 C 
ATOM      3  N   UNL     1      -8.000   2.055   1.661  0.00  0.00    -0.263 N 
ATOM      4  C   UNL     1      -7.389   1.818   0.563  0.00  0.00    +0.233 C 
ATOM      5  C   UNL     1      -6.071   2.554   0.360  0.00  0.00    +0.149 C 
ATOM      6  S   UNL     1      -6.007   3.502   1.935  0.00  0.00    -0.075 S 
ATOM      7  O   UNL     1      -7.882   0.970  -0.358  0.00  0.00    -0.274 OA
ATOM      8  H   UNL     1      -8.951   1.522   1.805  0.00  0.00    +0.157 HD
ENDROOT
BRANCH   1  10
ATOM      9  C   UNL     1      -9.784   2.966   5.255  0.00  0.00    +0.150 C 
ATOM     10  N   UNL     1      -9.230   2.665   4.107  0.00  0.00    -0.154 NA
BRANCH   9  13
ATOM     11  C   UNL     1      -8.742   5.257   8.071  0.00  0.00    +0.008 A 
ATOM     12  C   UNL     1      -9.540   4.358   7.404  0.00  0.00    +0.017 A 
ATOM     13  C   UNL     1      -9.128   3.909   6.159  0.00  0.00    +0.032 A 
ATOM     14  S   UNL     1      -7.582   4.778   5.950  0.00  0.00    -0.096 S 
ATOM     15  C   UNL     1      -7.584   5.674   7.494  0.00  0.00    +0.046 A 
ENDBRANCH   9  13
ENDBRANCH   1  10
BRANCH   5  16
ATOM     16  C   UNL     1      -4.898   1.578   0.248  0.00  0.00    +0.120 C 
BRANCH  16  17
ATOM     17  C   UNL     1      -3.610   2.352   0.133  0.00  0.00    +0.219 C 
ATOM     18  O   UNL     1      -3.629   3.565   0.141  0.00  0.00    -0.275 OA
ATOM     19  N   UNL     1      -2.438   1.696   0.022  0.00  0.00    -0.284 N 
ATOM     20  H   UNL     1      -2.427   0.600  -0.059  0.00  0.00    +0.155 HD
BRANCH  19  21
ATOM     21  C   UNL     1      -1.234   2.412   0.010  0.00  0.00    +0.052 A 
ATOM     22  C   UNL     1      -1.175   3.663  -0.588  0.00  0.00    +0.026 A 
ATOM     23  C   UNL     1       0.015   4.364  -0.605  0.00  0.00    +0.022 A 
ATOM     24  C   UNL     1       1.147   3.823  -0.021  0.00  0.00    +0.042 A 
ATOM     25  C   UNL     1       1.090   2.579   0.582  0.00  0.00    +0.041 A 
ATOM     26  C   UNL     1      -0.098   1.873   0.601  0.00  0.00    +0.064 A 
ATOM     27 CL   UNL     1      -0.169   0.311   1.357  0.00  0.00    -0.082 Cl
ATOM     28 CL   UNL     1       2.641   4.707  -0.043  0.00  0.00    -0.083 Cl
ENDBRANCH  19  21
ENDBRANCH  16  17
ENDBRANCH   5  16
TORSDOF 5
