REMARK  Name = ZINC09339249
REMARK  2 active torsions:
REMARK  status: ('A' for Active; 'I' for Inactive)
REMARK    1  A    between atoms: C_8  and  C_10
REMARK    2  A    between atoms: N_21  and  C_22
REMARK                            x       y       z     vdW  Elec       q    Type
REMARK                         _______ _______ _______ _____ _____    ______ ____
ROOT
ATOM      1  C   UNL     1      -4.869   2.339   0.041  0.00  0.00    +0.229 C 
ATOM      2  N   UNL     1      -5.424   3.506  -0.653  0.00  0.00    -0.319 N 
ATOM      3  C   UNL     1      -5.374   3.545  -2.042  0.00  0.00    +0.041 A 
ATOM      4  C   UNL     1      -5.308   4.741  -2.736  0.00  0.00    +0.024 A 
ATOM      5  C   UNL     1      -5.270   4.730  -4.117  0.00  0.00    +0.002 A 
ATOM      6  C   UNL     1      -5.299   3.531  -4.813  0.00  0.00    +0.001 A 
ATOM      7  C   UNL     1      -5.361   2.330  -4.137  0.00  0.00    +0.015 A 
ATOM      8  C   UNL     1      -5.394   2.327  -2.744  0.00  0.00    +0.058 A 
ATOM      9  C   UNL     1      -5.435   1.070  -1.976  0.00  0.00    +0.250 C 
ATOM     10  O   UNL     1      -5.620   0.010  -2.543  0.00  0.00    -0.270 OA
ATOM     11  N   UNL     1      -5.267   1.106  -0.639  0.00  0.00    -0.269 N 
ATOM     12  H   UNL     1      -5.820   4.237  -0.153  0.00  0.00    +0.148 HD
ENDROOT
BRANCH   1  20
ATOM     13  C   UNL     1       1.135   3.236   0.101  0.00  0.00    +0.001 A 
ATOM     14  C   UNL     1       1.153   1.849   0.097  0.00  0.00    +0.004 A 
ATOM     15  C   UNL     1      -0.023   1.130   0.089  0.00  0.00    +0.047 A 
ATOM     16  C   UNL     1      -1.241   1.798   0.078  0.00  0.00    +0.135 A 
ATOM     17  C   UNL     1      -1.253   3.203   0.087  0.00  0.00    +0.021 A 
ATOM     18  C   UNL     1      -0.053   3.913   0.095  0.00  0.00    +0.011 A 
ATOM     19  C   UNL     1      -2.671   3.583   0.079  0.00  0.00    +0.057 A 
ATOM     20  C   UNL     1      -3.365   2.437   0.057  0.00  0.00    +0.145 A 
ATOM     21  O   UNL     1      -2.525   1.387   0.063  0.00  0.00    -0.456 OA
ENDBRANCH   1  20
BRANCH  11  22
ATOM     22  C   UNL     1      -5.485  -0.111   0.147  0.00  0.00    +0.079 C 
ATOM     23  C   UNL     1      -5.341  -0.006   1.667  0.00  0.00    +0.024 C 
ATOM     24  C   UNL     1      -4.272  -0.730   0.844  0.00  0.00    +0.024 C 
ENDBRANCH  11  22
TORSDOF 2
