REMARK  Name = ZINC04859590
REMARK  3 active torsions:
REMARK  status: ('A' for Active; 'I' for Inactive)
REMARK    1  A    between atoms: C_6  and  C_7
REMARK    2  A    between atoms: C_17  and  N_25
REMARK    3  A    between atoms: C_20  and  C_23
REMARK                            x       y       z     vdW  Elec       q    Type
REMARK                         _______ _______ _______ _____ _____    ______ ____
ROOT
ATOM      1  C   UNL     1      -0.410   3.177   1.460  0.00  0.00    +0.105 C 
ATOM      2  C   UNL     1      -0.376   1.650   1.214  0.00  0.00    +0.029 C 
ATOM      3  C   UNL     1       0.664   1.353   0.098  0.00  0.00    +0.033 C 
ATOM      4  C   UNL     1      -0.092   1.638  -1.184  0.00  0.00    -0.030 C 
ATOM      5  C   UNL     1      -1.384   1.582  -0.978  0.00  0.00    -0.023 C 
ATOM      6  C   UNL     1      -1.676   1.261   0.470  0.00  0.00    +0.051 C 
ATOM      7  C   UNL     1      -2.860   2.044   0.955  0.00  0.00    +0.012 A 
ATOM      8  C   UNL     1      -4.115   1.684   0.485  0.00  0.00    +0.132 A 
ATOM      9  C   UNL     1      -5.249   2.364   0.887  0.00  0.00    +0.034 A 
ATOM     10  C   UNL     1      -5.150   3.420   1.768  0.00  0.00    +0.019 A 
ATOM     11  C   UNL     1      -3.897   3.797   2.253  0.00  0.00    +0.084 A 
ATOM     12  C   UNL     1      -2.743   3.100   1.842  0.00  0.00    +0.048 A 
ATOM     13  N   UNL     1      -1.521   3.506   2.354  0.00  0.00    -0.336 N 
ATOM     14  H   UNL     1      -1.530   4.491   2.572  0.00  0.00    +0.147 HD
ENDROOT
BRANCH   1  20
ATOM     15  C   UNL     1       0.490   4.069  -0.698  0.00  0.00    +0.007 A 
ATOM     16  C   UNL     1       0.326   4.725  -1.903  0.00  0.00    +0.020 A 
ATOM     17  C   UNL     1      -0.917   5.220  -2.257  0.00  0.00    +0.041 A 
ATOM     18  C   UNL     1      -1.995   5.053  -1.407  0.00  0.00    +0.020 A 
ATOM     19  C   UNL     1      -1.831   4.392  -0.204  0.00  0.00    +0.007 A 
ATOM     20  C   UNL     1      -0.589   3.898   0.149  0.00  0.00    -0.027 A 
ATOM     21 CL   UNL     1      -1.123   6.050  -3.768  0.00  0.00    -0.084 Cl
ENDBRANCH   1  20
BRANCH  11  22
ATOM     22  C   UNL     1      -3.781   4.924   3.195  0.00  0.00    +0.388 C 
ATOM     23  O   UNL     1      -2.710   5.178   3.709  0.00  0.00    -0.241 OA
ATOM     24  O   UNL     1      -4.863   5.672   3.486  0.00  0.00    -0.241 OA
ENDBRANCH  11  22
BRANCH   8  25
ATOM     25  N   UNL     1      -4.241   0.553  -0.461  0.00  0.00    +0.057 N 
ATOM     26  O   UNL     1      -5.338   0.228  -0.880  0.00  0.00    -0.126 OA
ATOM     27  O   UNL     1      -3.248  -0.053  -0.822  0.00  0.00    -0.126 OA
ENDBRANCH   8  25
TORSDOF 3
