REMARK  Name = ZINC02299984
REMARK  5 active torsions:
REMARK  status: ('A' for Active; 'I' for Inactive)
REMARK    1  A    between atoms: C_2  and  C_3
REMARK    2  A    between atoms: C_3  and  N_4
REMARK    3  A    between atoms: C_5  and  C_7
REMARK    4  A    between atoms: N_18  and  C_21
REMARK    5  A    between atoms: C_19  and  N_20
REMARK                            x       y       z     vdW  Elec       q    Type
REMARK                         _______ _______ _______ _____ _____    ______ ____
ROOT
ATOM      1  C   UNL     1      -2.411  -3.420  -2.455  0.00  0.00    +0.103 A 
ATOM      2  C   UNL     1      -1.931  -4.811  -2.470  0.00  0.00    +0.122 A 
ATOM      3  C   UNL     1      -2.179  -5.293  -3.831  0.00  0.00    +0.162 A 
ATOM      4  N   UNL     1      -1.847  -6.526  -4.152  0.00  0.00    -0.226 NA
ATOM      5  C   UNL     1      -1.288  -7.326  -3.235  0.00  0.00    +0.092 A 
ATOM      6  C   UNL     1      -0.929  -8.645  -3.569  0.00  0.00    +0.030 A 
ATOM      7  C   UNL     1      -0.362  -9.451  -2.632  0.00  0.00    +0.002 A 
ATOM      8  C   UNL     1      -0.128  -8.990  -1.337  0.00  0.00    +0.002 A 
ATOM      9  C   UNL     1      -0.460  -7.722  -0.977  0.00  0.00    +0.030 A 
ATOM     10  C   UNL     1      -1.049  -6.858  -1.919  0.00  0.00    +0.090 A 
ATOM     11  N   UNL     1      -1.381  -5.608  -1.575  0.00  0.00    -0.241 NA
ATOM     12  N   UNL     1      -2.754  -4.251  -4.529  0.00  0.00    -0.309 N 
ATOM     13  C   UNL     1      -2.898  -3.158  -3.731  0.00  0.00    +0.113 A 
ENDROOT
BRANCH  12  14
ATOM     14  C   UNL     1      -3.160  -4.314  -5.935  0.00  0.00    +0.090 C 
ATOM     15  C   UNL     1      -2.395  -3.258  -6.735  0.00  0.00    +0.025 C 
ATOM     16  C   UNL     1      -2.820  -3.324  -8.203  0.00  0.00    +0.002 C 
ATOM     17  C   UNL     1      -4.322  -3.058  -8.313  0.00  0.00    +0.000 C 
ATOM     18  C   UNL     1      -5.087  -4.114  -7.513  0.00  0.00    +0.002 C 
ATOM     19  C   UNL     1      -4.663  -4.048  -6.044  0.00  0.00    +0.025 C 
ENDBRANCH  12  14
BRANCH   1  21
ATOM     20  N   UNL     1      -1.318  -1.700  -1.126  0.00  0.00    -0.308 N 
ATOM     21  C   UNL     1      -2.386  -2.498  -1.322  0.00  0.00    +0.250 C 
ATOM     22  O   UNL     1      -3.330  -2.451  -0.554  0.00  0.00    -0.270 OA
ATOM     23  H   UNL     1      -0.566  -1.737  -1.737  0.00  0.00    +0.149 HD
BRANCH  20  24
ATOM     24  C   UNL     1      -1.293  -0.775   0.010  0.00  0.00    +0.131 C 
BRANCH  24  26
ATOM     25  C   UNL     1      -0.016   1.306   0.009  0.00  0.00    +0.005 C 
ATOM     26  C   UNL     1       0.002  -0.004   0.002  0.00  0.00    -0.016 C 
ENDBRANCH  24  26
ENDBRANCH  20  24
ENDBRANCH   1  21
BRANCH  13  27
ATOM     27  N   UNL     1      -3.442  -1.965  -4.130  0.00  0.00    -0.344 N 
ATOM     28  H   UNL     1      -3.508  -1.228  -3.503  0.00  0.00    +0.144 HD
ATOM     29  H   UNL     1      -3.762  -1.858  -5.040  0.00  0.00    +0.144 HD
ENDBRANCH  13  27
TORSDOF 5
