REMARK  Name = ZINC59742596
REMARK  5 active torsions:
REMARK  status: ('A' for Active; 'I' for Inactive)
REMARK    1  A    between atoms: C_1  and  C_2
REMARK    2  A    between atoms: N_8  and  C_12
REMARK    3  A    between atoms: C_12  and  C_13
REMARK    4  A    between atoms: N_15  and  C_16
REMARK    5  A    between atoms: C_22  and  C_24
REMARK                            x       y       z     vdW  Elec       q    Type
REMARK                         _______ _______ _______ _____ _____    ______ ____
ROOT
ATOM      1  C   UNL     1       0.059  -2.795   3.636  0.00  0.00    +0.224 C 
ENDROOT
BRANCH   1   9
ATOM      2  C   UNL     1      -0.018   1.503   0.010  0.00  0.00    +0.044 C 
ATOM      3  C   UNL     1       0.002  -0.004   0.002  0.00  0.00    -0.048 A 
ATOM      4  C   UNL     1       0.006  -0.688  -1.202  0.00  0.00    +0.007 A 
ATOM      5  C   UNL     1       0.025  -2.069  -1.219  0.00  0.00    +0.049 A 
ATOM      6  C   UNL     1       0.041  -2.775  -0.026  0.00  0.00    +0.157 A 
ATOM      7  C   UNL     1       0.037  -2.085   1.186  0.00  0.00    +0.091 A 
ATOM      8  C   UNL     1       0.023  -0.699   1.196  0.00  0.00    +0.033 A 
ATOM      9  N   UNL     1       0.055  -3.050   2.193  0.00  0.00    -0.265 N 
ATOM     10  C   UNL     1       0.069  -4.258   1.597  0.00  0.00    +0.422 A 
ATOM     11  O   UNL     1       0.087  -5.327   2.176  0.00  0.00    -0.223 OA
ATOM     12  O   UNL     1       0.060  -4.099   0.264  0.00  0.00    -0.407 OA
ENDBRANCH   1   9
BRANCH   1  13
ATOM     13  C   UNL     1      -1.360  -2.727   4.138  0.00  0.00    +0.233 C 
ATOM     14  O   UNL     1      -2.284  -2.877   3.367  0.00  0.00    -0.274 OA
ATOM     15  N   UNL     1      -1.602  -2.501   5.444  0.00  0.00    -0.311 N 
ATOM     16  H   UNL     1      -0.863  -2.382   6.061  0.00  0.00    +0.149 HD
BRANCH  15  17
ATOM     17  C   UNL     1      -2.982  -2.435   5.933  0.00  0.00    +0.076 C 
ATOM     18  C   UNL     1      -3.525  -1.018   5.737  0.00  0.00    +0.022 C 
ATOM     19  C   UNL     1      -2.659  -0.028   6.519  0.00  0.00    +0.002 C 
ATOM     20  C   UNL     1      -2.692  -0.385   8.006  0.00  0.00    +0.000 C 
ATOM     21  C   UNL     1      -2.149  -1.802   8.202  0.00  0.00    +0.005 C 
ATOM     22  C   UNL     1      -3.014  -2.792   7.420  0.00  0.00    +0.006 C 
ATOM     23  C   UNL     1      -2.471  -4.210   7.616  0.00  0.00    +0.009 C 
ENDBRANCH  15  17
ENDBRANCH   1  13
TORSDOF 3
