REMARK  Name = ZINC16740205
REMARK  8 active torsions:
REMARK  status: ('A' for Active; 'I' for Inactive)
REMARK    1  A    between atoms: C_1  and  C_2
REMARK    2  A    between atoms: C_6  and  C_7
REMARK    3  A    between atoms: C_7  and  O_9
REMARK    4  A    between atoms: O_9  and  C_10
REMARK    5  A    between atoms: C_15  and  C_17
REMARK    6  A    between atoms: C_15  and  C_18
REMARK    7  A    between atoms: C_20  and  C_24
REMARK    8  A    between atoms: C_20  and  C_25
REMARK                            x       y       z     vdW  Elec       q    Type
REMARK                         _______ _______ _______ _____ _____    ______ ____
ROOT
ATOM      1  C   UNL     1      -2.627  -7.184   0.024  0.00  0.00    +0.048 C 
ATOM      2  C   UNL     1      -3.613  -6.257   0.687  0.00  0.00    +0.013 A 
ATOM      3  C   UNL     1      -4.822  -6.614   1.301  0.00  0.00    +0.062 A 
ATOM      4  C   UNL     1      -5.404  -5.442   1.774  0.00  0.00    +0.117 A 
ATOM      5  O   UNL     1      -4.593  -4.437   1.474  0.00  0.00    -0.452 OA
ATOM      6  C   UNL     1      -3.508  -4.901   0.812  0.00  0.00    +0.216 A 
ATOM      7  C   UNL     1      -6.727  -5.420   2.495  0.00  0.00    +0.082 C 
ATOM      8  C   UNL     1      -7.504  -6.698   2.165  0.00  0.00    -0.021 C 
ATOM      9  C   UNL     1      -6.648  -7.938   2.438  0.00  0.00    +0.086 C 
ATOM     10  C   UNL     1      -5.465  -7.925   1.480  0.00  0.00    +0.167 C 
ATOM     11  O   UNL     1      -5.080  -8.922   0.908  0.00  0.00    -0.292 OA
ATOM     12  C   UNL     1      -7.905  -6.677   0.689  0.00  0.00    +0.012 C 
ATOM     13  C   UNL     1      -8.766  -6.756   3.029  0.00  0.00    +0.012 C 
ENDROOT
BRANCH   6  14
ATOM     14  C   UNL     1      -2.398  -4.082   0.315  0.00  0.00    +0.380 C 
ATOM     15  O   UNL     1      -1.467  -4.608  -0.265  0.00  0.00    -0.241 OA
BRANCH  14  16
ATOM     16  O   UNL     1      -2.409  -2.745   0.500  0.00  0.00    -0.425 OA
BRANCH  16  17
ATOM     17  C   UNL     1      -1.415  -2.039  -0.073  0.00  0.00    +0.113 C 
ATOM     18  C   UNL     1      -0.518  -1.410   0.705  0.00  0.00    +0.088 C 
ATOM     19  C   UNL     1       0.533  -0.656   0.159  0.00  0.00    +0.160 C 
ATOM     20  O   UNL     1       1.326  -0.106   0.897  0.00  0.00    -0.293 OA
ATOM     21  C   UNL     1       0.687  -0.523  -1.334  0.00  0.00    +0.086 C 
ATOM     22  C   UNL     1      -0.693  -0.642  -1.990  0.00  0.00    -0.021 C 
ATOM     23  C   UNL     1      -1.329  -1.971  -1.575  0.00  0.00    +0.081 C 
ATOM     24  C   UNL     1      -0.541  -0.599  -3.512  0.00  0.00    +0.012 C 
ATOM     25  C   UNL     1      -1.580   0.517  -1.531  0.00  0.00    +0.012 C 
ENDBRANCH  16  17
ENDBRANCH  14  16
ENDBRANCH   6  14
TORSDOF 3
