REMARK  Name = ZINC19577655
REMARK  11 active torsions:
REMARK  status: ('A' for Active; 'I' for Inactive)
REMARK    1  A    between atoms: C_1  and  C_2
REMARK    2  A    between atoms: C_3  and  C_9
REMARK    3  A    between atoms: C_4  and  C_8
REMARK    4  A    between atoms: N_5  and  C_7
REMARK    5  A    between atoms: C_9  and  C_11
REMARK    6  A    between atoms: C_9  and  N_12
REMARK    7  A    between atoms: C_13  and  C_15
REMARK    8  A    between atoms: C_20  and  C_29
REMARK    9  A    between atoms: C_23  and  C_26
REMARK   10  A    between atoms: C_26  and  C_27
REMARK   11  A    between atoms: C_26  and  C_28
REMARK                            x       y       z     vdW  Elec       q    Type
REMARK                         _______ _______ _______ _____ _____    ______ ____
ROOT
ATOM      1  C   UNL     1       3.948   0.726  -2.165  0.00  0.00    +0.149 A 
ATOM      2  C   UNL     1       3.485   1.718  -1.272  0.00  0.00    +0.078 A 
ATOM      3  C   UNL     1       2.248   1.363  -0.874  0.00  0.00    +0.119 A 
ATOM      4  N   UNL     1       1.925   0.186  -1.487  0.00  0.00    -0.238 N 
ATOM      5  N   UNL     1       3.003  -0.190  -2.288  0.00  0.00    -0.164 NA
ATOM      6  C   UNL     1       0.650  -0.510  -1.292  0.00  0.00    +0.214 C 
ATOM      7  C   UNL     1       0.002  -0.004   0.002  0.00  0.00    +0.058 C 
ATOM      8  C   UNL     1      -0.019   1.528   0.010  0.00  0.00    +0.077 C 
ATOM      9  N   UNL     1       1.374   2.017  -0.000  0.00  0.00    -0.326 N 
ATOM     10  H   UNL     1       1.670   2.849   0.656  0.00  0.00    +0.148 HD
ENDROOT
BRANCH   1  12
ATOM     11  N   UNL     1       5.579  -0.298  -3.676  0.00  0.00    -0.303 N 
ATOM     12  C   UNL     1       5.260   0.713  -2.843  0.00  0.00    +0.265 C 
ATOM     13  O   UNL     1       6.052   1.615  -2.651  0.00  0.00    -0.268 OA
ATOM     14  H   UNL     1       4.862  -1.114  -3.850  0.00  0.00    +0.150 HD
BRANCH  11  15
ATOM     15  C   UNL     1       6.880  -0.310  -4.348  0.00  0.00    +0.104 C 
ATOM     16  C   UNL     1       7.927  -0.935  -3.424  0.00  0.00    +0.033 C 
BRANCH  15  19
ATOM     17  C   UNL     1       5.483  -3.138  -4.652  0.00  0.00    +0.068 C 
ATOM     18  C   UNL     1       6.166  -2.366  -5.751  0.00  0.00    +0.065 A 
ATOM     19  C   UNL     1       6.783  -1.118  -5.616  0.00  0.00    +0.016 A 
ATOM     20  C   UNL     1       7.282  -0.767  -6.824  0.00  0.00    +0.041 A 
ATOM     21  N   UNL     1       6.986  -1.756  -7.694  0.00  0.00    -0.271 N 
ATOM     22  N   UNL     1       6.282  -2.747  -6.998  0.00  0.00    -0.176 NA
ATOM     23  C   UNL     1       7.338  -1.787  -9.116  0.00  0.00    +0.172 C 
ATOM     24  C   UNL     1       8.033   0.500  -7.142  0.00  0.00    +0.065 C 
ENDBRANCH  15  19
ENDBRANCH  11  15
ENDBRANCH   1  12
BRANCH   6  25
ATOM     25  C   UNL     1       0.899  -2.016  -1.185  0.00  0.00    +0.412 C 
ATOM     26  F   UNL     1      -0.317  -2.677  -0.985  0.00  0.00    -0.168 F 
ATOM     27  F   UNL     1       1.491  -2.476  -2.366  0.00  0.00    -0.168 F 
ATOM     28  F   UNL     1       1.752  -2.272  -0.106  0.00  0.00    -0.168 F 
ENDBRANCH   6  25
BRANCH   8  29
ATOM     29  C   UNL     1      -0.728   2.026   1.272  0.00  0.00    +0.003 C 
ATOM     30  C   UNL     1      -0.747   3.556   1.276  0.00  0.00    +0.009 C 
ATOM     31  C   UNL     1      -2.164   1.498   1.291  0.00  0.00    +0.009 C 
ENDBRANCH   8  29
TORSDOF 5
