REMARK  Name = ZINC66178542
REMARK  7 active torsions:
REMARK  status: ('A' for Active; 'I' for Inactive)
REMARK    1  A    between atoms: C_1  and  C_2
REMARK    2  A    between atoms: C_2  and  C_4
REMARK    3  A    between atoms: C_2  and  N_10
REMARK    4  A    between atoms: N_13  and  C_14
REMARK    5  A    between atoms: N_13  and  C_15
REMARK    6  A    between atoms: N_18  and  C_21
REMARK    7  A    between atoms: C_21  and  C_22
REMARK                            x       y       z     vdW  Elec       q    Type
REMARK                         _______ _______ _______ _____ _____    ______ ____
ROOT
ATOM      1  N   UNL     1       0.688  -0.476  -1.203  0.00  0.00    -0.292 N 
ATOM      2  C   UNL     1       2.031  -0.587  -1.215  0.00  0.00    +0.303 C 
ATOM      3  O   UNL     1       2.674  -0.294  -0.225  0.00  0.00    -0.253 OA
ATOM      4  N   UNL     1       2.662  -1.022  -2.324  0.00  0.00    -0.286 N 
ATOM      5  C   UNL     1       1.887  -1.374  -3.517  0.00  0.00    +0.134 C 
ATOM      6  H   UNL     1       0.175  -0.710  -1.993  0.00  0.00    +0.151 HD
ENDROOT
BRANCH   4   7
ATOM      7  C   UNL     1       4.122  -1.142  -2.336  0.00  0.00    +0.074 C 
ATOM      8  C   UNL     1       4.700  -0.248  -3.438  0.00  0.00    +0.004 C 
ATOM      9  C   UNL     1       6.217  -0.439  -3.498  0.00  0.00    -0.077 C 
ATOM     10  N   UNL     1       6.526  -1.843  -3.793  0.00  0.00    +0.382 N 
ATOM     11  C   UNL     1       6.038  -2.699  -2.705  0.00  0.00    -0.077 C 
ATOM     12  C   UNL     1       4.514  -2.596  -2.614  0.00  0.00    +0.004 C 
ATOM     13  H   UNL     1       6.079  -2.111  -4.657  0.00  0.00    -0.081 HD
BRANCH  10  14
ATOM     14  C   UNL     1       7.980  -2.005  -3.926  0.00  0.00    -0.043 C 
BRANCH  14  15
ATOM     15  C   UNL     1       8.291  -3.418  -4.349  0.00  0.00    -0.061 A 
ATOM     16  C   UNL     1       8.501  -4.411  -3.405  0.00  0.00    +0.021 A 
ATOM     17  C   UNL     1       8.784  -5.695  -3.830  0.00  0.00    +0.111 A 
ATOM     18  N   UNL     1       8.856  -5.980  -5.116  0.00  0.00    -0.263 NA
ATOM     19  C   UNL     1       8.662  -5.060  -6.042  0.00  0.00    +0.111 A 
ATOM     20  C   UNL     1       8.369  -3.756  -5.692  0.00  0.00    +0.021 A 
ENDBRANCH  14  15
ENDBRANCH  10  14
ENDBRANCH   4   7
BRANCH   1  22
ATOM     21  C   UNL     1      -0.019   1.526   0.010  0.00  0.00    +0.033 C 
ATOM     22  C   UNL     1       0.002  -0.004   0.002  0.00  0.00    +0.108 C 
BRANCH  22  23
ATOM     23  C   UNL     1      -1.412  -0.526   0.013  0.00  0.00    +0.011 A 
ATOM     24  C   UNL     1      -2.141  -0.993   1.055  0.00  0.00    +0.014 A 
ATOM     25  C   UNL     1      -3.435  -1.425   0.828  0.00  0.00    +0.028 A 
ATOM     26  C   UNL     1      -3.935  -1.368  -0.431  0.00  0.00    +0.078 A 
ATOM     27  S   UNL     1      -2.563  -0.681  -1.343  0.00  0.00    -0.080 S 
ATOM     28 CL   UNL     1      -5.505  -1.836  -1.006  0.00  0.00    -0.076 Cl
ENDBRANCH  22  23
ENDBRANCH   1  22
TORSDOF 5
