REMARK  Name = ZINC44435185
REMARK  8 active torsions:
REMARK  status: ('A' for Active; 'I' for Inactive)
REMARK    1  A    between atoms: C_1  and  C_2
REMARK    2  A    between atoms: C_5  and  N_9
REMARK    3  A    between atoms: C_7  and  C_8
REMARK    4  A    between atoms: C_11  and  C_16
REMARK    5  A    between atoms: C_18  and  C_21
REMARK    6  A    between atoms: C_21  and  C_22
REMARK    7  A    between atoms: C_21  and  C_23
REMARK    8  A    between atoms: C_21  and  C_24
REMARK                            x       y       z     vdW  Elec       q    Type
REMARK                         _______ _______ _______ _____ _____    ______ ____
ROOT
ATOM      1  N   UNL     1       0.059  -4.170  -0.021  0.00  0.00    -0.271 N 
ATOM      2  C   UNL     1      -0.037  -4.992  -1.232  0.00  0.00    +0.127 C 
ATOM      3  C   UNL     1       0.457  -6.396  -0.817  0.00  0.00    +0.104 C 
ATOM      4  C   UNL     1       0.163  -6.397   0.701  0.00  0.00    +0.111 C 
ATOM      5  C   UNL     1       0.172  -4.933   1.080  0.00  0.00    +0.221 C 
ATOM      6  O   UNL     1       0.265  -4.509   2.212  0.00  0.00    -0.275 OA
ENDROOT
BRANCH   1  11
ATOM      7  C   UNL     1      -0.015   1.503   0.010  0.00  0.00    +0.044 C 
ATOM      8  C   UNL     1       0.005  -0.004   0.002  0.00  0.00    -0.047 A 
ATOM      9  C   UNL     1       0.005  -0.701   1.197  0.00  0.00    +0.005 A 
ATOM     10  C   UNL     1       0.023  -2.082   1.193  0.00  0.00    +0.024 A 
ATOM     11  C   UNL     1       0.040  -2.771  -0.013  0.00  0.00    +0.037 A 
ATOM     12  C   UNL     1       0.039  -2.068  -1.211  0.00  0.00    +0.027 A 
ATOM     13  C   UNL     1       0.017  -0.687  -1.200  0.00  0.00    -0.046 A 
ATOM     14  C   UNL     1       0.010   0.076  -2.499  0.00  0.00    +0.044 C 
ENDBRANCH   1  11
BRANCH   3  15
ATOM     15  C   UNL     1      -0.329  -7.474  -1.520  0.00  0.00    +0.232 A 
ATOM     16  N   UNL     1       0.164  -8.384  -2.313  0.00  0.00    -0.195 NA
ATOM     17  C   UNL     1      -0.814  -9.179  -2.763  0.00  0.00    +0.177 A 
ATOM     18  N   UNL     1      -1.947  -8.781  -2.258  0.00  0.00    -0.061 NA
ATOM     19  O   UNL     1      -1.651  -7.664  -1.433  0.00  0.00    -0.338 OA
BRANCH  17  20
ATOM     20  C   UNL     1      -0.634 -10.344  -3.702  0.00  0.00    +0.025 C 
ATOM     21  C   UNL     1       0.305 -11.371  -3.066  0.00  0.00    +0.019 C 
ATOM     22  C   UNL     1      -1.992 -10.994  -3.973  0.00  0.00    +0.019 C 
ATOM     23  C   UNL     1      -0.033  -9.850  -5.019  0.00  0.00    +0.019 C 
ENDBRANCH  17  20
ENDBRANCH   3  15
TORSDOF 3
