REMARK  Name = ZINC13668207
REMARK  5 active torsions:
REMARK  status: ('A' for Active; 'I' for Inactive)
REMARK    1  A    between atoms: C_1  and  C_2
REMARK    2  A    between atoms: C_2  and  C_24
REMARK    3  A    between atoms: C_4  and  N_13
REMARK    4  A    between atoms: N_13  and  S_14
REMARK    5  A    between atoms: S_14  and  C_17
REMARK                            x       y       z     vdW  Elec       q    Type
REMARK                         _______ _______ _______ _____ _____    ______ ____
ROOT
ATOM      1  C   UNL     1       1.714  -0.640   1.847  0.00  0.00    +0.055 C 
ATOM      2  C   UNL     1       1.534  -0.877   0.346  0.00  0.00    +0.107 C 
ATOM      3  C   UNL     1       2.619  -0.121  -0.431  0.00  0.00    +0.072 C 
ATOM      4  C   UNL     1       2.562   1.353  -0.022  0.00  0.00    +0.114 C 
ATOM      5  C   UNL     1       1.137   1.842  -0.079  0.00  0.00    +0.013 A 
ATOM      6  C   UNL     1       0.901   3.206  -0.112  0.00  0.00    +0.009 A 
ATOM      7  C   UNL     1      -0.392   3.689  -0.160  0.00  0.00    +0.001 A 
ATOM      8  C   UNL     1      -1.458   2.808  -0.174  0.00  0.00    +0.004 A 
ATOM      9  C   UNL     1      -1.229   1.448  -0.147  0.00  0.00    +0.046 A 
ATOM     10  C   UNL     1       0.072   0.958  -0.096  0.00  0.00    +0.126 A 
ATOM     11  O   UNL     1       0.258  -0.387  -0.069  0.00  0.00    -0.486 OA
ATOM     12  C   UNL     1       1.633  -2.374   0.045  0.00  0.00    +0.055 C 
ENDROOT
BRANCH   4  13
ATOM     13  N   UNL     1       3.386   2.146  -0.939  0.00  0.00    -0.182 NA
ATOM     14  H   UNL     1       3.150   2.200  -1.878  0.00  0.00    +0.149 HD
BRANCH  13  15
ATOM     15  S   UNL     1       4.719   2.948  -0.371  0.00  0.00    +0.059 S 
ATOM     16  O   UNL     1       5.308   3.598  -1.489  0.00  0.00    -0.153 OA
ATOM     17  O   UNL     1       4.304   3.655   0.789  0.00  0.00    -0.153 OA
BRANCH  15  18
ATOM     18  C   UNL     1       5.871   1.728   0.167  0.00  0.00    +0.105 A 
ATOM     19  C   UNL     1       5.843   1.282   1.475  0.00  0.00    +0.031 A 
ATOM     20  C   UNL     1       6.743   0.322   1.897  0.00  0.00    +0.040 A 
ATOM     21  C   UNL     1       7.680  -0.185   1.012  0.00  0.00    +0.124 A 
ATOM     22  C   UNL     1       7.710   0.267  -0.296  0.00  0.00    +0.040 A 
ATOM     23  C   UNL     1       6.806   1.223  -0.718  0.00  0.00    +0.031 A 
ATOM     24  F   UNL     1       8.564  -1.119   1.425  0.00  0.00    -0.205 F 
ENDBRANCH  15  18
ENDBRANCH  13  15
ENDBRANCH   4  13
TORSDOF 3
