REMARK  Name = ZINC08591955
REMARK  7 active torsions:
REMARK  status: ('A' for Active; 'I' for Inactive)
REMARK    1  A    between atoms: C_1  and  C_2
REMARK    2  A    between atoms: C_6  and  N_8
REMARK    3  A    between atoms: C_11  and  C_22
REMARK    4  A    between atoms: N_13  and  C_16
REMARK    5  A    between atoms: C_16  and  C_17
REMARK    6  A    between atoms: C_22  and  C_23
REMARK    7  A    between atoms: N_25  and  C_26
REMARK                            x       y       z     vdW  Elec       q    Type
REMARK                         _______ _______ _______ _____ _____    ______ ____
ROOT
ATOM      1  N   UNL     1       0.037  -2.882   2.328  0.00  0.00    -0.193 N 
ATOM      2  C   UNL     1      -0.009  -4.220   2.479  0.00  0.00    +0.248 C 
ATOM      3  O   UNL     1      -0.064  -5.055   1.602  0.00  0.00    -0.273 OA
ATOM      4  C   UNL     1       0.021  -4.465   3.975  0.00  0.00    +0.174 C 
ATOM      5  N   UNL     1       0.088  -3.108   4.546  0.00  0.00    -0.266 N 
ATOM      6  C   UNL     1       0.098  -2.253   3.507  0.00  0.00    +0.317 C 
ATOM      7  O   UNL     1       0.152  -1.045   3.627  0.00  0.00    -0.252 OA
ENDROOT
BRANCH   1  13
ATOM      8  C   UNL     1       0.167  -3.120  -2.583  0.00  0.00    +0.044 C 
ATOM      9  C   UNL     1       0.092  -2.320  -1.308  0.00  0.00    -0.049 A 
ATOM     10  C   UNL     1       0.016  -0.941  -1.361  0.00  0.00    +0.003 A 
ATOM     11  C   UNL     1      -0.053  -0.204  -0.194  0.00  0.00    +0.002 A 
ATOM     12  C   UNL     1      -0.046  -0.844   1.030  0.00  0.00    +0.024 A 
ATOM     13  C   UNL     1       0.030  -2.229   1.087  0.00  0.00    +0.046 A 
ATOM     14  C   UNL     1       0.093  -2.967  -0.088  0.00  0.00    +0.027 A 
ENDBRANCH   1  13
BRANCH   5  15
ATOM     15  C   UNL     1       0.138  -2.759   5.968  0.00  0.00    +0.184 C 
BRANCH  15  16
ATOM     16  C   UNL     1       1.573  -2.575   6.389  0.00  0.00    +0.122 A 
ATOM     17  C   UNL     1       2.261  -1.419   6.356  0.00  0.00    +0.046 A 
ATOM     18  C   UNL     1       3.561  -1.702   6.837  0.00  0.00    +0.041 A 
ATOM     19  C   UNL     1       3.589  -3.014   7.135  0.00  0.00    +0.195 A 
ATOM     20  O   UNL     1       2.381  -3.536   6.867  0.00  0.00    -0.466 OA
ENDBRANCH  15  16
ENDBRANCH   5  15
BRANCH   4  21
ATOM     21  C   UNL     1      -1.251  -5.182   4.429  0.00  0.00    +0.128 C 
BRANCH  21  22
ATOM     22  C   UNL     1      -1.275  -6.575   3.855  0.00  0.00    +0.219 C 
ATOM     23  O   UNL     1      -0.400  -6.933   3.096  0.00  0.00    -0.275 OA
ATOM     24  N   UNL     1      -2.269  -7.423   4.185  0.00  0.00    -0.285 N 
ATOM     25  H   UNL     1      -3.007  -7.115   4.735  0.00  0.00    +0.155 HD
BRANCH  24  26
ATOM     26  C   UNL     1      -2.237  -8.748   3.736  0.00  0.00    +0.033 A 
ATOM     27  C   UNL     1      -3.419  -9.402   3.413  0.00  0.00    +0.025 A 
ATOM     28  C   UNL     1      -3.385 -10.710   2.970  0.00  0.00    +0.022 A 
ATOM     29  C   UNL     1      -2.174 -11.368   2.847  0.00  0.00    +0.041 A 
ATOM     30  C   UNL     1      -0.994 -10.718   3.167  0.00  0.00    +0.022 A 
ATOM     31  C   UNL     1      -1.023  -9.409   3.606  0.00  0.00    +0.025 A 
ATOM     32 CL   UNL     1      -2.134 -13.011   2.290  0.00  0.00    -0.084 Cl
ENDBRANCH  24  26
ENDBRANCH  21  22
ENDBRANCH   4  21
TORSDOF 6
