REMARK  Name = ZINC24213210
REMARK  4 active torsions:
REMARK  status: ('A' for Active; 'I' for Inactive)
REMARK    1  A    between atoms: C_1  and  C_2
REMARK    2  A    between atoms: N_7  and  C_9
REMARK    3  A    between atoms: C_9  and  N_10
REMARK    4  A    between atoms: C_15  and  C_20
REMARK                            x       y       z     vdW  Elec       q    Type
REMARK                         _______ _______ _______ _____ _____    ______ ____
ROOT
ATOM      1  N   UNL     1       2.734   3.562  -0.005  0.00  0.00    -0.257 N 
ATOM      2  C   UNL     1       1.397   3.384   0.007  0.00  0.00    +0.181 A 
ATOM      3  S   UNL     1       0.216   4.623   0.024  0.00  0.00    -0.011 S 
ATOM      4  N   UNL     1       1.156   2.058   0.002  0.00  0.00    -0.278 N 
ATOM      5  C   UNL     1      -0.016   1.341   0.009  0.00  0.00    +0.107 A 
ATOM      6  C   UNL     1       0.002  -0.004   0.002  0.00  0.00    +0.071 A 
ATOM      7  C   UNL     1       1.225  -0.705  -0.013  0.00  0.00    +0.017 A 
ATOM      8  C   UNL     1       2.395  -0.020  -0.021  0.00  0.00    +0.049 A 
ATOM      9  C   UNL     1       2.370   1.397  -0.013  0.00  0.00    +0.160 A 
ATOM     10  N   UNL     1       3.329   2.293  -0.017  0.00  0.00    -0.153 NA
ENDROOT
BRANCH   6  11
ATOM     11  C   UNL     1      -1.297  -0.768   0.010  0.00  0.00    +0.419 C 
ATOM     12  F   UNL     1      -1.710  -0.998  -1.307  0.00  0.00    -0.166 F 
ATOM     13  F   UNL     1      -1.113  -1.993   0.661  0.00  0.00    -0.166 F 
ATOM     14  F   UNL     1      -2.272  -0.024   0.682  0.00  0.00    -0.166 F 
ENDBRANCH   6  11
BRANCH   1  15
ATOM     15  C   UNL     1       3.436   4.848  -0.005  0.00  0.00    +0.072 C 
BRANCH  15  21
ATOM     16  C   UNL     1       4.984   8.492  -2.923  0.00  0.00    +0.005 C 
ATOM     17  C   UNL     1       4.499   7.042  -2.875  0.00  0.00    -0.031 C 
ATOM     18  C   UNL     1       3.259   6.887  -3.759  0.00  0.00    -0.001 C 
ATOM     19  C   UNL     1       2.746   5.448  -3.658  0.00  0.00    -0.018 C 
ATOM     20  C   UNL     1       2.439   5.122  -2.194  0.00  0.00    -0.076 C 
ATOM     21  N   UNL     1       3.657   5.285  -1.390  0.00  0.00    +0.393 N 
ATOM     22  C   UNL     1       4.142   6.670  -1.434  0.00  0.00    -0.073 C 
ATOM     23  H   UNL     1       4.436   4.643  -1.828  0.00  0.00    -0.079 HD
ENDBRANCH  15  21
ENDBRANCH   1  15
TORSDOF 3
