REMARK  Name = ZINC63140137
REMARK  6 active torsions:
REMARK  status: ('A' for Active; 'I' for Inactive)
REMARK    1  A    between atoms: C_8  and  C_27
REMARK    2  A    between atoms: N_19  and  C_23
REMARK    3  A    between atoms: C_23  and  C_24
REMARK    4  A    between atoms: C_24  and  C_25
REMARK    5  A    between atoms: C_25  and  O_26
REMARK    6  A    between atoms: C_31  and  N_33
REMARK                            x       y       z     vdW  Elec       q    Type
REMARK                         _______ _______ _______ _____ _____    ______ ____
ROOT
ATOM      1  C   UNL     1      -0.016   1.355   0.009  0.00  0.00    +0.001 A 
ATOM      2  C   UNL     1       1.141   2.140   0.003  0.00  0.00    +0.002 A 
ATOM      3  C   UNL     1       2.404   1.644  -0.011  0.00  0.00    +0.026 A 
ATOM      4  C   UNL     1       2.553   0.226  -0.019  0.00  0.00    +0.043 A 
ATOM      5  N   UNL     1       3.625  -0.506  -0.041  0.00  0.00    -0.375 N 
ATOM      6  C   UNL     1       3.231  -1.920  -0.004  0.00  0.00    +0.131 C 
ATOM      7  C   UNL     1       3.681  -2.635  -1.278  0.00  0.00    +0.133 C 
ATOM      8  N   UNL     1       2.917  -3.850  -1.516  0.00  0.00    -0.279 N 
ATOM      9  C   UNL     1       1.593  -4.170  -1.024  0.00  0.00    +0.167 C 
ATOM     10  C   UNL     1       0.907  -3.178  -0.122  0.00  0.00    +0.065 C 
ATOM     11  C   UNL     1       1.704  -1.909  -0.024  0.00  0.00    -0.034 C 
ATOM     12  C   UNL     1       1.332  -0.636  -0.013  0.00  0.00    -0.001 A 
ATOM     13  C   UNL     1       0.002  -0.004   0.002  0.00  0.00    +0.010 A 
ATOM     14  C   UNL     1       0.717  -4.608  -2.170  0.00  0.00    +0.237 C 
ATOM     15  O   UNL     1      -0.406  -4.178  -2.327  0.00  0.00    -0.274 OA
ATOM     16  N   UNL     1       1.272  -5.523  -3.020  0.00  0.00    -0.291 N 
ATOM     17  C   UNL     1       2.630  -5.994  -2.691  0.00  0.00    +0.203 C 
ATOM     18  C   UNL     1       3.483  -4.794  -2.338  0.00  0.00    +0.234 C 
ATOM     19  O   UNL     1       4.613  -4.671  -2.761  0.00  0.00    -0.274 OA
ATOM     20  H   UNL     1       4.536  -0.173  -0.077  0.00  0.00    +0.160 HD
ENDROOT
BRANCH   7  21
ATOM     21  C   UNL     1       5.140  -2.991  -1.152  0.00  0.00    -0.023 A 
ATOM     22  C   UNL     1       5.519  -4.109  -0.432  0.00  0.00    +0.005 A 
ATOM     23  C   UNL     1       6.857  -4.435  -0.316  0.00  0.00    +0.003 A 
ATOM     24  C   UNL     1       7.816  -3.644  -0.921  0.00  0.00    +0.033 A 
ATOM     25  C   UNL     1       7.437  -2.527  -1.641  0.00  0.00    +0.127 A 
ATOM     26  C   UNL     1       6.098  -2.203  -1.761  0.00  0.00    +0.038 A 
BRANCH  25  27
ATOM     27  N   UNL     1       8.464  -1.681  -2.288  0.00  0.00    +0.056 N 
ATOM     28  O   UNL     1       9.635  -1.966  -2.186  0.00  0.00    -0.126 OA
ATOM     29  O   UNL     1       8.133  -0.704  -2.919  0.00  0.00    -0.126 OA
ENDBRANCH  25  27
ENDBRANCH   7  21
BRANCH  16  30
ATOM     30  C   UNL     1       0.553  -6.011  -4.199  0.00  0.00    +0.110 C 
BRANCH  30  31
ATOM     31  C   UNL     1       0.865  -5.110  -5.396  0.00  0.00    +0.047 C 
BRANCH  31  32
ATOM     32  C   UNL     1       0.114  -5.621  -6.628  0.00  0.00    +0.157 C 
BRANCH  32  33
ATOM     33  O   UNL     1       0.405  -4.779  -7.745  0.00  0.00    -0.395 OA
ATOM     34  H   UNL     1      -0.038  -5.044  -8.563  0.00  0.00    +0.209 HD
ENDBRANCH  32  33
ENDBRANCH  31  32
ENDBRANCH  30  31
ENDBRANCH  16  30
TORSDOF 6
