REMARK  Name = ZINC08779724
REMARK  9 active torsions:
REMARK  status: ('A' for Active; 'I' for Inactive)
REMARK    1  A    between atoms: C_1  and  C_2
REMARK    2  A    between atoms: C_5  and  N_9
REMARK    3  A    between atoms: C_10  and  C_37
REMARK    4  A    between atoms: C_12  and  C_15
REMARK    5  A    between atoms: C_13  and  C_14
REMARK    6  A    between atoms: C_15  and  C_17
REMARK    7  A    between atoms: C_17  and  N_18
REMARK    8  A    between atoms: C_21  and  C_26
REMARK    9  A    between atoms: C_26  and  C_27
REMARK                            x       y       z     vdW  Elec       q    Type
REMARK                         _______ _______ _______ _____ _____    ______ ____
ROOT
ATOM      1  N   UNL     1       0.305   2.078  -3.197  0.00  0.00    -0.217 N 
ATOM      2  C   UNL     1      -0.137   1.018  -2.492  0.00  0.00    +0.244 C 
ATOM      3  O   UNL     1      -0.059  -0.151  -2.801  0.00  0.00    -0.273 OA
ATOM      4  C   UNL     1      -0.753   1.593  -1.232  0.00  0.00    +0.165 C 
ATOM      5  N   UNL     1      -0.568   3.046  -1.387  0.00  0.00    -0.287 N 
ATOM      6  C   UNL     1       0.058   3.230  -2.564  0.00  0.00    +0.310 C 
ATOM      7  O   UNL     1       0.364   4.322  -3.002  0.00  0.00    -0.252 OA
ATOM      8  H   UNL     1      -0.844   3.735  -0.763  0.00  0.00    +0.151 HD
ENDROOT
BRANCH   1   9
ATOM      9  C   UNL     1       0.974   1.981  -4.497  0.00  0.00    +0.197 C 
BRANCH   9  10
ATOM     10  C   UNL     1      -0.054   2.038  -5.597  0.00  0.00    +0.183 C 
ATOM     11  O   UNL     1      -1.231   2.148  -5.322  0.00  0.00    -0.290 OA
BRANCH  10  15
ATOM     12  N   UNL     1       0.335   1.894  -9.206  0.00  0.00    -0.317 N 
ATOM     13  C   UNL     1       1.649   1.791  -8.842  0.00  0.00    +0.022 A 
ATOM     14  C   UNL     1       1.739   1.824  -7.503  0.00  0.00    +0.034 A 
ATOM     15  C   UNL     1       0.366   1.959  -6.997  0.00  0.00    +0.040 A 
ATOM     16  C   UNL     1      -0.448   1.991  -8.114  0.00  0.00    +0.031 A 
ATOM     17  C   UNL     1      -1.950   2.115  -8.110  0.00  0.00    +0.064 C 
ATOM     18  C   UNL     1       2.810   1.661  -9.793  0.00  0.00    +0.064 C 
BRANCH  12  23
ATOM     19  C   UNL     1      -1.557   1.889 -14.559  0.00  0.00    +0.047 C 
ATOM     20  C   UNL     1      -1.054   1.891 -13.138  0.00  0.00    -0.015 A 
ATOM     21  C   UNL     1      -0.443   0.764 -12.620  0.00  0.00    +0.008 A 
ATOM     22  C   UNL     1       0.019   0.763 -11.319  0.00  0.00    +0.026 A 
ATOM     23  C   UNL     1      -0.132   1.895 -10.528  0.00  0.00    +0.049 A 
ATOM     24  C   UNL     1      -0.751   3.023 -11.046  0.00  0.00    +0.064 A 
ATOM     25  C   UNL     1      -1.207   3.022 -12.352  0.00  0.00    +0.128 A 
ATOM     26  F   UNL     1      -1.805   4.121 -12.860  0.00  0.00    -0.205 F 
ENDBRANCH  12  23
ENDBRANCH  10  15
ENDBRANCH   9  10
ENDBRANCH   1   9
BRANCH   4  27
ATOM     27  C   UNL     1      -0.013   1.086   0.008  0.00  0.00    +0.069 C 
BRANCH  27  28
ATOM     28  C   UNL     1      -0.718   1.572   1.248  0.00  0.00    -0.020 A 
ATOM     29  C   UNL     1      -0.420   2.672   1.957  0.00  0.00    +0.087 A 
ATOM     30  N   UNL     1      -1.277   2.791   3.017  0.00  0.00    -0.360 N 
ATOM     31  H   UNL     1      -1.258   3.506   3.672  0.00  0.00    +0.165 HD
ATOM     32  C   UNL     1      -2.171   1.743   3.016  0.00  0.00    +0.047 A 
ATOM     33  C   UNL     1      -1.863   0.937   1.904  0.00  0.00    +0.003 A 
ATOM     34  C   UNL     1      -2.611  -0.215   1.651  0.00  0.00    +0.010 A 
ATOM     35  C   UNL     1      -3.645  -0.548   2.480  0.00  0.00    +0.001 A 
ATOM     36  C   UNL     1      -3.956   0.247   3.575  0.00  0.00    +0.002 A 
ATOM     37  C   UNL     1      -3.228   1.385   3.846  0.00  0.00    +0.026 A 
ENDBRANCH  27  28
ENDBRANCH   4  27
TORSDOF 6
