REMARK  Name = ZINC04672529
REMARK  2 active torsions:
REMARK  status: ('A' for Active; 'I' for Inactive)
REMARK    1  A    between atoms: C_10  and  N_12
REMARK    2  A    between atoms: C_13  and  O_23
REMARK                            x       y       z     vdW  Elec       q    Type
REMARK                         _______ _______ _______ _____ _____    ______ ____
ROOT
ATOM      1  N   UNL     1      -2.255  -0.048  -0.878  0.00  0.00    -0.261 N 
ATOM      2  C   UNL     1      -3.544   0.553  -0.507  0.00  0.00    +0.233 C 
ATOM      3  C   UNL     1      -4.112   1.117  -1.782  0.00  0.00    -0.015 C 
ATOM      4  C   UNL     1      -3.243   0.852  -2.757  0.00  0.00    +0.018 C 
ATOM      5  C   UNL     1      -2.093   0.132  -2.204  0.00  0.00    +0.245 C 
ATOM      6  O   UNL     1      -1.133  -0.247  -2.846  0.00  0.00    -0.270 OA
ATOM      7  C   UNL     1      -3.451   1.249  -4.200  0.00  0.00    +0.040 C 
ATOM      8  C   UNL     1      -4.932   1.589  -4.403  0.00  0.00    +0.005 C 
ATOM      9  C   UNL     1      -5.385   2.569  -3.317  0.00  0.00    +0.005 C 
ATOM     10  C   UNL     1      -5.417   1.847  -1.964  0.00  0.00    +0.035 C 
ENDROOT
BRANCH   1  20
ATOM     11  C   UNL     1       2.372   1.434  -0.013  0.00  0.00    +0.000 A 
ATOM     12  C   UNL     1       1.161   2.102   0.002  0.00  0.00    +0.000 A 
ATOM     13  C   UNL     1      -0.017   1.385   0.010  0.00  0.00    +0.006 A 
ATOM     14  C   UNL     1       0.002  -0.004   0.002  0.00  0.00    -0.024 A 
ATOM     15  C   UNL     1       1.207  -0.669  -0.019  0.00  0.00    -0.042 A 
ATOM     16  C   UNL     1       2.393   0.054  -0.024  0.00  0.00    +0.004 A 
ATOM     17  C   UNL     1       1.303  -2.172  -0.045  0.00  0.00    +0.035 C 
ATOM     18  C   UNL     1      -0.016  -2.802   0.399  0.00  0.00    +0.007 C 
ATOM     19  C   UNL     1      -1.151  -2.175  -0.418  0.00  0.00    +0.028 C 
ATOM     20  C   UNL     1      -1.321  -0.724   0.026  0.00  0.00    +0.110 C 
ENDBRANCH   1  20
BRANCH   2  21
ATOM     21  O   UNL     1      -4.418  -0.443   0.027  0.00  0.00    -0.370 OA
ATOM     22  H   UNL     1      -5.285  -0.106   0.290  0.00  0.00    +0.212 HD
ENDBRANCH   2  21
TORSDOF 2
