REMARK  Name = ZINC39871945
REMARK  7 active torsions:
REMARK  status: ('A' for Active; 'I' for Inactive)
REMARK    1  A    between atoms: C_1  and  C_2
REMARK    2  A    between atoms: C_2  and  O_3
REMARK    3  A    between atoms: O_3  and  C_4
REMARK    4  A    between atoms: C_4  and  C_6
REMARK    5  A    between atoms: C_9  and  N_12
REMARK    6  A    between atoms: C_13  and  C_28
REMARK    7  A    between atoms: C_31  and  O_34
REMARK                            x       y       z     vdW  Elec       q    Type
REMARK                         _______ _______ _______ _____ _____    ______ ____
ROOT
ATOM      1  N   UNL     1      -6.678  -4.063   0.044  0.00  0.00    -0.253 N 
ATOM      2  C   UNL     1      -7.002  -5.499   0.051  0.00  0.00    +0.150 C 
ATOM      3  C   UNL     1      -8.493  -5.579   0.057  0.00  0.00    +0.072 A 
ATOM      4  C   UNL     1      -9.399  -6.732   0.056  0.00  0.00    +0.199 A 
ATOM      5  O   UNL     1      -9.020  -7.878   0.226  0.00  0.00    -0.287 OA
ATOM      6  C   UNL     1     -10.821  -6.371  -0.171  0.00  0.00    +0.064 A 
ATOM      7  C   UNL     1     -11.774  -7.364  -0.398  0.00  0.00    +0.015 A 
ATOM      8  C   UNL     1     -13.079  -7.015  -0.611  0.00  0.00    +0.001 A 
ATOM      9  C   UNL     1     -13.455  -5.679  -0.602  0.00  0.00    +0.004 A 
ATOM     10  C   UNL     1     -12.527  -4.686  -0.379  0.00  0.00    +0.047 A 
ATOM     11  C   UNL     1     -11.191  -5.016  -0.156  0.00  0.00    +0.139 A 
ATOM     12  O   UNL     1     -10.298  -4.026   0.071  0.00  0.00    -0.450 OA
ATOM     13  C   UNL     1      -8.979  -4.302   0.059  0.00  0.00    +0.199 A 
ATOM     14  C   UNL     1      -7.836  -3.373   0.054  0.00  0.00    +0.287 C 
ATOM     15  O   UNL     1      -7.925  -2.161   0.056  0.00  0.00    -0.266 OA
ENDROOT
BRANCH   1  19
ATOM     16  C   UNL     1      -2.852  -2.419   0.016  0.00  0.00    +0.059 A 
ATOM     17  C   UNL     1      -3.973  -1.584   0.026  0.00  0.00    +0.017 A 
ATOM     18  C   UNL     1      -5.236  -2.131   0.035  0.00  0.00    +0.024 A 
ATOM     19  C   UNL     1      -5.398  -3.513   0.035  0.00  0.00    +0.038 A 
ATOM     20  C   UNL     1      -4.284  -4.347   0.026  0.00  0.00    +0.024 A 
ATOM     21  C   UNL     1      -3.018  -3.807   0.010  0.00  0.00    +0.017 A 
BRANCH  16  22
ATOM     22  C   UNL     1      -1.497  -1.837   0.006  0.00  0.00    +0.339 C 
ATOM     23  O   UNL     1      -0.523  -2.564  -0.007  0.00  0.00    -0.245 OA
BRANCH  22  24
ATOM     24  O   UNL     1      -1.339  -0.499   0.012  0.00  0.00    -0.461 OA
BRANCH  24  26
ATOM     25  C   UNL     1      -0.019   1.526   0.010  0.00  0.00    +0.048 C 
ATOM     26  C   UNL     1       0.002  -0.004   0.002  0.00  0.00    +0.229 C 
ENDBRANCH  24  26
ENDBRANCH  22  24
ENDBRANCH  16  22
ENDBRANCH   1  19
BRANCH   2  27
ATOM     27  C   UNL     1      -6.439  -6.153   1.287  0.00  0.00    -0.022 A 
ATOM     28  C   UNL     1      -6.500  -5.497   2.503  0.00  0.00    +0.009 A 
ATOM     29  C   UNL     1      -5.985  -6.095   3.637  0.00  0.00    +0.046 A 
ATOM     30  C   UNL     1      -5.407  -7.353   3.555  0.00  0.00    +0.117 A 
ATOM     31  C   UNL     1      -5.347  -8.009   2.334  0.00  0.00    +0.046 A 
ATOM     32  C   UNL     1      -5.869  -7.409   1.204  0.00  0.00    +0.009 A 
BRANCH  30  33
ATOM     33  O   UNL     1      -4.898  -7.942   4.669  0.00  0.00    -0.507 OA
ATOM     34  H   UNL     1      -5.537  -8.484   5.153  0.00  0.00    +0.292 HD
ENDBRANCH  30  33
ENDBRANCH   2  27
TORSDOF 6
