REMARK  Name = ZINC02475633
REMARK  4 active torsions:
REMARK  status: ('A' for Active; 'I' for Inactive)
REMARK    1  A    between atoms: C_1  and  C_2
REMARK    2  A    between atoms: C_7  and  C_8
REMARK    3  A    between atoms: C_7  and  C_9
REMARK    4  A    between atoms: N_12  and  C_15
REMARK                            x       y       z     vdW  Elec       q    Type
REMARK                         _______ _______ _______ _____ _____    ______ ____
ROOT
ATOM      1  C   UNL     1       0.139   1.525   0.063  0.00  0.00    +0.021 C 
ATOM      2  C   UNL     1       0.082  -0.003   0.028  0.00  0.00    +0.051 C 
ATOM      3  C   UNL     1      -1.363  -0.558   0.058  0.00  0.00    +0.017 C 
ATOM      4  C   UNL     1      -1.279  -1.923   0.767  0.00  0.00    +0.014 C 
ATOM      5  C   UNL     1       0.213  -2.124   1.129  0.00  0.00    +0.083 C 
ATOM      6  C   UNL     1       0.742  -0.669   1.268  0.00  0.00    -0.010 C 
ATOM      7  C   UNL     1       0.254  -0.025   2.567  0.00  0.00    +0.012 C 
ATOM      8  C   UNL     1       2.268  -0.625   1.171  0.00  0.00    +0.012 C 
ATOM      9  C   UNL     1       0.887  -2.720  -0.093  0.00  0.00    +0.230 C 
ATOM     10  O   UNL     1       1.200  -3.892  -0.107  0.00  0.00    -0.275 OA
ATOM     11  N   UNL     1       1.136  -1.940  -1.161  0.00  0.00    -0.208 N 
ATOM     12  C   UNL     1       0.778  -0.596  -1.184  0.00  0.00    +0.233 C 
ATOM     13  O   UNL     1       0.979   0.086  -2.166  0.00  0.00    -0.274 OA
ENDROOT
BRANCH  11  14
ATOM     14  C   UNL     1       1.805  -2.493  -2.263  0.00  0.00    +0.062 A 
ATOM     15  C   UNL     1       3.192  -2.464  -2.320  0.00  0.00    +0.025 A 
ATOM     16  C   UNL     1       3.849  -3.009  -3.406  0.00  0.00    +0.002 A 
ATOM     17  C   UNL     1       3.127  -3.583  -4.436  0.00  0.00    +0.002 A 
ATOM     18  C   UNL     1       1.746  -3.614  -4.383  0.00  0.00    +0.022 A 
ATOM     19  C   UNL     1       1.083  -3.076  -3.296  0.00  0.00    +0.063 A 
ATOM     20 CL   UNL     1      -0.651  -3.121  -3.226  0.00  0.00    -0.082 Cl
ENDBRANCH  11  14
TORSDOF 1
