REMARK  Name = ZINC03455988
REMARK  4 active torsions:
REMARK  status: ('A' for Active; 'I' for Inactive)
REMARK    1  A    between atoms: C_1  and  C_2
REMARK    2  A    between atoms: N_10  and  C_14
REMARK    3  A    between atoms: C_14  and  C_15
REMARK    4  A    between atoms: C_20  and  C_23
REMARK                            x       y       z     vdW  Elec       q    Type
REMARK                         _______ _______ _______ _____ _____    ______ ____
ROOT
ATOM      1  C   UNL     1       3.488  -6.201  -1.487  0.00  0.00    +0.237 C 
ATOM      2  O   UNL     1       3.200  -5.459  -2.403  0.00  0.00    -0.274 OA
ATOM      3  N   UNL     1       3.954  -7.439  -1.744  0.00  0.00    -0.263 N 
ATOM      4  C   UNL     1       4.104  -7.866  -3.058  0.00  0.00    +0.165 A 
ATOM      5  N   UNL     1       4.534  -9.027  -3.515  0.00  0.00    -0.225 NA
ATOM      6  C   UNL     1       4.614  -9.268  -4.815  0.00  0.00    +0.080 A 
ATOM      7  C   UNL     1       4.245  -8.295  -5.701  0.00  0.00    +0.076 A 
ATOM      8  S   UNL     1       3.760  -6.991  -4.578  0.00  0.00    -0.060 S 
ATOM      9  H   UNL     1       4.185  -8.032  -1.012  0.00  0.00    +0.157 HD
ENDROOT
BRANCH   6  10
ATOM     10  C   UNL     1       5.101 -10.581  -5.304  0.00  0.00    +0.001 A 
ATOM     11  C   UNL     1       5.189 -10.827  -6.673  0.00  0.00    +0.013 A 
ATOM     12  C   UNL     1       5.643 -12.050  -7.124  0.00  0.00    +0.039 A 
ATOM     13  C   UNL     1       6.010 -13.032  -6.219  0.00  0.00    +0.123 A 
ATOM     14  C   UNL     1       5.923 -12.792  -4.857  0.00  0.00    +0.039 A 
ATOM     15  C   UNL     1       5.476 -11.570  -4.397  0.00  0.00    +0.013 A 
ATOM     16  F   UNL     1       6.453 -14.228  -6.665  0.00  0.00    -0.205 F 
ENDBRANCH   6  10
BRANCH   1  17
ATOM     17  C   UNL     1       3.325  -5.738  -0.062  0.00  0.00    +0.214 C 
BRANCH  17  27
ATOM     18  C   UNL     1      -0.019   1.526   0.010  0.00  0.00    +0.007 C 
ATOM     19  C   UNL     1       0.002  -0.004   0.002  0.00  0.00    -0.014 C 
ATOM     20  C   UNL     1       0.716  -0.497  -1.258  0.00  0.00    +0.006 C 
ATOM     21  C   UNL     1       0.727  -2.028  -1.271  0.00  0.00    +0.035 C 
ATOM     22  C   UNL     1       1.442  -2.543  -0.027  0.00  0.00    +0.113 C 
ATOM     23  C   UNL     1       0.753  -2.041   1.238  0.00  0.00    +0.035 C 
ATOM     24  C   UNL     1       0.742  -0.510   1.242  0.00  0.00    +0.006 C 
ATOM     25  C   UNL     1       1.495  -4.053  -0.035  0.00  0.00    +0.247 C 
ATOM     26  O   UNL     1       0.556  -4.821  -0.030  0.00  0.00    -0.273 OA
ATOM     27  N   UNL     1       2.807  -4.367  -0.051  0.00  0.00    -0.215 N 
ATOM     28  C   UNL     1       3.576  -3.272  -0.053  0.00  0.00    +0.310 C 
ATOM     29  O   UNL     1       4.791  -3.300  -0.065  0.00  0.00    -0.252 OA
ATOM     30  N   UNL     1       2.853  -2.136  -0.039  0.00  0.00    -0.285 N 
ATOM     31  H   UNL     1       3.196  -1.229  -0.038  0.00  0.00    +0.151 HD
ENDBRANCH  17  27
ENDBRANCH   1  17
TORSDOF 3
