REMARK  Name = ZINC62607101
REMARK  5 active torsions:
REMARK  status: ('A' for Active; 'I' for Inactive)
REMARK    1  A    between atoms: C_1  and  C_2
REMARK    2  A    between atoms: C_5  and  C_8
REMARK    3  A    between atoms: N_15  and  S_16
REMARK    4  A    between atoms: S_16  and  C_19
REMARK    5  A    between atoms: N_28  and  C_29
REMARK                            x       y       z     vdW  Elec       q    Type
REMARK                         _______ _______ _______ _____ _____    ______ ____
ROOT
ATOM      1  C   UNL     1       0.059  -4.275  -0.021  0.00  0.00    +0.195 C 
ATOM      2  C   UNL     1       1.478  -4.762   0.097  0.00  0.00    +0.236 C 
ATOM      3  O   UNL     1       2.212  -4.645  -0.861  0.00  0.00    -0.274 OA
ATOM      4  N   UNL     1       1.966  -5.315   1.209  0.00  0.00    -0.312 N 
ATOM      5  C   UNL     1       1.183  -5.601   2.403  0.00  0.00    +0.121 C 
ATOM      6  C   UNL     1      -0.077  -4.734   2.446  0.00  0.00    +0.129 C 
ATOM      7  N   UNL     1      -0.718  -4.784   1.118  0.00  0.00    -0.159 NA
ATOM      8  H   UNL     1       2.909  -5.542   1.222  0.00  0.00    +0.149 HD
ENDROOT
BRANCH   1  13
ATOM      9  C   UNL     1      -0.018   1.503   0.012  0.00  0.00    +0.044 C 
ATOM     10  C   UNL     1       0.002  -0.004   0.003  0.00  0.00    -0.050 A 
ATOM     11  C   UNL     1      -0.573  -0.697  -1.046  0.00  0.00    +0.004 A 
ATOM     12  C   UNL     1      -0.554  -2.079  -1.054  0.00  0.00    +0.006 A 
ATOM     13  C   UNL     1       0.040  -2.768  -0.013  0.00  0.00    -0.020 A 
ATOM     14  C   UNL     1       0.616  -2.076   1.035  0.00  0.00    +0.006 A 
ATOM     15  C   UNL     1       0.601  -0.693   1.041  0.00  0.00    +0.004 A 
ENDBRANCH   1  13
BRANCH   7  16
ATOM     16  S   UNL     1      -2.246  -5.389   0.918  0.00  0.00    +0.062 S 
ATOM     17  O   UNL     1      -2.901  -5.262   2.172  0.00  0.00    -0.153 OA
ATOM     18  O   UNL     1      -2.760  -4.808  -0.273  0.00  0.00    -0.153 OA
BRANCH  16  19
ATOM     19  C   UNL     1      -2.086  -7.116   0.606  0.00  0.00    +0.106 A 
ATOM     20  C   UNL     1      -1.949  -7.577  -0.691  0.00  0.00    +0.030 A 
ATOM     21  C   UNL     1      -1.823  -8.927  -0.942  0.00  0.00    +0.026 A 
ATOM     22  C   UNL     1      -1.833  -9.838   0.112  0.00  0.00    +0.040 A 
ATOM     23  C   UNL     1      -1.970  -9.364   1.410  0.00  0.00    -0.015 A 
ATOM     24  C   UNL     1      -2.091  -8.015   1.658  0.00  0.00    +0.034 A 
ATOM     25  C   UNL     1      -1.944 -10.576   2.312  0.00  0.00    +0.133 C 
ATOM     26  C   UNL     1      -1.778 -11.740   1.358  0.00  0.00    +0.224 C 
ATOM     27  O   UNL     1      -1.708 -12.913   1.659  0.00  0.00    -0.275 OA
ATOM     28  N   UNL     1      -1.723 -11.230   0.117  0.00  0.00    -0.274 N 
ATOM     29  C   UNL     1      -1.566 -12.040  -1.093  0.00  0.00    +0.138 C 
ENDBRANCH  16  19
ENDBRANCH   7  16
TORSDOF 3
