REMARK  Name = ZINC47511390
REMARK  4 active torsions:
REMARK  status: ('A' for Active; 'I' for Inactive)
REMARK    1  A    between atoms: C_1  and  C_2
REMARK    2  A    between atoms: C_7  and  N_10
REMARK    3  A    between atoms: N_10  and  C_11
REMARK    4  A    between atoms: N_14  and  C_19
REMARK                            x       y       z     vdW  Elec       q    Type
REMARK                         _______ _______ _______ _____ _____    ______ ____
ROOT
ATOM      1  N   UNL     1      -0.612  -2.548   1.244  0.00  0.00    -0.338 N 
ATOM      2  H   UNL     1      -1.333  -2.000   0.898  0.00  0.00    +0.146 HD
ENDROOT
BRANCH   1   3
ATOM      3  C   UNL     1      -0.880  -3.810   1.746  0.00  0.00    +0.071 A 
ATOM      4  C   UNL     1       0.164  -4.611   2.255  0.00  0.00    +0.157 A 
ATOM      5  N   UNL     1      -0.086  -5.799   2.729  0.00  0.00    -0.175 NA
ATOM      6  N   UNL     1      -1.388  -6.309   2.745  0.00  0.00    -0.231 N 
ATOM      7  C   UNL     1      -2.416  -5.579   2.269  0.00  0.00    +0.287 A 
ATOM      8  O   UNL     1      -3.551  -6.031   2.287  0.00  0.00    -0.265 OA
ATOM      9  C   UNL     1      -2.175  -4.295   1.759  0.00  0.00    +0.129 A 
ATOM     10 CL   UNL     1      -3.483  -3.331   1.147  0.00  0.00    -0.076 Cl
ATOM     11  C   UNL     1      -1.637  -7.649   3.284  0.00  0.00    +0.176 C 
ENDBRANCH   1   3
BRANCH   1  17
ATOM     12  C   UNL     1      -0.019   1.526   0.010  0.00  0.00    +0.007 C 
ATOM     13  C   UNL     1       0.002  -0.004   0.002  0.00  0.00    -0.012 C 
ATOM     14  C   UNL     1       0.718  -0.497  -1.257  0.00  0.00    +0.003 C 
ATOM     15  C   UNL     1       0.739  -2.027  -1.265  0.00  0.00    +0.002 C 
ATOM     16  C   UNL     1       1.479  -2.534  -0.026  0.00  0.00    +0.022 C 
ATOM     17  C   UNL     1       0.763  -2.041   1.233  0.00  0.00    +0.071 C 
ATOM     18  C   UNL     1       0.742  -0.511   1.242  0.00  0.00    +0.025 C 
ENDBRANCH   1  17
TORSDOF 2
