REMARK  Name = ZINC12557556
REMARK  7 active torsions:
REMARK  status: ('A' for Active; 'I' for Inactive)
REMARK    1  A    between atoms: C_1  and  C_2
REMARK    2  A    between atoms: C_11  and  N_28
REMARK    3  A    between atoms: C_13  and  S_15
REMARK    4  A    between atoms: S_15  and  C_16
REMARK    5  A    between atoms: C_16  and  C_17
REMARK    6  A    between atoms: C_17  and  O_19
REMARK    7  A    between atoms: O_19  and  C_20
REMARK                            x       y       z     vdW  Elec       q    Type
REMARK                         _______ _______ _______ _____ _____    ______ ____
ROOT
ATOM      1  C   UNL     1       3.890  -2.930  14.023  0.00  0.00    +0.008 C 
ATOM      2  C   UNL     1       3.411  -2.314  12.707  0.00  0.00    -0.009 C 
ATOM      3  C   UNL     1       2.487  -3.299  11.985  0.00  0.00    +0.008 C 
ATOM      4  C   UNL     1       2.204  -2.801  10.567  0.00  0.00    +0.037 C 
ATOM      5  C   UNL     1       1.701  -1.362  10.643  0.00  0.00    -0.025 A 
ATOM      6  C   UNL     1       1.915  -0.614  11.744  0.00  0.00    -0.004 A 
ATOM      7  S   UNL     1       1.171   0.955  11.389  0.00  0.00    -0.073 S 
ATOM      8  C   UNL     1       0.571   0.605   9.757  0.00  0.00    +0.115 A 
ATOM      9  C   UNL     1       0.972  -0.729   9.541  0.00  0.00    +0.051 A 
ATOM     10  C   UNL     1       0.614  -1.281   8.279  0.00  0.00    +0.129 A 
ATOM     11  N   UNL     1      -0.057  -0.538   7.416  0.00  0.00    -0.207 NA
ATOM     12  C   UNL     1      -0.401   0.717   7.682  0.00  0.00    +0.191 A 
ATOM     13  N   UNL     1      -0.092   1.284   8.841  0.00  0.00    -0.214 NA
ATOM     14  C   UNL     1       2.628  -1.026  12.996  0.00  0.00    +0.046 C 
ENDROOT
BRANCH  10  15
ATOM     15  N   UNL     1       0.958  -2.583   7.963  0.00  0.00    -0.343 N 
ATOM     16  H   UNL     1       0.521  -3.034   7.223  0.00  0.00    +0.144 HD
ATOM     17  H   UNL     1       1.637  -3.044   8.479  0.00  0.00    +0.144 HD
ENDBRANCH  10  15
BRANCH  12  18
ATOM     18  S   UNL     1      -1.289   1.645   6.476  0.00  0.00    -0.075 S 
BRANCH  18  19
ATOM     19  C   UNL     1      -1.416   0.408   5.160  0.00  0.00    +0.197 C 
BRANCH  19  20
ATOM     20  C   UNL     1      -2.161   0.996   3.989  0.00  0.00    +0.318 C 
ATOM     21  O   UNL     1      -2.564   2.134   4.039  0.00  0.00    -0.250 OA
BRANCH  20  22
ATOM     22  O   UNL     1      -2.377   0.256   2.891  0.00  0.00    -0.459 OA
BRANCH  22  23
ATOM     23  C   UNL     1      -3.101   0.886   1.802  0.00  0.00    +0.199 C 
ATOM     24  C   UNL     1      -4.609   0.617   1.954  0.00  0.00    +0.069 C 
ATOM     25  C   UNL     1      -5.348   1.001   0.649  0.00  0.00    +0.169 C 
ATOM     26  S   UNL     1      -4.055   0.754  -0.635  0.00  0.00    -0.027 S 
ATOM     27  O   UNL     1      -3.772   2.003  -1.253  0.00  0.00    -0.174 OA
ATOM     28  O   UNL     1      -4.410  -0.360  -1.442  0.00  0.00    -0.174 OA
ATOM     29  C   UNL     1      -2.638   0.285   0.444  0.00  0.00    +0.210 C 
ENDBRANCH  22  23
ENDBRANCH  20  22
ENDBRANCH  19  20
ENDBRANCH  18  19
ENDBRANCH  12  18
TORSDOF 6
