REMARK  Name = ZINC13196850
REMARK  9 active torsions:
REMARK  status: ('A' for Active; 'I' for Inactive)
REMARK    1  A    between atoms: C_1  and  C_2
REMARK    2  A    between atoms: C_2  and  C_3
REMARK    3  A    between atoms: C_2  and  C_4
REMARK    4  A    between atoms: C_2  and  C_5
REMARK    5  A    between atoms: C_8  and  O_11
REMARK    6  A    between atoms: O_11  and  S_12
REMARK    7  A    between atoms: S_12  and  C_15
REMARK    8  A    between atoms: C_18  and  O_23
REMARK    9  A    between atoms: C_19  and  C_21
REMARK                            x       y       z     vdW  Elec       q    Type
REMARK                         _______ _______ _______ _____ _____    ______ ____
ROOT
ATOM      1  S   UNL     1       0.063  -4.543  -0.006  0.00  0.00    +0.151 S 
ATOM      2  O   UNL     1       0.608  -4.946  -1.255  0.00  0.00    -0.131 OA
ATOM      3  O   UNL     1       0.631  -4.938   1.236  0.00  0.00    -0.131 OA
ENDROOT
BRANCH   1   4
ATOM      4  C   UNL     1       0.039  -2.781  -0.011  0.00  0.00    +0.129 A 
ATOM      5  C   UNL     1       0.041  -2.088   1.188  0.00  0.00    +0.034 A 
ATOM      6  C   UNL     1       0.023  -0.707   1.198  0.00  0.00    +0.048 A 
ATOM      7  C   UNL     1       0.002  -0.004   0.002  0.00  0.00    +0.131 A 
ATOM      8  C   UNL     1      -0.006  -0.702  -1.214  0.00  0.00    +0.106 A 
ATOM      9  C   UNL     1       0.020  -2.099  -1.208  0.00  0.00    +0.049 A 
BRANCH   8  10
ATOM     10  C   UNL     1      -0.035   0.034  -2.491  0.00  0.00    +0.390 C 
ATOM     11  O   UNL     1      -0.052   1.249  -2.492  0.00  0.00    -0.240 OA
ATOM     12  O   UNL     1      -0.042  -0.641  -3.657  0.00  0.00    -0.240 OA
ENDBRANCH   8  10
BRANCH   7  13
ATOM     13  O   UNL     1      -0.016   1.352   0.009  0.00  0.00    -0.506 OA
ATOM     14  H   UNL     1       0.862   1.758   0.003  0.00  0.00    +0.292 HD
ENDBRANCH   7  13
ENDBRANCH   1   4
BRANCH   1  15
ATOM     15  O   UNL     1      -1.385  -5.012   0.009  0.00  0.00    -0.342 OA
BRANCH  15  19
ATOM     16  C   UNL     1      -3.315  -4.613  -3.615  0.00  0.00    -0.042 A 
ATOM     17  C   UNL     1      -2.638  -5.782  -3.318  0.00  0.00    +0.008 A 
ATOM     18  C   UNL     1      -1.991  -5.918  -2.106  0.00  0.00    +0.049 A 
ATOM     19  C   UNL     1      -2.021  -4.881  -1.185  0.00  0.00    +0.157 A 
ATOM     20  C   UNL     1      -2.705  -3.712  -1.482  0.00  0.00    +0.049 A 
ATOM     21  C   UNL     1      -3.346  -3.578  -2.699  0.00  0.00    +0.008 A 
BRANCH  16  23
ATOM     22  C   UNL     1      -5.087  -5.557  -5.072  0.00  0.00    +0.015 C 
ATOM     23  C   UNL     1      -4.020  -4.468  -4.939  0.00  0.00    -0.013 C 
ATOM     24  C   UNL     1      -4.685  -3.092  -5.014  0.00  0.00    +0.015 C 
ATOM     25  C   UNL     1      -3.005  -4.606  -6.075  0.00  0.00    +0.015 C 
ENDBRANCH  16  23
ENDBRANCH  15  19
ENDBRANCH   1  15
TORSDOF 6
