REMARK  Name = ZINC16046717
REMARK  5 active torsions:
REMARK  status: ('A' for Active; 'I' for Inactive)
REMARK    1  A    between atoms: C_1  and  C_2
REMARK    2  A    between atoms: C_2  and  C_3
REMARK    3  A    between atoms: C_2  and  C_4
REMARK    4  A    between atoms: C_10  and  C_12
REMARK    5  A    between atoms: C_12  and  N_13
REMARK                            x       y       z     vdW  Elec       q    Type
REMARK                         _______ _______ _______ _____ _____    ______ ____
ROOT
ATOM      1  C   UNL     1      -8.224  -0.823   1.330  0.00  0.00    +0.214 C 
ENDROOT
BRANCH   1   2
ATOM      2  N   UNL     1      -8.633  -2.230   1.327  0.00  0.00    -0.215 N 
ATOM      3  C   UNL     1      -8.833  -2.965   2.442  0.00  0.00    +0.247 C 
ATOM      4  O   UNL     1      -8.714  -2.603   3.593  0.00  0.00    -0.273 OA
ATOM      5  C   UNL     1      -9.237  -4.332   1.951  0.00  0.00    +0.113 C 
ATOM      6  C   UNL     1     -10.633  -4.711   2.461  0.00  0.00    +0.035 C 
ATOM      7  C   UNL     1     -10.543  -6.241   2.698  0.00  0.00    +0.003 C 
ATOM      8  C   UNL     1      -9.103  -6.421   3.244  0.00  0.00    +0.003 C 
ATOM      9  C   UNL     1      -8.262  -5.407   2.437  0.00  0.00    +0.035 C 
ATOM     10  N   UNL     1      -9.220  -4.216   0.491  0.00  0.00    -0.285 N 
ATOM     11  C   UNL     1      -8.860  -2.946   0.218  0.00  0.00    +0.310 C 
ATOM     12  O   UNL     1      -8.751  -2.501  -0.908  0.00  0.00    -0.252 OA
ATOM     13  H   UNL     1      -9.431  -4.912  -0.150  0.00  0.00    +0.151 HD
ENDBRANCH   1   2
BRANCH   1  20
ATOM     14  C   UNL     1      -2.143   1.058   1.278  0.00  0.00    +0.106 A 
ATOM     15  N   UNL     1      -2.587  -0.183   1.276  0.00  0.00    -0.144 NA
ATOM     16  N   UNL     1      -3.826  -0.423   1.287  0.00  0.00    -0.126 NA
ATOM     17  C   UNL     1      -4.725   0.546   1.301  0.00  0.00    +0.188 A 
ATOM     18  S   UNL     1      -3.695   1.947   1.304  0.00  0.00    -0.035 S 
ATOM     19  N   UNL     1      -6.113   0.466   1.315  0.00  0.00    -0.262 N 
ATOM     20  C   UNL     1      -6.720  -0.737   1.315  0.00  0.00    +0.237 C 
ATOM     21  O   UNL     1      -6.055  -1.751   1.303  0.00  0.00    -0.274 OA
ATOM     22  H   UNL     1      -6.645   1.278   1.325  0.00  0.00    +0.157 HD
BRANCH  14  24
ATOM     23  C   UNL     1      -0.013   1.086   0.008  0.00  0.00    +0.014 C 
ATOM     24  C   UNL     1      -0.729   1.579   1.267  0.00  0.00    +0.040 C 
ATOM     25  C   UNL     1       0.011   1.072   2.506  0.00  0.00    +0.014 C 
ENDBRANCH  14  24
ENDBRANCH   1  20
TORSDOF 3
