REMARK  Name = ZINC58853105
REMARK  5 active torsions:
REMARK  status: ('A' for Active; 'I' for Inactive)
REMARK    1  A    between atoms: C_1  and  N_2
REMARK    2  A    between atoms: N_2  and  C_3
REMARK    3  A    between atoms: C_3  and  C_4
REMARK    4  A    between atoms: N_13  and  C_14
REMARK    5  A    between atoms: C_18  and  N_20
REMARK                            x       y       z     vdW  Elec       q    Type
REMARK                         _______ _______ _______ _____ _____    ______ ____
ROOT
ATOM      1  C   UNL     1      -0.035   1.461   0.010  0.00  0.00    +0.134 C 
ATOM      2  N   UNL     1      -0.004  -0.004   0.002  0.00  0.00    -0.284 N 
ATOM      3  C   UNL     1       0.002  -0.671  -1.169  0.00  0.00    +0.306 C 
ATOM      4  O   UNL     1       0.028  -1.887  -1.175  0.00  0.00    -0.252 OA
ATOM      5  N   UNL     1      -0.020   0.009  -2.332  0.00  0.00    -0.269 N 
ATOM      6  H   UNL     1      -0.108   0.975  -2.328  0.00  0.00    +0.156 HD
ENDROOT
BRANCH   5   7
ATOM      7  C   UNL     1       0.083  -0.679  -3.547  0.00  0.00    +0.037 A 
ATOM      8  C   UNL     1       0.767  -0.110  -4.613  0.00  0.00    +0.025 A 
ATOM      9  C   UNL     1       0.868  -0.790  -5.810  0.00  0.00    +0.024 A 
ATOM     10  C   UNL     1       0.288  -2.040  -5.948  0.00  0.00    +0.071 A 
ATOM     11  C   UNL     1      -0.393  -2.610  -4.888  0.00  0.00    +0.146 A 
ATOM     12  C   UNL     1      -0.492  -1.935  -3.686  0.00  0.00    +0.057 A 
ATOM     13 CL   UNL     1       0.416  -2.893  -7.455  0.00  0.00    -0.081 Cl
BRANCH  11  14
ATOM     14  N   UNL     1      -1.012  -3.946  -5.039  0.00  0.00    +0.058 N 
ATOM     15  O   UNL     1      -1.607  -4.445  -4.112  0.00  0.00    -0.126 OA
ATOM     16  O   UNL     1      -0.921  -4.539  -6.089  0.00  0.00    -0.126 OA
ENDBRANCH  11  14
ENDBRANCH   5   7
BRANCH   2  17
ATOM     17  C   UNL     1       0.019  -0.743   1.267  0.00  0.00    +0.144 C 
BRANCH  17  18
ATOM     18  C   UNL     1      -1.393  -1.026   1.710  0.00  0.00    -0.030 A 
ATOM     19  C   UNL     1      -2.060  -0.120   2.513  0.00  0.00    +0.006 A 
ATOM     20  C   UNL     1      -3.355  -0.380   2.919  0.00  0.00    +0.020 A 
ATOM     21  C   UNL     1      -3.984  -1.546   2.523  0.00  0.00    +0.041 A 
ATOM     22  C   UNL     1      -3.316  -2.453   1.719  0.00  0.00    +0.020 A 
ATOM     23  C   UNL     1      -2.022  -2.190   1.309  0.00  0.00    +0.006 A 
ATOM     24 CL   UNL     1      -5.611  -1.873   3.034  0.00  0.00    -0.084 Cl
ENDBRANCH  17  18
ENDBRANCH   2  17
TORSDOF 4
