REMARK  Name = ZINC02366369
REMARK  7 active torsions:
REMARK  status: ('A' for Active; 'I' for Inactive)
REMARK    1  A    between atoms: C_1  and  C_2
REMARK    2  A    between atoms: C_7  and  N_8
REMARK    3  A    between atoms: C_9  and  C_11
REMARK    4  A    between atoms: C_11  and  S_12
REMARK    5  A    between atoms: S_12  and  C_13
REMARK    6  A    between atoms: C_16  and  C_19
REMARK    7  A    between atoms: N_17  and  N_18
REMARK                            x       y       z     vdW  Elec       q    Type
REMARK                         _______ _______ _______ _____ _____    ______ ____
ROOT
ATOM      1  S   UNL     1      -5.062   0.939  -0.304  0.00  0.00    -0.075 S 
ENDROOT
BRANCH   1   2
ATOM      2  C   UNL     1      -6.428   2.047  -0.410  0.00  0.00    +0.209 A 
ATOM      3  N   UNL     1      -6.369   3.360  -0.397  0.00  0.00    -0.120 NA
ATOM      4  N   UNL     1      -7.550   3.857  -0.492  0.00  0.00    -0.123 NA
ATOM      5  C   UNL     1      -8.439   2.890  -0.571  0.00  0.00    +0.217 A 
ATOM      6  N   UNL     1      -7.745   1.701  -0.526  0.00  0.00    -0.221 N 
BRANCH   5   7
ATOM      7  C   UNL     1      -9.896   3.049  -0.691  0.00  0.00    +0.173 A 
ATOM      8  C   UNL     1     -10.552   4.198  -1.019  0.00  0.00    +0.053 A 
ATOM      9  C   UNL     1     -11.927   3.894  -1.019  0.00  0.00    +0.042 A 
ATOM     10  C   UNL     1     -12.045   2.593  -0.687  0.00  0.00    +0.196 A 
ATOM     11  O   UNL     1     -10.817   2.086  -0.489  0.00  0.00    -0.460 OA
ENDBRANCH   5   7
BRANCH   6  12
ATOM     12  N   UNL     1      -8.265   0.439  -0.584  0.00  0.00    -0.294 N 
ATOM     13  H   UNL     1      -8.484   0.096   0.340  0.00  0.00    +0.163 HD
ATOM     14  H   UNL     1      -9.077   0.409  -1.182  0.00  0.00    +0.163 HD
ENDBRANCH   6  12
ENDBRANCH   1   2
BRANCH   1  15
ATOM     15  C   UNL     1      -3.702   2.127  -0.184  0.00  0.00    +0.173 C 
BRANCH  15  17
ATOM     16  N   UNL     1      -1.238   2.069   0.019  0.00  0.00    -0.285 N 
ATOM     17  C   UNL     1      -2.395   1.385  -0.081  0.00  0.00    +0.227 C 
ATOM     18  O   UNL     1      -2.383   0.172  -0.088  0.00  0.00    -0.275 OA
ATOM     19  H   UNL     1      -1.251   3.037   0.090  0.00  0.00    +0.155 HD
BRANCH  16  26
ATOM     20  C   UNL     1       0.999   3.305  -1.232  0.00  0.00    +0.046 C 
ATOM     21  C   UNL     1       1.099   1.950  -0.581  0.00  0.00    -0.028 A 
ATOM     22  C   UNL     1       2.301   1.269  -0.584  0.00  0.00    +0.025 A 
ATOM     23  C   UNL     1       2.393   0.024   0.013  0.00  0.00    +0.041 A 
ATOM     24  C   UNL     1       1.282  -0.543   0.614  0.00  0.00    +0.022 A 
ATOM     25  C   UNL     1       0.078   0.134   0.619  0.00  0.00    +0.025 A 
ATOM     26  C   UNL     1      -0.017   1.384   0.021  0.00  0.00    +0.036 A 
ATOM     27 CL   UNL     1       3.905  -0.830   0.008  0.00  0.00    -0.084 Cl
ENDBRANCH  16  26
ENDBRANCH  15  17
ENDBRANCH   1  15
TORSDOF 6
