REMARK  Name = ZINC67064941
REMARK  7 active torsions:
REMARK  status: ('A' for Active; 'I' for Inactive)
REMARK    1  A    between atoms: C_1  and  N_2
REMARK    2  A    between atoms: N_2  and  C_3
REMARK    3  A    between atoms: N_2  and  C_23
REMARK    4  A    between atoms: C_3  and  C_4
REMARK    5  A    between atoms: C_4  and  N_5
REMARK    6  A    between atoms: C_12  and  C_15
REMARK    7  A    between atoms: C_23  and  C_24
REMARK                            x       y       z     vdW  Elec       q    Type
REMARK                         _______ _______ _______ _____ _____    ______ ____
ROOT
ATOM      1  N   UNL     1       0.570  -0.546  -3.648  0.00  0.00    -0.301 N 
ATOM      2  C   UNL     1       0.037  -0.310  -4.864  0.00  0.00    +0.302 C 
ATOM      3  O   UNL     1      -1.056   0.214  -4.957  0.00  0.00    -0.253 OA
ATOM      4  N   UNL     1       0.716  -0.655  -5.976  0.00  0.00    -0.281 N 
ATOM      5  C   UNL     1       0.211  -0.300  -7.312  0.00  0.00    +0.137 C 
ATOM      6  C   UNL     1       0.214  -1.563  -8.181  0.00  0.00    +0.179 C 
ATOM      7  O   UNL     1       1.510  -2.165  -8.130  0.00  0.00    -0.369 OA
ATOM      8  C   UNL     1       1.901  -2.606  -6.828  0.00  0.00    +0.166 C 
ATOM      9  C   UNL     1       1.986  -1.391  -5.889  0.00  0.00    +0.145 C 
ATOM     10  H   UNL     1       1.408  -1.028  -3.572  0.00  0.00    +0.150 HD
ENDROOT
BRANCH   8  11
ATOM     11  C   UNL     1       3.248  -3.276  -6.906  0.00  0.00    -0.015 A 
ATOM     12  C   UNL     1       4.236  -2.748  -7.716  0.00  0.00    +0.009 A 
ATOM     13  C   UNL     1       5.473  -3.361  -7.790  0.00  0.00    +0.041 A 
ATOM     14  C   UNL     1       5.723  -4.505  -7.052  0.00  0.00    +0.158 A 
ATOM     15  C   UNL     1       4.732  -5.035  -6.240  0.00  0.00    +0.159 A 
ATOM     16  C   UNL     1       3.496  -4.416  -6.164  0.00  0.00    +0.047 A 
ATOM     17  F   UNL     1       4.974  -6.152  -5.519  0.00  0.00    -0.202 F 
ATOM     18  F   UNL     1       6.931  -5.106  -7.124  0.00  0.00    -0.202 F 
ENDBRANCH   8  11
BRANCH   1  19
ATOM     19  C   UNL     1      -0.116  -0.073  -2.443  0.00  0.00    +0.087 C 
BRANCH  19  20
ATOM     20  C   UNL     1       0.694  -0.469  -1.207  0.00  0.00    -0.060 C 
BRANCH  20  22
ATOM     21  C   UNL     1      -0.020   1.473   0.007  0.00  0.00    -0.096 C 
ATOM     22  N   UNL     1       0.005   0.004   0.002  0.00  0.00    +0.382 N 
ATOM     23  H   UNL     1      -0.940  -0.348   0.010  0.00  0.00    -0.082 HD
BRANCH  22  24
ATOM     24  C   UNL     1       0.719  -0.478   1.192  0.00  0.00    -0.043 C 
BRANCH  24  25
ATOM     25  C   UNL     1      -0.053  -0.097   2.429  0.00  0.00    -0.064 A 
ATOM     26  C   UNL     1       0.191   1.113   3.050  0.00  0.00    +0.002 A 
ATOM     27  C   UNL     1      -0.518   1.463   4.185  0.00  0.00    +0.000 A 
ATOM     28  C   UNL     1      -1.470   0.602   4.697  0.00  0.00    +0.000 A 
ATOM     29  C   UNL     1      -1.715  -0.608   4.075  0.00  0.00    +0.000 A 
ATOM     30  C   UNL     1      -1.010  -0.955   2.938  0.00  0.00    +0.002 A 
ENDBRANCH  24  25
ENDBRANCH  22  24
ENDBRANCH  20  22
ENDBRANCH  19  20
ENDBRANCH   1  19
TORSDOF 6
