REMARK  Name = ZINC38787535
REMARK  6 active torsions:
REMARK  status: ('A' for Active; 'I' for Inactive)
REMARK    1  A    between atoms: C_1  and  C_2
REMARK    2  A    between atoms: C_2  and  C_3
REMARK    3  A    between atoms: C_2  and  C_4
REMARK    4  A    between atoms: C_4  and  C_6
REMARK    5  A    between atoms: C_4  and  N_9
REMARK    6  A    between atoms: C_13  and  C_14
REMARK                            x       y       z     vdW  Elec       q    Type
REMARK                         _______ _______ _______ _____ _____    ______ ____
ROOT
ATOM      1  C   UNL     1      -4.180  -2.408  -4.103  0.00  0.00    +0.122 C 
ATOM      2  C   UNL     1      -3.442  -2.910  -5.328  0.00  0.00    -0.001 C 
ATOM      3  C   UNL     1      -4.142  -3.675  -6.209  0.00  0.00    -0.003 A 
ATOM      4  C   UNL     1      -3.504  -4.198  -7.418  0.00  0.00    +0.059 A 
ATOM      5  C   UNL     1      -4.230  -4.960  -8.280  0.00  0.00    +0.163 A 
ATOM      6  C   UNL     1      -5.584  -5.257  -8.026  0.00  0.00    +0.164 A 
ATOM      7  C   UNL     1      -6.232  -4.785  -6.901  0.00  0.00    +0.073 A 
ATOM      8  C   UNL     1      -5.561  -3.993  -5.963  0.00  0.00    +0.044 A 
ATOM      9  N   UNL     1      -6.207  -3.548  -4.882  0.00  0.00    -0.284 N 
ATOM     10  C   UNL     1      -5.634  -2.797  -3.958  0.00  0.00    +0.228 C 
ATOM     11  O   UNL     1      -6.274  -2.421  -2.995  0.00  0.00    -0.274 OA
ATOM     12  O   UNL     1      -6.290  -6.030  -8.895  0.00  0.00    -0.485 OA
ATOM     13  C   UNL     1      -5.748  -6.185 -10.209  0.00  0.00    +0.270 C 
ATOM     14  C   UNL     1      -4.256  -6.517 -10.079  0.00  0.00    +0.270 C 
ATOM     15  O   UNL     1      -3.614  -5.432  -9.401  0.00  0.00    -0.485 OA
ATOM     16  H   UNL     1      -7.140  -3.786  -4.771  0.00  0.00    +0.155 HD
ENDROOT
BRANCH   1  21
ATOM     17  N   UNL     1      -2.191   0.052  -1.116  0.00  0.00    -0.241 N 
ATOM     18  C   UNL     1      -2.747  -0.825  -1.936  0.00  0.00    +0.259 C 
ATOM     19  O   UNL     1      -2.682  -2.022  -1.733  0.00  0.00    -0.269 OA
ATOM     20  C   UNL     1      -3.455  -0.268  -3.116  0.00  0.00    +0.074 C 
ATOM     21  C   UNL     1      -4.102  -0.903  -4.100  0.00  0.00    +0.010 C 
ATOM     22  S   UNL     1      -3.206   1.483  -2.859  0.00  0.00    -0.061 S 
ATOM     23  C   UNL     1      -2.271   1.379  -1.342  0.00  0.00    +0.121 C 
ATOM     24  S   UNL     1      -1.627   2.656  -0.402  0.00  0.00    -0.027 S 
BRANCH  17  25
ATOM     25  C   UNL     1      -1.477  -0.430   0.069  0.00  0.00    +0.198 C 
BRANCH  25  27
ATOM     26  C   UNL     1      -1.708  -1.710   2.201  0.00  0.00    +0.009 C 
ATOM     27  C   UNL     1      -2.405  -1.321   0.896  0.00  0.00    +0.015 C 
ATOM     28  C   UNL     1      -3.694  -0.560   1.214  0.00  0.00    +0.009 C 
ENDBRANCH  25  27
BRANCH  25  29
ATOM     29  C   UNL     1      -0.270  -1.223  -0.361  0.00  0.00    +0.377 C 
ATOM     30  O   UNL     1      -0.126  -1.528  -1.532  0.00  0.00    -0.244 OA
ATOM     31  O   UNL     1       0.563  -1.560   0.464  0.00  0.00    -0.244 OA
ENDBRANCH  25  29
ENDBRANCH  17  25
ENDBRANCH   1  21
TORSDOF 4
