REMARK  Name = ZINC11873870
REMARK  3 active torsions:
REMARK  status: ('A' for Active; 'I' for Inactive)
REMARK    1  A    between atoms: C_6  and  C_7
REMARK    2  A    between atoms: C_7  and  C_8
REMARK    3  A    between atoms: C_12  and  C_17
REMARK                            x       y       z     vdW  Elec       q    Type
REMARK                         _______ _______ _______ _____ _____    ______ ____
ROOT
ATOM      1  C   UNL     1      -3.547   3.512  -7.307  0.00  0.00    +0.201 A 
ATOM      2  N   UNL     1      -4.279   3.563  -6.236  0.00  0.00    -0.213 NA
ATOM      3  C   UNL     1      -3.539   3.129  -5.179  0.00  0.00    +0.110 A 
ATOM      4  C   UNL     1      -3.800   2.973  -3.820  0.00  0.00    +0.044 A 
ATOM      5  C   UNL     1      -2.800   2.491  -2.981  0.00  0.00    +0.041 A 
ATOM      6  C   UNL     1      -1.540   2.171  -3.503  0.00  0.00    +0.017 A 
ATOM      7  C   UNL     1      -1.285   2.318  -4.836  0.00  0.00    +0.049 A 
ATOM      8  C   UNL     1      -2.272   2.799  -5.687  0.00  0.00    +0.155 A 
ATOM      9  O   UNL     1      -2.321   3.052  -7.013  0.00  0.00    -0.439 OA
ENDROOT
BRANCH   5  10
ATOM     10  C   UNL     1      -3.065   2.321  -1.538  0.00  0.00    +0.269 C 
ATOM     11  O   UNL     1      -2.162   2.009  -0.787  0.00  0.00    -0.268 OA
ATOM     12  N   UNL     1      -4.308   2.513  -1.054  0.00  0.00    -0.177 N 
ATOM     13  C   UNL     1      -4.733   2.272   0.339  0.00  0.00    +0.142 C 
ATOM     14  C   UNL     1      -6.272   2.089   0.209  0.00  0.00    +0.052 C 
ATOM     15  C   UNL     1      -6.575   3.074  -0.950  0.00  0.00    +0.192 C 
ATOM     16  O   UNL     1      -5.419   2.980  -1.801  0.00  0.00    -0.277 OA
ENDBRANCH   5  10
BRANCH   1  17
ATOM     17  C   UNL     1      -4.008   3.911  -8.685  0.00  0.00    +0.131 C 
BRANCH  17  23
ATOM     18  C   UNL     1      -4.669   6.322  -8.572  0.00  0.00    +0.005 A 
ATOM     19  C   UNL     1      -4.404   7.664  -8.770  0.00  0.00    +0.020 A 
ATOM     20  C   UNL     1      -3.194   8.057  -9.314  0.00  0.00    +0.041 A 
ATOM     21  C   UNL     1      -2.248   7.107  -9.654  0.00  0.00    +0.020 A 
ATOM     22  C   UNL     1      -2.512   5.766  -9.450  0.00  0.00    +0.005 A 
ATOM     23  C   UNL     1      -3.721   5.374  -8.907  0.00  0.00    -0.038 A 
ATOM     24 CL   UNL     1      -2.863   9.742  -9.569  0.00  0.00    -0.084 Cl
ENDBRANCH  17  23
ENDBRANCH   1  17
TORSDOF 3
