REMARK  Name = ZINC03347655
REMARK  11 active torsions:
REMARK  status: ('A' for Active; 'I' for Inactive)
REMARK    1  A    between atoms: C_1  and  C_2
REMARK    2  A    between atoms: C_2  and  C_3
REMARK    3  A    between atoms: C_2  and  C_4
REMARK    4  A    between atoms: C_4  and  C_6
REMARK    5  A    between atoms: C_4  and  N_20
REMARK    6  A    between atoms: N_8  and  C_9
REMARK    7  A    between atoms: C_9  and  C_10
REMARK    8  A    between atoms: C_10  and  C_12
REMARK    9  A    between atoms: C_10  and  N_56
REMARK   10  A    between atoms: C_18  and  N_56
REMARK   11  A    between atoms: C_19  and  N_56
REMARK                            x       y       z     vdW  Elec       q    Type
REMARK                         _______ _______ _______ _____ _____    ______ ____
ROOT
ATOM      1  C   UNL     1       1.808   7.311  -2.083  0.00  0.00    +0.234 C 
ATOM      2  O   UNL     1       2.014   6.979  -3.231  0.00  0.00    -0.274 OA
ATOM      3  N   UNL     1       1.854   6.393  -1.097  0.00  0.00    -0.315 N 
ATOM      4  H   UNL     1       1.690   6.658  -0.179  0.00  0.00    +0.149 HD
ENDROOT
BRANCH   1   5
ATOM      5  C   UNL     1       1.501   8.750  -1.758  0.00  0.00    +0.173 C 
BRANCH   5   6
ATOM      6  N   UNL     1       1.510   9.542  -2.991  0.00  0.00    -0.222 N 
ATOM      7  C   UNL     1       2.516   9.548  -3.884  0.00  0.00    +0.255 C 
ATOM      8  O   UNL     1       3.544   8.908  -3.798  0.00  0.00    -0.270 OA
ATOM      9  C   UNL     1       2.158  10.462  -4.990  0.00  0.00    +0.049 A 
ATOM     10  C   UNL     1       2.786  10.858  -6.160  0.00  0.00    +0.014 A 
ATOM     11  C   UNL     1       2.160  11.763  -7.003  0.00  0.00    +0.001 A 
ATOM     12  C   UNL     1       0.915  12.272  -6.685  0.00  0.00    +0.001 A 
ATOM     13  C   UNL     1       0.275  11.885  -5.518  0.00  0.00    +0.014 A 
ATOM     14  C   UNL     1       0.889  10.981  -4.665  0.00  0.00    +0.049 A 
ATOM     15  C   UNL     1       0.515  10.362  -3.376  0.00  0.00    +0.255 C 
ATOM     16  O   UNL     1      -0.516  10.560  -2.767  0.00  0.00    -0.270 OA
ENDBRANCH   5   6
BRANCH   5  18
ATOM     17  C   UNL     1       3.952   9.054  -1.382  0.00  0.00    +0.009 C 
ATOM     18  C   UNL     1       2.559   9.293  -0.796  0.00  0.00    +0.013 C 
ATOM     19  C   UNL     1       2.343  10.794  -0.594  0.00  0.00    +0.009 C 
ENDBRANCH   5  18
ENDBRANCH   1   5
BRANCH   3  20
ATOM     20  C   UNL     1       2.153   4.994  -1.413  0.00  0.00    +0.093 C 
BRANCH  20  21
ATOM     21  C   UNL     1       2.144   4.167  -0.126  0.00  0.00    -0.021 C 
BRANCH  21  22
ATOM     22  C   UNL     1       2.571   2.755  -0.432  0.00  0.00    -0.059 A 
ATOM     23  C   UNL     1       1.849   1.690   0.072  0.00  0.00    +0.002 A 
ATOM     24  C   UNL     1       2.241   0.394  -0.209  0.00  0.00    +0.000 A 
ATOM     25  C   UNL     1       3.354   0.164  -0.996  0.00  0.00    +0.000 A 
ATOM     26  C   UNL     1       4.076   1.229  -1.500  0.00  0.00    +0.000 A 
ATOM     27  C   UNL     1       3.684   2.525  -1.219  0.00  0.00    +0.002 A 
ENDBRANCH  21  22
BRANCH  21  30
ATOM     28  C   UNL     1       2.891   4.173   2.178  0.00  0.00    -0.096 C 
ATOM     29  C   UNL     1       4.466   4.619   0.393  0.00  0.00    -0.096 C 
ATOM     30  N   UNL     1       3.069   4.789   0.846  0.00  0.00    +0.382 N 
ATOM     31  H   UNL     1       2.859   5.792   0.911  0.00  0.00    -0.082 HD
ENDBRANCH  21  30
ENDBRANCH  20  21
ENDBRANCH   3  20
TORSDOF 7
