REMARK  Name = ZINC06108485
REMARK  5 active torsions:
REMARK  status: ('A' for Active; 'I' for Inactive)
REMARK    1  A    between atoms: C_1  and  C_2
REMARK    2  A    between atoms: C_2  and  C_21
REMARK    3  A    between atoms: N_5  and  C_9
REMARK    4  A    between atoms: C_9  and  C_10
REMARK    5  A    between atoms: N_12  and  C_13
REMARK                            x       y       z     vdW  Elec       q    Type
REMARK                         _______ _______ _______ _____ _____    ______ ____
ROOT
ATOM      1  C   UNL     1       1.196   4.122  -1.432  0.00  0.00    +0.047 C 
ATOM      2  C   UNL     1       1.173   3.583   0.000  0.00  0.00    +0.135 C 
ATOM      3  C   UNL     1       2.338   4.133   0.799  0.00  0.00    +0.251 C 
ATOM      4  O   UNL     1       3.519   3.975   0.574  0.00  0.00    -0.272 OA
ATOM      5  N   UNL     1       1.789   4.832   1.811  0.00  0.00    -0.215 N 
ATOM      6  C   UNL     1       0.452   4.801   1.764  0.00  0.00    +0.310 C 
ATOM      7  O   UNL     1      -0.266   5.359   2.570  0.00  0.00    -0.252 OA
ATOM      8  N   UNL     1      -0.009   4.084   0.723  0.00  0.00    -0.281 N 
ATOM      9  H   UNL     1      -0.938   3.927   0.494  0.00  0.00    +0.152 HD
ENDROOT
BRANCH   2  10
ATOM     10  C   UNL     1       1.195   2.076  -0.001  0.00  0.00    -0.015 A 
ATOM     11  C   UNL     1       2.401   1.402  -0.004  0.00  0.00    +0.006 A 
ATOM     12  C   UNL     1       2.419   0.021  -0.006  0.00  0.00    +0.004 A 
ATOM     13  C   UNL     1       1.231  -0.691  -0.005  0.00  0.00    -0.044 A 
ATOM     14  C   UNL     1       0.024  -0.017  -0.001  0.00  0.00    -0.044 A 
ATOM     15  C   UNL     1       0.009   1.368   0.001  0.00  0.00    +0.010 A 
ATOM     16  C   UNL     1      -1.118  -1.010   0.000  0.00  0.00    +0.036 C 
ATOM     17  C   UNL     1      -0.487  -2.350   0.437  0.00  0.00    +0.009 C 
ATOM     18  C   UNL     1       0.982  -2.184  -0.007  0.00  0.00    +0.036 C 
ENDBRANCH   2  10
BRANCH   5  19
ATOM     19  C   UNL     1       2.560   5.538   2.837  0.00  0.00    +0.214 C 
BRANCH  19  20
ATOM     20  C   UNL     1       2.822   4.610   3.996  0.00  0.00    +0.235 C 
ATOM     21  O   UNL     1       2.406   3.471   3.967  0.00  0.00    -0.274 OA
ATOM     22  N   UNL     1       3.519   5.046   5.064  0.00  0.00    -0.282 N 
ATOM     23  H   UNL     1       3.907   5.935   5.060  0.00  0.00    +0.155 HD
BRANCH  22  24
ATOM     24  C   UNL     1       3.683   4.215   6.180  0.00  0.00    +0.069 A 
ATOM     25  C   UNL     1       3.814   2.844   6.013  0.00  0.00    +0.029 A 
ATOM     26  C   UNL     1       3.982   2.026   7.114  0.00  0.00    +0.040 A 
ATOM     27  C   UNL     1       4.007   2.573   8.386  0.00  0.00    +0.126 A 
ATOM     28  C   UNL     1       3.870   3.940   8.558  0.00  0.00    +0.078 A 
ATOM     29  C   UNL     1       3.708   4.763   7.458  0.00  0.00    +0.147 A 
ATOM     30  F   UNL     1       3.575   6.096   7.625  0.00  0.00    -0.203 F 
ATOM     31  F   UNL     1       4.166   1.770   9.461  0.00  0.00    -0.205 F 
ENDBRANCH  22  24
ENDBRANCH  19  20
ENDBRANCH   5  19
TORSDOF 4
