REMARK  Name = ZINC20566343
REMARK  7 active torsions:
REMARK  status: ('A' for Active; 'I' for Inactive)
REMARK    1  A    between atoms: C_1  and  C_2
REMARK    2  A    between atoms: C_2  and  N_3
REMARK    3  A    between atoms: N_6  and  C_9
REMARK    4  A    between atoms: C_9  and  N_10
REMARK    5  A    between atoms: C_12  and  C_19
REMARK    6  A    between atoms: C_21  and  C_32
REMARK    7  A    between atoms: N_23  and  C_26
REMARK                            x       y       z     vdW  Elec       q    Type
REMARK                         _______ _______ _______ _____ _____    ______ ____
ROOT
ATOM      1  N   UNL     1       1.062  11.103   0.394  0.00  0.00    -0.333 N 
ATOM      2  C   UNL     1       0.772   9.802   0.206  0.00  0.00    +0.096 A 
ATOM      3  C   UNL     1      -0.594   9.611   0.320  0.00  0.00    +0.001 A 
ATOM      4  C   UNL     1      -1.171  10.939   0.613  0.00  0.00    +0.007 A 
ATOM      5  C   UNL     1      -0.086  11.829   0.646  0.00  0.00    +0.051 A 
ATOM      6  C   UNL     1      -0.318  13.175   0.904  0.00  0.00    +0.026 A 
ATOM      7  C   UNL     1      -1.603  13.622   1.125  0.00  0.00    +0.002 A 
ATOM      8  C   UNL     1      -2.673  12.741   1.092  0.00  0.00    +0.001 A 
ATOM      9  C   UNL     1      -2.463  11.402   0.837  0.00  0.00    +0.010 A 
ENDROOT
BRANCH   3  10
ATOM     10  C   UNL     1      -1.293   8.393   0.188  0.00  0.00    +0.025 C 
ATOM     11  C   UNL     1      -0.973   7.516  -0.842  0.00  0.00    +0.062 C 
ATOM     12  C   UNL     1      -0.078   7.762  -1.981  0.00  0.00    +0.069 C 
ATOM     13  N   UNL     1      -0.054   6.682  -2.701  0.00  0.00    -0.177 NA
ATOM     14  N   UNL     1      -0.875   5.693  -2.160  0.00  0.00    -0.156 N 
ATOM     15  C   UNL     1      -1.456   6.142  -1.029  0.00  0.00    +0.272 C 
ATOM     16  O   UNL     1      -2.225   5.530  -0.306  0.00  0.00    -0.268 OA
ATOM     17  C   UNL     1       0.679   9.034  -2.259  0.00  0.00    +0.068 C 
BRANCH  14  18
ATOM     18  C   UNL     1      -1.065   4.418  -2.708  0.00  0.00    +0.060 A 
ATOM     19  C   UNL     1      -0.413   4.061  -3.881  0.00  0.00    +0.025 A 
ATOM     20  C   UNL     1      -0.603   2.803  -4.419  0.00  0.00    +0.002 A 
ATOM     21  C   UNL     1      -1.439   1.899  -3.790  0.00  0.00    +0.000 A 
ATOM     22  C   UNL     1      -2.093   2.253  -2.625  0.00  0.00    +0.002 A 
ATOM     23  C   UNL     1      -1.904   3.508  -2.079  0.00  0.00    +0.025 A 
ENDBRANCH  14  18
ENDBRANCH   3  10
BRANCH   1  24
ATOM     24  C   UNL     1       2.411  11.671   0.342  0.00  0.00    +0.209 C 
BRANCH  24  28
ATOM     25  N   UNL     1       4.082  13.303   3.862  0.00  0.00    +0.381 N 
ATOM     26  C   UNL     1       4.859  12.286   3.138  0.00  0.00    -0.063 C 
ATOM     27  C   UNL     1       4.349  12.190   1.698  0.00  0.00    +0.067 C 
ATOM     28  N   UNL     1       2.920  11.848   1.709  0.00  0.00    -0.288 NA
ATOM     29  C   UNL     1       2.144  12.864   2.433  0.00  0.00    +0.067 C 
ATOM     30  C   UNL     1       2.653  12.960   3.873  0.00  0.00    -0.063 C 
ATOM     31  H   UNL     1       4.199  14.260   3.333  0.00  0.00    -0.082 HD
BRANCH  25  33
ATOM     32  C   UNL     1       3.933  14.705   5.864  0.00  0.00    -0.017 C 
ATOM     33  C   UNL     1       4.592  13.479   5.229  0.00  0.00    -0.082 C 
ENDBRANCH  25  33
ENDBRANCH  24  28
ENDBRANCH   1  24
TORSDOF 5
