REMARK  Name = ZINC09820334
REMARK  2 active torsions:
REMARK  status: ('A' for Active; 'I' for Inactive)
REMARK    1  A    between atoms: C_8  and  C_27
REMARK    2  A    between atoms: C_11  and  C_13
REMARK                            x       y       z     vdW  Elec       q    Type
REMARK                         _______ _______ _______ _____ _____    ______ ____
ROOT
ATOM      1  C   UNL     1       2.133  -6.064   5.202  0.00  0.00    +0.000 A 
ATOM      2  C   UNL     1       2.190  -4.683   5.260  0.00  0.00    +0.002 A 
ATOM      3  C   UNL     1       2.022  -3.933   4.115  0.00  0.00    +0.024 A 
ATOM      4  C   UNL     1       1.791  -4.561   2.889  0.00  0.00    +0.040 A 
ATOM      5  C   UNL     1       1.735  -5.945   2.842  0.00  0.00    -0.024 A 
ATOM      6  C   UNL     1       1.905  -6.692   3.992  0.00  0.00    +0.005 A 
ATOM      7  C   UNL     1       1.477  -6.368   1.414  0.00  0.00    +0.069 C 
ATOM      8  C   UNL     1       1.382  -5.048   0.631  0.00  0.00    +0.171 C 
ATOM      9  N   UNL     1       1.595  -3.994   1.626  0.00  0.00    -0.258 N 
ATOM     10  C   UNL     1       1.596  -2.672   1.364  0.00  0.00    +0.232 C 
ATOM     11  O   UNL     1       1.495  -1.874   2.271  0.00  0.00    -0.274 OA
ENDROOT
BRANCH  10  12
ATOM     12  C   UNL     1       1.722  -2.186  -0.057  0.00  0.00    +0.142 C 
ATOM     13  C   UNL     1       2.595  -0.961  -0.087  0.00  0.00    +0.011 A 
ATOM     14  C   UNL     1       3.968  -1.104   0.009  0.00  0.00    +0.008 A 
ATOM     15  C   UNL     1       4.787   0.009  -0.014  0.00  0.00    +0.001 A 
ATOM     16  C   UNL     1       4.236   1.271  -0.136  0.00  0.00    +0.004 A 
ATOM     17  C   UNL     1       2.867   1.419  -0.232  0.00  0.00    +0.046 A 
ATOM     18  C   UNL     1       2.040   0.302  -0.208  0.00  0.00    +0.133 A 
ATOM     19  O   UNL     1       0.699   0.469  -0.304  0.00  0.00    -0.455 OA
ATOM     20  C   UNL     1      -0.087  -0.563  -0.694  0.00  0.00    +0.133 A 
ATOM     21  C   UNL     1       0.354  -1.873  -0.598  0.00  0.00    +0.011 A 
ATOM     22  C   UNL     1      -0.470  -2.908  -1.002  0.00  0.00    +0.008 A 
ATOM     23  C   UNL     1      -1.731  -2.641  -1.499  0.00  0.00    +0.001 A 
ATOM     24  C   UNL     1      -2.173  -1.335  -1.598  0.00  0.00    +0.004 A 
ATOM     25  C   UNL     1      -1.356  -0.297  -1.197  0.00  0.00    +0.046 A 
ENDBRANCH  10  12
BRANCH   8  26
ATOM     26  C   UNL     1       2.455  -4.993  -0.426  0.00  0.00    +0.232 C 
ATOM     27  O   UNL     1       3.326  -4.151  -0.363  0.00  0.00    -0.274 OA
ATOM     28  N   UNL     1       2.447  -5.879  -1.442  0.00  0.00    -0.328 N 
ATOM     29  H   UNL     1       1.750  -6.553  -1.492  0.00  0.00    +0.145 HD
ATOM     30  H   UNL     1       3.137  -5.844  -2.122  0.00  0.00    +0.145 HD
ENDBRANCH   8  26
TORSDOF 2
