REMARK  Name = ZINC23475204
REMARK  7 active torsions:
REMARK  status: ('A' for Active; 'I' for Inactive)
REMARK    1  A    between atoms: C_1  and  C_2
REMARK    2  A    between atoms: C_3  and  C_8
REMARK    3  A    between atoms: C_4  and  C_7
REMARK    4  A    between atoms: C_8  and  S_9
REMARK    5  A    between atoms: S_9  and  C_10
REMARK    6  A    between atoms: C_13  and  C_16
REMARK    7  A    between atoms: N_14  and  C_15
REMARK                            x       y       z     vdW  Elec       q    Type
REMARK                         _______ _______ _______ _____ _____    ______ ____
ROOT
ATOM      1  C   UNL     1      -0.162   1.718   2.460  0.00  0.00    +0.192 A 
ATOM      2  N   UNL     1      -1.108   2.206   3.230  0.00  0.00    -0.122 NA
ATOM      3  N   UNL     1      -2.204   2.317   2.567  0.00  0.00    -0.128 NA
ATOM      4  C   UNL     1      -2.023   1.912   1.332  0.00  0.00    +0.166 A 
ATOM      5  N   UNL     1      -0.711   1.510   1.226  0.00  0.00    -0.305 N 
ATOM      6  C   UNL     1      -0.042   0.976   0.038  0.00  0.00    +0.153 C 
ENDROOT
BRANCH   4   7
ATOM      7  C   UNL     1      -3.038   1.889   0.257  0.00  0.00    +0.038 A 
ATOM      8  C   UNL     1      -3.197   0.749  -0.532  0.00  0.00    +0.013 A 
ATOM      9  C   UNL     1      -4.146   0.734  -1.533  0.00  0.00    +0.001 A 
ATOM     10  C   UNL     1      -4.940   1.846  -1.756  0.00  0.00    +0.001 A 
ATOM     11  C   UNL     1      -4.787   2.979  -0.978  0.00  0.00    +0.021 A 
ATOM     12  C   UNL     1      -3.845   3.006   0.031  0.00  0.00    +0.052 A 
ATOM     13 CL   UNL     1      -3.659   4.427   1.011  0.00  0.00    -0.083 Cl
ENDBRANCH   4   7
BRANCH   1  14
ATOM     14  S   UNL     1       1.505   1.392   2.930  0.00  0.00    -0.081 S 
BRANCH  14  15
ATOM     15  C   UNL     1       1.450   1.913   4.662  0.00  0.00    +0.117 C 
BRANCH  15  18
ATOM     16  C   UNL     1       2.569  -0.719   6.194  0.00  0.00    +0.069 C 
ATOM     17  C   UNL     1       3.302   0.576   5.957  0.00  0.00    +0.085 A 
ATOM     18  C   UNL     1       2.807   1.719   5.288  0.00  0.00    +0.027 A 
ATOM     19  C   UNL     1       3.833   2.602   5.345  0.00  0.00    +0.138 A 
ATOM     20  O   UNL     1       4.829   1.985   5.997  0.00  0.00    -0.359 OA
ATOM     21  N   UNL     1       4.517   0.863   6.326  0.00  0.00    -0.083 NA
ATOM     22  C   UNL     1       3.852   4.001   4.786  0.00  0.00    +0.089 C 
ENDBRANCH  15  18
ENDBRANCH  14  15
ENDBRANCH   1  14
TORSDOF 4
