REMARK  Name = ZINC66985583
REMARK  5 active torsions:
REMARK  status: ('A' for Active; 'I' for Inactive)
REMARK    1  A    between atoms: C_1  and  C_2
REMARK    2  A    between atoms: C_2  and  C_4
REMARK    3  A    between atoms: C_2  and  N_12
REMARK    4  A    between atoms: C_7  and  C_10
REMARK    5  A    between atoms: C_21  and  C_23
REMARK                            x       y       z     vdW  Elec       q    Type
REMARK                         _______ _______ _______ _____ _____    ______ ____
ROOT
ATOM      1  N   UNL     1       0.574  -1.584   1.128  0.00  0.00    -0.293 N 
ATOM      2  C   UNL     1      -0.059  -1.528   2.317  0.00  0.00    +0.303 C 
ATOM      3  O   UNL     1      -1.224  -1.186   2.370  0.00  0.00    -0.253 OA
ATOM      4  N   UNL     1       0.601  -1.851   3.447  0.00  0.00    -0.283 N 
ATOM      5  C   UNL     1       2.040  -2.150   3.413  0.00  0.00    +0.128 C 
ATOM      6  C   UNL     1       2.756  -1.226   4.407  0.00  0.00    +0.127 C 
ATOM      7  N   UNL     1       2.050  -1.285   5.695  0.00  0.00    -0.298 N 
ATOM      8  C   UNL     1       0.611  -0.986   5.728  0.00  0.00    +0.127 C 
ATOM      9  C   UNL     1      -0.103  -1.904   4.735  0.00  0.00    +0.128 C 
ATOM     10  C   UNL     1       2.709  -1.608   6.825  0.00  0.00    +0.219 C 
ATOM     11  O   UNL     1       2.105  -1.713   7.871  0.00  0.00    -0.275 OA
ATOM     12  H   UNL     1       1.522  -1.787   1.092  0.00  0.00    +0.151 HD
ENDROOT
BRANCH  10  13
ATOM     13  C   UNL     1       4.198  -1.837   6.788  0.00  0.00    +0.075 C 
ATOM     14  C   UNL     1       4.909  -0.524   6.454  0.00  0.00    +0.013 C 
ATOM     15  C   UNL     1       6.421  -0.758   6.417  0.00  0.00    +0.001 C 
ATOM     16  C   UNL     1       6.893  -1.260   7.783  0.00  0.00    +0.000 C 
ATOM     17  C   UNL     1       6.182  -2.573   8.117  0.00  0.00    +0.001 C 
ATOM     18  C   UNL     1       4.670  -2.340   8.154  0.00  0.00    +0.013 C 
ENDBRANCH  10  13
BRANCH   1  20
ATOM     19  C   UNL     1      -0.232   0.165  -0.379  0.00  0.00    +0.033 C 
ATOM     20  C   UNL     1      -0.171  -1.340  -0.110  0.00  0.00    +0.102 C 
BRANCH  20  21
ATOM     21  C   UNL     1       0.522  -2.028  -1.258  0.00  0.00    -0.027 A 
ATOM     22  C   UNL     1       1.904  -2.024  -1.330  0.00  0.00    +0.007 A 
ATOM     23  C   UNL     1       2.545  -2.651  -2.377  0.00  0.00    +0.019 A 
ATOM     24  C   UNL     1       1.796  -3.293  -3.366  0.00  0.00    +0.052 A 
ATOM     25  C   UNL     1       0.402  -3.293  -3.287  0.00  0.00    +0.019 A 
ATOM     26  C   UNL     1      -0.226  -2.666  -2.231  0.00  0.00    +0.007 A 
BRANCH  24  27
ATOM     27  C   UNL     1       2.455  -3.946  -4.457  0.00  0.00    +0.099 C 
ATOM     28  N   UNL     1       2.978  -4.464  -5.322  0.00  0.00    -0.191 NA
ENDBRANCH  24  27
ENDBRANCH  20  21
ENDBRANCH   1  20
TORSDOF 4
