REMARK  Name = ZINC67064821
REMARK  4 active torsions:
REMARK  status: ('A' for Active; 'I' for Inactive)
REMARK    1  A    between atoms: C_3  and  C_8
REMARK    2  A    between atoms: N_17  and  C_18
REMARK    3  A    between atoms: C_18  and  C_19
REMARK    4  A    between atoms: C_19  and  N_20
REMARK                            x       y       z     vdW  Elec       q    Type
REMARK                         _______ _______ _______ _____ _____    ______ ____
ROOT
ATOM      1  C   UNL     1       3.669   2.183  -0.017  0.00  0.00    +0.166 C 
ATOM      2  C   UNL     1       4.256   2.220   1.399  0.00  0.00    +0.145 C 
ATOM      3  N   UNL     1       5.599   2.817   1.329  0.00  0.00    -0.281 N 
ATOM      4  C   UNL     1       6.545   2.277   0.338  0.00  0.00    +0.137 C 
ATOM      5  C   UNL     1       5.846   2.237  -1.026  0.00  0.00    +0.179 C 
ATOM      6  O   UNL     1       4.600   1.549  -0.897  0.00  0.00    -0.369 OA
ATOM      7  C   UNL     1       5.954   3.828   2.147  0.00  0.00    +0.302 C 
ATOM      8  O   UNL     1       5.131   4.324   2.892  0.00  0.00    -0.253 OA
ATOM      9  N   UNL     1       7.220   4.289   2.139  0.00  0.00    -0.301 N 
ATOM     10  H   UNL     1       7.858   3.943   1.495  0.00  0.00    +0.150 HD
ENDROOT
BRANCH   1  13
ATOM     11  C   UNL     1      -0.017   1.367   0.024  0.00  0.00    +0.003 A 
ATOM     12  C   UNL     1       1.169   2.078   0.014  0.00  0.00    +0.006 A 
ATOM     13  C   UNL     1       2.377   1.407  -0.006  0.00  0.00    -0.015 A 
ATOM     14  C   UNL     1       2.401   0.025  -0.016  0.00  0.00    +0.044 A 
ATOM     15  C   UNL     1       1.215  -0.687  -0.006  0.00  0.00    +0.124 A 
ATOM     16  C   UNL     1       0.004  -0.015   0.014  0.00  0.00    +0.038 A 
ATOM     17  F   UNL     1       1.237  -2.038  -0.016  0.00  0.00    -0.205 F 
ENDBRANCH   1  13
BRANCH   9  18
ATOM     18  C   UNL     1       7.633   5.312   3.103  0.00  0.00    +0.087 C 
BRANCH  18  19
ATOM     19  C   UNL     1       9.107   5.656   2.881  0.00  0.00    -0.059 C 
BRANCH  19  20
ATOM     20  N   UNL     1       9.521   6.682   3.848  0.00  0.00    +0.384 N 
ATOM     21  C   UNL     1      10.889   7.118   3.534  0.00  0.00    -0.073 C 
ATOM     22  C   UNL     1      11.194   8.404   4.321  0.00  0.00    +0.024 C 
ATOM     23  C   UNL     1      10.763   8.179   5.734  0.00  0.00    -0.011 A 
ATOM     24  C   UNL     1       9.978   7.162   6.189  0.00  0.00    -0.054 A 
ATOM     25  C   UNL     1       9.708   7.149   7.555  0.00  0.00    +0.009 A 
ATOM     26  C   UNL     1      10.215   8.116   8.355  0.00  0.00    +0.045 A 
ATOM     27  S   UNL     1      11.124   9.120   7.189  0.00  0.00    -0.101 S 
ATOM     28  C   UNL     1       9.449   6.125   5.204  0.00  0.00    -0.042 C 
ATOM     29  H   UNL     1       8.898   7.472   3.780  0.00  0.00    -0.081 HD
ENDBRANCH  19  20
ENDBRANCH  18  19
ENDBRANCH   9  18
TORSDOF 4
