REMARK  Name = ZINC40450006
REMARK  3 active torsions:
REMARK  status: ('A' for Active; 'I' for Inactive)
REMARK    1  A    between atoms: C_4  and  C_7
REMARK    2  A    between atoms: C_7  and  C_8
REMARK    3  A    between atoms: N_16  and  C_18
REMARK                            x       y       z     vdW  Elec       q    Type
REMARK                         _______ _______ _______ _____ _____    ______ ____
ROOT
ATOM      1  C   UNL     1       4.164  -0.959   1.377  0.00  0.00    +0.082 A 
ATOM      2  C   UNL     1       4.965  -0.099   2.152  0.00  0.00    +0.106 A 
ATOM      3  C   UNL     1       5.148  -0.713   3.401  0.00  0.00    +0.166 A 
ATOM      4  N   UNL     1       5.884  -0.089   4.335  0.00  0.00    -0.218 NA
ATOM      5  C   UNL     1       6.433   1.069   4.116  0.00  0.00    +0.201 A 
ATOM      6  N   UNL     1       6.311   1.736   2.941  0.00  0.00    -0.313 N 
ATOM      7  C   UNL     1       5.591   1.203   1.925  0.00  0.00    +0.262 A 
ATOM      8  O   UNL     1       5.470   1.786   0.863  0.00  0.00    -0.267 OA
ATOM      9  N   UNL     1       4.476  -1.892   3.356  0.00  0.00    -0.243 N 
ATOM     10  N   UNL     1       3.878  -2.010   2.095  0.00  0.00    -0.173 NA
ATOM     11  H   UNL     1       6.741   2.598   2.827  0.00  0.00    +0.170 HD
ENDROOT
BRANCH   9  12
ATOM     12  C   UNL     1       4.389  -2.872   4.442  0.00  0.00    +0.109 C 
ATOM     13  C   UNL     1       4.912  -4.241   3.962  0.00  0.00    +0.027 C 
ATOM     14  C   UNL     1       3.982  -5.268   4.654  0.00  0.00    +0.002 C 
ATOM     15  C   UNL     1       2.601  -4.569   4.598  0.00  0.00    +0.002 C 
ATOM     16  C   UNL     1       2.919  -3.081   4.847  0.00  0.00    +0.027 C 
ENDBRANCH   9  12
BRANCH   1  17
ATOM     17  C   UNL     1       3.711  -0.707  -0.038  0.00  0.00    +0.093 C 
BRANCH  17  21
ATOM     18  C   UNL     1      -0.017   1.378   0.010  0.00  0.00    +0.000 A 
ATOM     19  C   UNL     1       1.171   2.086   0.002  0.00  0.00    +0.000 A 
ATOM     20  C   UNL     1       2.377   1.411  -0.013  0.00  0.00    +0.004 A 
ATOM     21  C   UNL     1       2.396   0.029  -0.020  0.00  0.00    -0.042 A 
ATOM     22  C   UNL     1       1.208  -0.679  -0.012  0.00  0.00    +0.004 A 
ATOM     23  C   UNL     1       0.002  -0.004   0.002  0.00  0.00    +0.000 A 
ENDBRANCH  17  21
ENDBRANCH   1  17
TORSDOF 3
