REMARK  Name = ZINC32101896
REMARK  7 active torsions:
REMARK  status: ('A' for Active; 'I' for Inactive)
REMARK    1  A    between atoms: C_1  and  C_2
REMARK    2  A    between atoms: C_2  and  C_3
REMARK    3  A    between atoms: C_2  and  C_4
REMARK    4  A    between atoms: C_17  and  C_20
REMARK    5  A    between atoms: N_22  and  C_23
REMARK    6  A    between atoms: C_23  and  C_24
REMARK    7  A    between atoms: C_24  and  C_25
REMARK                            x       y       z     vdW  Elec       q    Type
REMARK                         _______ _______ _______ _____ _____    ______ ____
ROOT
ATOM      1  C   UNL     1      -2.525   3.525   0.045  0.00  0.00    +0.158 A 
ATOM      2  N   UNL     1      -3.258   2.439   0.030  0.00  0.00    -0.132 NA
ATOM      3  N   UNL     1      -2.505   1.395   0.021  0.00  0.00    -0.128 NA
ATOM      4  C   UNL     1      -1.236   1.772   0.018  0.00  0.00    +0.178 A 
ATOM      5  N   UNL     1      -1.229   3.145   0.031  0.00  0.00    -0.195 N 
ATOM      6  N   UNL     1      -0.017   3.839   0.022  0.00  0.00    -0.148 NA
ATOM      7  C   UNL     1       1.122   3.188   0.008  0.00  0.00    +0.142 A 
ATOM      8  C   UNL     1       1.150   1.780   0.001  0.00  0.00    +0.049 A 
ATOM      9  C   UNL     1      -0.013   1.076   0.008  0.00  0.00    +0.053 A 
ATOM     10  N   UNL     1       2.318   3.899  -0.001  0.00  0.00    -0.313 N 
ATOM     11  C   UNL     1       3.153   3.510  -1.145  0.00  0.00    +0.106 C 
ATOM     12  C   UNL     1       4.515   4.201  -1.042  0.00  0.00    +0.020 C 
ATOM     13  C   UNL     1       4.312   5.718  -1.026  0.00  0.00    +0.016 C 
ATOM     14  C   UNL     1       3.401   6.091   0.146  0.00  0.00    +0.092 C 
ATOM     15  C   UNL     1       2.071   5.346   0.009  0.00  0.00    +0.119 C 
ENDROOT
BRANCH  14  16
ATOM     16  C   UNL     1       3.148   7.577   0.135  0.00  0.00    +0.218 C 
ATOM     17  O   UNL     1       2.016   7.999   0.027  0.00  0.00    -0.275 OA
ATOM     18  N   UNL     1       4.180   8.437   0.244  0.00  0.00    -0.315 N 
ATOM     19  H   UNL     1       5.207   8.054   0.341  0.00  0.00    +0.149 HD
BRANCH  18  20
ATOM     20  C   UNL     1       3.935   9.881   0.232  0.00  0.00    +0.109 C 
BRANCH  20  21
ATOM     21  C   UNL     1       5.265  10.625   0.369  0.00  0.00    +0.054 C 
BRANCH  21  22
ATOM     22  C   UNL     1       5.012  12.111   0.358  0.00  0.00    -0.046 A 
ATOM     23  C   UNL     1       5.019  12.803  -0.839  0.00  0.00    +0.006 A 
ATOM     24  C   UNL     1       4.783  14.165  -0.851  0.00  0.00    +0.038 A 
ATOM     25  C   UNL     1       4.550  14.838   0.336  0.00  0.00    +0.123 A 
ATOM     26  C   UNL     1       4.548  14.144   1.535  0.00  0.00    +0.038 A 
ATOM     27  C   UNL     1       4.780  12.781   1.544  0.00  0.00    +0.006 A 
ATOM     28  F   UNL     1       4.324  16.169   0.326  0.00  0.00    -0.205 F 
ENDBRANCH  21  22
ENDBRANCH  20  21
ENDBRANCH  18  20
ENDBRANCH  14  16
BRANCH   1  30
ATOM     29  C   UNL     1      -3.898   5.184  -1.183  0.00  0.00    +0.015 C 
ATOM     30  C   UNL     1      -3.035   4.943   0.057  0.00  0.00    +0.053 C 
ATOM     31  C   UNL     1      -3.875   5.172   1.315  0.00  0.00    +0.015 C 
ENDBRANCH   1  30
TORSDOF 5
