REMARK  Name = ZINC06950715
REMARK  5 active torsions:
REMARK  status: ('A' for Active; 'I' for Inactive)
REMARK    1  A    between atoms: C_1  and  O_2
REMARK    2  A    between atoms: O_2  and  C_3
REMARK    3  A    between atoms: C_3  and  C_5
REMARK    4  A    between atoms: C_12  and  C_21
REMARK    5  A    between atoms: C_26  and  N_27
REMARK                            x       y       z     vdW  Elec       q    Type
REMARK                         _______ _______ _______ _____ _____    ______ ____
ROOT
ATOM      1  C   UNL     1       2.447   1.422  -0.010  0.00  0.00    +0.080 A 
ATOM      2  C   UNL     1       1.252   2.140   0.038  0.00  0.00    +0.017 A 
ATOM      3  C   UNL     1       0.048   1.473   0.076  0.00  0.00    +0.001 A 
ATOM      4  C   UNL     1       0.026   0.087   0.072  0.00  0.00    +0.006 A 
ATOM      5  C   UNL     1       1.196  -0.638   0.029  0.00  0.00    -0.019 A 
ATOM      6  C   UNL     1       2.433   0.012  -0.028  0.00  0.00    +0.045 A 
ATOM      7  N   UNL     1       3.651  -0.640  -0.107  0.00  0.00    -0.336 N 
ATOM      8  C   UNL     1       3.628  -2.108  -0.014  0.00  0.00    +0.107 C 
ATOM      9  C   UNL     1       2.417  -2.585  -0.789  0.00  0.00    +0.029 C 
ATOM     10  C   UNL     1       1.196  -2.117   0.064  0.00  0.00    +0.049 C 
ATOM     11  C   UNL     1       0.085  -2.962  -0.463  0.00  0.00    -0.023 C 
ATOM     12  C   UNL     1       0.591  -4.089  -0.952  0.00  0.00    -0.030 C 
ATOM     13  C   UNL     1       2.114  -4.087  -0.800  0.00  0.00    +0.033 C 
ATOM     14  H   UNL     1       4.171  -0.337  -0.917  0.00  0.00    +0.147 HD
ENDROOT
BRANCH   8  15
ATOM     15  C   UNL     1       3.514  -2.530   1.428  0.00  0.00    +0.003 A 
ATOM     16  C   UNL     1       2.994  -1.657   2.365  0.00  0.00    +0.008 A 
ATOM     17  C   UNL     1       2.889  -2.044   3.687  0.00  0.00    +0.000 A 
ATOM     18  C   UNL     1       3.305  -3.305   4.074  0.00  0.00    +0.002 A 
ATOM     19  C   UNL     1       3.825  -4.178   3.137  0.00  0.00    +0.033 A 
ATOM     20  C   UNL     1       3.925  -3.793   1.813  0.00  0.00    +0.131 A 
BRANCH  20  21
ATOM     21  N   UNL     1       4.476  -4.730   0.809  0.00  0.00    +0.057 N 
ATOM     22  O   UNL     1       4.740  -5.876   1.126  0.00  0.00    -0.126 OA
ATOM     23  O   UNL     1       4.666  -4.356  -0.334  0.00  0.00    -0.126 OA
ENDBRANCH  20  21
ENDBRANCH   8  15
BRANCH   1  24
ATOM     24  C   UNL     1       3.732   2.142  -0.044  0.00  0.00    +0.341 C 
ATOM     25  O   UNL     1       4.775   1.520  -0.086  0.00  0.00    -0.245 OA
BRANCH  24  27
ATOM     26  C   UNL     1       5.052   4.131  -0.063  0.00  0.00    +0.280 C 
ATOM     27  O   UNL     1       3.750   3.489  -0.028  0.00  0.00    -0.464 OA
ENDBRANCH  24  27
ENDBRANCH   1  24
TORSDOF 4
