REMARK  Name = ZINC12127972
REMARK  5 active torsions:
REMARK  status: ('A' for Active; 'I' for Inactive)
REMARK    1  A    between atoms: C_4  and  C_7
REMARK    2  A    between atoms: C_18  and  C_19
REMARK    3  A    between atoms: C_18  and  N_57
REMARK    4  A    between atoms: C_19  and  N_20
REMARK    5  A    between atoms: C_21  and  C_23
REMARK                            x       y       z     vdW  Elec       q    Type
REMARK                         _______ _______ _______ _____ _____    ______ ____
ROOT
ATOM      1  C   UNL     1      -5.527  -5.644   1.444  0.00  0.00    +0.187 C 
ATOM      2  C   UNL     1      -4.367  -4.703   1.199  0.00  0.00    -0.028 C 
ATOM      3  C   UNL     1      -4.330  -4.801  -1.234  0.00  0.00    -0.039 C 
ATOM      4  C   UNL     1      -5.186  -6.019  -1.526  0.00  0.00    -0.022 A 
ATOM      5  C   UNL     1      -4.898  -6.825  -2.607  0.00  0.00    +0.005 A 
ATOM      6  C   UNL     1      -5.696  -7.924  -2.874  0.00  0.00    +0.000 A 
ATOM      7  C   UNL     1      -6.779  -8.209  -2.062  0.00  0.00    +0.004 A 
ATOM      8  C   UNL     1      -7.063  -7.404  -0.975  0.00  0.00    +0.046 A 
ATOM      9  C   UNL     1      -6.256  -6.308  -0.702  0.00  0.00    +0.123 A 
ATOM     10  O   UNL     1      -6.497  -5.538   0.394  0.00  0.00    -0.486 OA
ATOM     11  N   UNL     1      -3.569  -5.069   0.009  0.00  0.00    +0.386 N 
ATOM     12  H   UNL     1      -3.353  -6.072   0.053  0.00  0.00    -0.081 HD
ENDROOT
BRANCH   1  16
ATOM     13  C   UNL     1      -7.371  -4.662   5.170  0.00  0.00    +0.000 A 
ATOM     14  C   UNL     1      -6.392  -5.636   5.119  0.00  0.00    +0.000 A 
ATOM     15  C   UNL     1      -5.795  -5.954   3.913  0.00  0.00    +0.007 A 
ATOM     16  C   UNL     1      -6.178  -5.298   2.758  0.00  0.00    -0.009 A 
ATOM     17  C   UNL     1      -7.154  -4.320   2.810  0.00  0.00    +0.007 A 
ATOM     18  C   UNL     1      -7.755  -4.006   4.015  0.00  0.00    +0.000 A 
ENDBRANCH   1  16
BRANCH  11  19
ATOM     19  C   UNL     1      -2.309  -4.309   0.001  0.00  0.00    -0.059 C 
BRANCH  19  20
ATOM     20  C   UNL     1      -2.575  -2.803   0.012  0.00  0.00    +0.086 C 
BRANCH  20  21
ATOM     21  N   UNL     1      -1.300  -2.082   0.003  0.00  0.00    -0.311 N 
ATOM     22  C   UNL     1      -1.288  -0.734   0.010  0.00  0.00    +0.279 C 
ATOM     23  O   UNL     1      -2.335  -0.117   0.024  0.00  0.00    -0.267 OA
ATOM     24  H   UNL     1      -0.464  -2.574  -0.007  0.00  0.00    +0.149 HD
BRANCH  22  25
ATOM     25  C   UNL     1       0.002  -0.004   0.002  0.00  0.00    +0.193 A 
ATOM     26  C   UNL     1      -0.016   1.350   0.009  0.00  0.00    +0.103 A 
ATOM     27  C   UNL     1       1.263   2.076   0.001  0.00  0.00    +0.193 A 
ATOM     28  O   UNL     1       1.306   3.293   0.007  0.00  0.00    -0.287 OA
ATOM     29  C   UNL     1       2.491   1.259  -0.015  0.00  0.00    +0.064 A 
ATOM     30  C   UNL     1       3.755   1.848  -0.024  0.00  0.00    +0.015 A 
ATOM     31  C   UNL     1       4.871   1.058  -0.039  0.00  0.00    +0.001 A 
ATOM     32  C   UNL     1       4.752  -0.325  -0.045  0.00  0.00    +0.004 A 
ATOM     33  C   UNL     1       3.511  -0.925  -0.036  0.00  0.00    +0.047 A 
ATOM     34  C   UNL     1       2.362  -0.141  -0.021  0.00  0.00    +0.139 A 
ATOM     35  O   UNL     1       1.142  -0.710  -0.012  0.00  0.00    -0.450 OA
ENDBRANCH  22  25
ENDBRANCH  20  21
ENDBRANCH  19  20
ENDBRANCH  11  19
TORSDOF 5
