REMARK  Name = ZINC09950494
REMARK  1 active torsions:
REMARK  status: ('A' for Active; 'I' for Inactive)
REMARK    1  A    between atoms: C_8  and  C_10
REMARK                            x       y       z     vdW  Elec       q    Type
REMARK                         _______ _______ _______ _____ _____    ______ ____
ROOT
ATOM      1  C   UNL     1      -0.013   1.076   0.008  0.00  0.00    +0.001 A 
ATOM      2  C   UNL     1      -1.226   1.749   0.017  0.00  0.00    +0.004 A 
ATOM      3  C   UNL     1      -1.268   3.127   0.030  0.00  0.00    +0.047 A 
ATOM      4  C   UNL     1      -0.086   3.856   0.023  0.00  0.00    +0.136 A 
ATOM      5  C   UNL     1       1.143   3.168   0.008  0.00  0.00    +0.021 A 
ATOM      6  C   UNL     1       1.164   1.771   0.001  0.00  0.00    +0.011 A 
ATOM      7  C   UNL     1       2.176   4.202   0.003  0.00  0.00    +0.057 A 
ATOM      8  C   UNL     1       1.516   5.395   0.015  0.00  0.00    +0.130 A 
ATOM      9  O   UNL     1       0.184   5.176   0.027  0.00  0.00    -0.455 OA
ENDROOT
BRANCH   8  10
ATOM     10  C   UNL     1       2.134   6.670   0.017  0.00  0.00    +0.066 C 
ATOM     11  C   UNL     1       1.369   7.797   0.029  0.00  0.00    +0.080 C 
ATOM     12  C   UNL     1       1.782   9.213   0.033  0.00  0.00    +0.256 C 
ATOM     13  O   UNL     1       2.956   9.537   0.024  0.00  0.00    -0.269 OA
ATOM     14  N   UNL     1       0.814  10.113   0.046  0.00  0.00    -0.270 N 
ATOM     15  C   UNL     1      -0.485   9.751   0.056  0.00  0.00    +0.118 C 
ATOM     16  S   UNL     1      -1.870  10.757   0.072  0.00  0.00    -0.027 S 
ATOM     17  S   UNL     1      -0.410   7.967   0.038  0.00  0.00    -0.061 S 
ATOM     18  H   UNL     1       1.043  11.056   0.049  0.00  0.00    +0.156 HD
ENDBRANCH   8  10
TORSDOF 1
