REMARK  Name = ZINC63752162
REMARK  5 active torsions:
REMARK  status: ('A' for Active; 'I' for Inactive)
REMARK    1  A    between atoms: C_1  and  O_2
REMARK    2  A    between atoms: O_2  and  C_3
REMARK    3  A    between atoms: C_6  and  S_9
REMARK    4  A    between atoms: S_9  and  N_12
REMARK    5  A    between atoms: C_25  and  C_27
REMARK                            x       y       z     vdW  Elec       q    Type
REMARK                         _______ _______ _______ _____ _____    ______ ____
ROOT
ATOM      1  N   UNL     1       4.355  -3.151  -4.574  0.00  0.00    -0.167 NA
ATOM      2  C   UNL     1       5.375  -2.217  -5.061  0.00  0.00    +0.114 C 
ATOM      3  C   UNL     1       6.654  -2.997  -5.420  0.00  0.00    +0.050 C 
ATOM      4  C   UNL     1       6.909  -3.956  -4.284  0.00  0.00    -0.035 C 
ATOM      5  C   UNL     1       7.992  -4.177  -3.548  0.00  0.00    -0.001 A 
ATOM      6  C   UNL     1       9.363  -3.652  -3.640  0.00  0.00    +0.010 A 
ATOM      7  C   UNL     1      10.236  -4.083  -2.692  0.00  0.00    +0.001 A 
ATOM      8  C   UNL     1       9.885  -4.975  -1.673  0.00  0.00    +0.002 A 
ATOM      9  C   UNL     1       8.650  -5.514  -1.517  0.00  0.00    +0.026 A 
ATOM     10  C   UNL     1       7.648  -5.142  -2.459  0.00  0.00    +0.043 A 
ATOM     11  N   UNL     1       6.407  -5.518  -2.560  0.00  0.00    -0.376 N 
ATOM     12  C   UNL     1       5.831  -4.893  -3.752  0.00  0.00    +0.130 C 
ATOM     13  C   UNL     1       4.619  -4.013  -3.411  0.00  0.00    +0.139 C 
ATOM     14  H   UNL     1       5.942  -6.112  -1.950  0.00  0.00    +0.160 HD
ENDROOT
BRANCH  13  15
ATOM     15  C   UNL     1       3.417  -4.879  -3.135  0.00  0.00    +0.012 A 
ATOM     16  C   UNL     1       3.287  -6.101  -3.767  0.00  0.00    +0.046 A 
ATOM     17  C   UNL     1       2.183  -6.898  -3.513  0.00  0.00    +0.124 A 
ATOM     18  C   UNL     1       1.210  -6.470  -2.626  0.00  0.00    +0.041 A 
ATOM     19  C   UNL     1       1.340  -5.248  -1.994  0.00  0.00    +0.041 A 
ATOM     20  C   UNL     1       2.446  -4.454  -2.244  0.00  0.00    +0.128 A 
ATOM     21  F   UNL     1       2.576  -3.261  -1.623  0.00  0.00    -0.205 F 
ATOM     22  F   UNL     1       2.056  -8.092  -4.131  0.00  0.00    -0.205 F 
ENDBRANCH  13  15
BRANCH   1  23
ATOM     23  S   UNL     1       2.888  -3.232  -5.338  0.00  0.00    +0.061 S 
ATOM     24  O   UNL     1       2.618  -1.929  -5.838  0.00  0.00    -0.153 OA
ATOM     25  O   UNL     1       2.005  -3.906  -4.451  0.00  0.00    -0.153 OA
BRANCH  23  29
ATOM     26  C   UNL     1       3.402  -5.921  -8.945  0.00  0.00    +0.120 A 
ATOM     27  C   UNL     1       3.027  -6.461  -7.723  0.00  0.00    +0.047 A 
ATOM     28  C   UNL     1       2.872  -5.639  -6.624  0.00  0.00    +0.032 A 
ATOM     29  C   UNL     1       3.088  -4.278  -6.741  0.00  0.00    +0.106 A 
ATOM     30  C   UNL     1       3.460  -3.737  -7.958  0.00  0.00    +0.032 A 
ATOM     31  C   UNL     1       3.623  -4.556  -9.059  0.00  0.00    +0.047 A 
BRANCH  26  33
ATOM     32  C   UNL     1       3.311  -8.123  -9.837  0.00  0.00    +0.277 C 
ATOM     33  O   UNL     1       3.556  -6.728 -10.028  0.00  0.00    -0.495 OA
ENDBRANCH  26  33
ENDBRANCH  23  29
ENDBRANCH   1  23
TORSDOF 4
