REMARK  Name = ZINC23231657
REMARK  8 active torsions:
REMARK  status: ('A' for Active; 'I' for Inactive)
REMARK    1  A    between atoms: C_1  and  C_2
REMARK    2  A    between atoms: C_5  and  C_8
REMARK    3  A    between atoms: C_8  and  N_9
REMARK    4  A    between atoms: C_11  and  C_16
REMARK    5  A    between atoms: C_19  and  C_23
REMARK    6  A    between atoms: C_20  and  C_22
REMARK    7  A    between atoms: C_26  and  O_29
REMARK    8  A    between atoms: O_29  and  C_30
REMARK                            x       y       z     vdW  Elec       q    Type
REMARK                         _______ _______ _______ _____ _____    ______ ____
ROOT
ATOM      1  C   UNL     1       4.668  -5.509  -1.565  0.00  0.00    +0.090 A 
ATOM      2  N   UNL     1       5.630  -6.376  -1.952  0.00  0.00    -0.343 N 
ATOM      3  H   UNL     1       5.643  -7.332  -1.789  0.00  0.00    +0.167 HD
ATOM      4  C   UNL     1       6.587  -5.647  -2.621  0.00  0.00    +0.067 A 
ATOM      5  C   UNL     1       6.163  -4.354  -2.613  0.00  0.00    +0.038 A 
ATOM      6  N   UNL     1       4.992  -4.309  -1.967  0.00  0.00    -0.347 N 
ATOM      7  C   UNL     1       6.883  -3.181  -3.227  0.00  0.00    +0.065 C 
ATOM      8  H   UNL     1       4.465  -3.508  -1.819  0.00  0.00    +0.167 HD
ENDROOT
BRANCH   1  11
ATOM      9  N   UNL     1       1.447  -4.746  -0.032  0.00  0.00    -0.296 N 
ATOM     10  C   UNL     1       2.226  -5.000  -1.249  0.00  0.00    +0.119 C 
ATOM     11  C   UNL     1       3.421  -5.869  -0.800  0.00  0.00    +0.079 C 
ATOM     12  C   UNL     1       3.554  -5.477   0.690  0.00  0.00    +0.108 C 
ATOM     13  C   UNL     1       2.171  -4.995   1.073  0.00  0.00    +0.217 C 
ATOM     14  O   UNL     1       1.774  -4.856   2.210  0.00  0.00    -0.276 OA
BRANCH   9  15
ATOM     15  C   UNL     1       0.059  -4.275  -0.021  0.00  0.00    +0.142 C 
BRANCH  15  20
ATOM     16  C   UNL     1      -0.018   1.503   0.010  0.00  0.00    +0.044 C 
ATOM     17  C   UNL     1       0.002  -0.004   0.002  0.00  0.00    -0.050 A 
ATOM     18  C   UNL     1       0.006  -0.689  -1.199  0.00  0.00    +0.003 A 
ATOM     19  C   UNL     1       0.025  -2.071  -1.206  0.00  0.00    +0.005 A 
ATOM     20  C   UNL     1       0.040  -2.768  -0.013  0.00  0.00    -0.030 A 
ATOM     21  C   UNL     1       0.037  -2.084   1.188  0.00  0.00    +0.005 A 
ATOM     22  C   UNL     1       0.023  -0.702   1.195  0.00  0.00    +0.003 A 
ENDBRANCH  15  20
ENDBRANCH   9  15
ENDBRANCH   1  11
BRANCH   4  23
ATOM     23  C   UNL     1       7.831  -6.167  -3.229  0.00  0.00    +0.000 A 
ATOM     24  C   UNL     1       9.039  -5.496  -3.032  0.00  0.00    +0.013 A 
ATOM     25  C   UNL     1      10.197  -5.984  -3.599  0.00  0.00    +0.046 A 
ATOM     26  C   UNL     1      10.162  -7.141  -4.366  0.00  0.00    +0.120 A 
ATOM     27  C   UNL     1       8.963  -7.811  -4.565  0.00  0.00    +0.046 A 
ATOM     28  C   UNL     1       7.801  -7.332  -3.996  0.00  0.00    +0.013 A 
BRANCH  26  29
ATOM     29  O   UNL     1      11.306  -7.619  -4.924  0.00  0.00    -0.495 OA
ATOM     30  C   UNL     1      11.199  -8.813  -5.701  0.00  0.00    +0.277 C 
ENDBRANCH  26  29
ENDBRANCH   4  23
TORSDOF 5
