REMARK  Name = ZINC12919168
REMARK  7 active torsions:
REMARK  status: ('A' for Active; 'I' for Inactive)
REMARK    1  A    between atoms: C_1  and  C_2
REMARK    2  A    between atoms: C_2  and  C_3
REMARK    3  A    between atoms: C_2  and  N_4
REMARK    4  A    between atoms: C_8  and  C_11
REMARK    5  A    between atoms: N_13  and  N_14
REMARK    6  A    between atoms: C_15  and  C_17
REMARK    7  A    between atoms: C_20  and  C_22
REMARK                            x       y       z     vdW  Elec       q    Type
REMARK                         _______ _______ _______ _____ _____    ______ ____
ROOT
ATOM      1  C   UNL     1      -3.732   1.961   0.050  0.00  0.00    +0.262 C 
ATOM      2  O   UNL     1      -3.812   3.174   0.057  0.00  0.00    -0.269 OA
ATOM      3  N   UNL     1      -4.852   1.211   0.058  0.00  0.00    -0.230 N 
ATOM      4  H   UNL     1      -4.788   0.243   0.052  0.00  0.00    +0.173 HD
ENDROOT
BRANCH   1   9
ATOM      5  N   UNL     1       1.317  -0.375  -0.013  0.00  0.00    -0.244 N 
ATOM      6  C   UNL     1       0.002  -0.004   0.002  0.00  0.00    +0.158 A 
ATOM      7  C   UNL     1      -0.017   1.407   0.010  0.00  0.00    +0.039 A 
ATOM      8  C   UNL     1      -1.242   2.076   0.030  0.00  0.00    +0.027 A 
ATOM      9  C   UNL     1      -2.407   1.309   0.033  0.00  0.00    +0.057 A 
ATOM     10  C   UNL     1      -2.304  -0.089   0.024  0.00  0.00    +0.126 A 
ATOM     11  N   UNL     1      -1.137  -0.688   0.010  0.00  0.00    -0.235 NA
ATOM     12  C   UNL     1       1.377   1.839  -0.001  0.00  0.00    +0.144 A 
ATOM     13  N   UNL     1       2.120   0.769  -0.014  0.00  0.00    -0.177 NA
BRANCH   5  15
ATOM     14  C   UNL     1       2.647  -1.987  -1.283  0.00  0.00    +0.032 C 
ATOM     15  C   UNL     1       1.808  -1.755  -0.024  0.00  0.00    +0.103 C 
ATOM     16  C   UNL     1       2.671  -2.000   1.216  0.00  0.00    +0.032 C 
ENDBRANCH   5  15
ENDBRANCH   1   9
BRANCH   3  17
ATOM     17  N   UNL     1      -6.109   1.830   0.074  0.00  0.00    -0.230 N 
ATOM     18  C   UNL     1      -7.229   1.080   0.081  0.00  0.00    +0.267 C 
ATOM     19  O   UNL     1      -7.149  -0.134   0.074  0.00  0.00    -0.268 OA
ATOM     20  H   UNL     1      -6.173   2.798   0.080  0.00  0.00    +0.173 HD
BRANCH  18  21
ATOM     21  C   UNL     1      -8.543   1.727   0.098  0.00  0.00    +0.076 A 
ATOM     22  C   UNL     1      -9.802   1.144   0.102  0.00  0.00    +0.021 A 
ATOM     23  C   UNL     1     -10.901   1.955   0.122  0.00  0.00    +0.017 A 
ATOM     24  C   UNL     1     -10.716   3.329   0.128  0.00  0.00    +0.020 A 
ATOM     25  S   UNL     1      -8.936   3.468   0.111  0.00  0.00    -0.084 S 
BRANCH  24  26
ATOM     26  C   UNL     1     -11.731   4.402   0.144  0.00  0.00    -0.011 A 
ATOM     27  C   UNL     1     -13.090   4.081   0.150  0.00  0.00    +0.012 A 
ATOM     28  C   UNL     1     -14.033   5.087   0.170  0.00  0.00    +0.039 A 
ATOM     29  C   UNL     1     -13.634   6.414   0.173  0.00  0.00    +0.123 A 
ATOM     30  C   UNL     1     -12.287   6.739   0.161  0.00  0.00    +0.039 A 
ATOM     31  C   UNL     1     -11.335   5.741   0.146  0.00  0.00    +0.012 A 
ATOM     32  F   UNL     1     -14.563   7.396   0.187  0.00  0.00    -0.205 F 
ENDBRANCH  24  26
ENDBRANCH  18  21
ENDBRANCH   3  17
TORSDOF 5
