REMARK  Name = ZINC52860709
REMARK  6 active torsions:
REMARK  status: ('A' for Active; 'I' for Inactive)
REMARK    1  A    between atoms: C_1  and  C_2
REMARK    2  A    between atoms: N_5  and  C_11
REMARK    3  A    between atoms: C_7  and  C_9
REMARK    4  A    between atoms: C_7  and  C_10
REMARK    5  A    between atoms: C_16  and  C_17
REMARK    6  A    between atoms: N_18  and  O_19
REMARK                            x       y       z     vdW  Elec       q    Type
REMARK                         _______ _______ _______ _____ _____    ______ ____
ROOT
ATOM      1  C   UNL     1       0.411  -2.778  -2.067  0.00  0.00    +0.041 A 
ATOM      2  C   UNL     1      -0.851  -3.356  -2.025  0.00  0.00    +0.025 A 
ATOM      3  C   UNL     1      -1.262  -4.197  -3.040  0.00  0.00    +0.022 A 
ATOM      4  C   UNL     1      -0.420  -4.469  -4.107  0.00  0.00    +0.042 A 
ATOM      5  C   UNL     1       0.836  -3.903  -4.165  0.00  0.00    +0.033 A 
ATOM      6  C   UNL     1       1.262  -3.048  -3.148  0.00  0.00    +0.040 A 
ATOM      7 CL   UNL     1      -0.950  -5.529  -5.377  0.00  0.00    -0.084 Cl
ENDROOT
BRANCH   1  11
ATOM      8  C   UNL     1      -0.027   1.568   0.116  0.00  0.00    +0.039 C 
ATOM      9  C   UNL     1      -0.020   0.038   0.117  0.00  0.00    +0.133 C 
ATOM     10  C   UNL     1       0.665  -0.472  -1.156  0.00  0.00    +0.136 C 
ATOM     11  N   UNL     1       0.827  -1.930  -1.044  0.00  0.00    -0.324 N 
ATOM     12  C   UNL     1       1.440  -2.466   0.182  0.00  0.00    +0.139 C 
ATOM     13  C   UNL     1       0.717  -1.859   1.389  0.00  0.00    +0.080 C 
ATOM     14  O   UNL     1       0.696  -0.435   1.260  0.00  0.00    -0.368 OA
ATOM     15  C   UNL     1      -0.718  -2.388   1.445  0.00  0.00    +0.043 C 
ATOM     16  C   UNL     1       1.454  -2.245   2.673  0.00  0.00    +0.043 C 
ENDBRANCH   1  11
BRANCH   6  17
ATOM     17  C   UNL     1       2.605  -2.433  -3.207  0.00  0.00    +0.164 C 
ATOM     18  N   UNL     1       3.041  -1.725  -2.205  0.00  0.00    -0.071 NA
ATOM     19  N   UNL     1       3.399  -2.611  -4.327  0.00  0.00    -0.340 N 
ATOM     20  H   UNL     1       3.074  -3.139  -5.073  0.00  0.00    +0.144 HD
ATOM     21  H   UNL     1       4.281  -2.208  -4.366  0.00  0.00    +0.144 HD
BRANCH  18  22
ATOM     22  O   UNL     1       4.366  -1.226  -2.215  0.00  0.00    -0.408 OA
ATOM     23  H   UNL     1       4.624  -0.778  -1.398  0.00  0.00    +0.328 HD
ENDBRANCH  18  22
ENDBRANCH   6  17
TORSDOF 3
