REMARK  Name = ZINC39231687
REMARK  3 active torsions:
REMARK  status: ('A' for Active; 'I' for Inactive)
REMARK    1  A    between atoms: C_4  and  O_18
REMARK    2  A    between atoms: C_5  and  C_7
REMARK    3  A    between atoms: C_10  and  C_14
REMARK                            x       y       z     vdW  Elec       q    Type
REMARK                         _______ _______ _______ _____ _____    ______ ____
ROOT
ATOM      1  C   UNL     1       1.253  -2.154  -0.022  0.00  0.00    +0.098 C 
ATOM      2  N   UNL     1       2.309  -2.921  -0.031  0.00  0.00    -0.151 NA
ATOM      3  N   UNL     1       1.977  -4.272  -0.037  0.00  0.00    -0.147 NA
ATOM      4  C   UNL     1       0.698  -4.467  -0.033  0.00  0.00    +0.167 C 
ATOM      5  C   UNL     1       0.062  -3.091  -0.015  0.00  0.00    +0.186 C 
ATOM      6 CL   UNL     1      -0.921  -2.861   1.479  0.00  0.00    -0.108 Cl
ENDROOT
BRANCH   1  11
ATOM      7  C   UNL     1      -0.017   1.374   0.010  0.00  0.00    +0.001 A 
ATOM      8  C   UNL     1       1.170   2.089   0.002  0.00  0.00    +0.004 A 
ATOM      9  C   UNL     1       2.384   1.430  -0.013  0.00  0.00    +0.046 A 
ATOM     10  C   UNL     1       2.424   0.045  -0.021  0.00  0.00    +0.126 A 
ATOM     11  C   UNL     1       1.224  -0.684  -0.013  0.00  0.00    +0.041 A 
ATOM     12  C   UNL     1       0.002  -0.004   0.002  0.00  0.00    +0.013 A 
BRANCH  10  13
ATOM     13  O   UNL     1       3.616  -0.603  -0.036  0.00  0.00    -0.506 OA
ATOM     14  H   UNL     1       3.970  -0.795   0.843  0.00  0.00    +0.292 HD
ENDBRANCH  10  13
ENDBRANCH   1  11
BRANCH   4  15
ATOM     15  C   UNL     1      -0.015  -5.795  -0.038  0.00  0.00    +0.434 C 
ATOM     16  F   UNL     1       0.926  -6.830  -0.048  0.00  0.00    -0.165 F 
ATOM     17  F   UNL     1      -0.812  -5.900   1.107  0.00  0.00    -0.165 F 
ATOM     18  F   UNL     1      -0.821  -5.886  -1.178  0.00  0.00    -0.165 F 
ENDBRANCH   4  15
TORSDOF 3
