REMARK  Name = ZINC37523798
REMARK  6 active torsions:
REMARK  status: ('A' for Active; 'I' for Inactive)
REMARK    1  A    between atoms: C_1  and  C_2
REMARK    2  A    between atoms: N_6  and  C_17
REMARK    3  A    between atoms: N_12  and  C_13
REMARK    4  A    between atoms: C_13  and  C_14
REMARK    5  A    between atoms: C_13  and  C_15
REMARK    6  A    between atoms: C_13  and  C_16
REMARK                            x       y       z     vdW  Elec       q    Type
REMARK                         _______ _______ _______ _____ _____    ______ ____
ROOT
ATOM      1  C   UNL     1       0.050   1.636   0.056  0.00  0.00    +0.038 C 
ATOM      2  C   UNL     1       0.041   0.109  -0.028  0.00  0.00    +0.161 C 
ATOM      3  C   UNL     1      -1.377  -0.391   0.040  0.00  0.00    +0.240 C 
ATOM      4  O   UNL     1      -2.211   0.139  -0.664  0.00  0.00    -0.273 OA
ATOM      5  N   UNL     1      -1.759  -1.390   0.837  0.00  0.00    -0.268 N 
ATOM      6  C   UNL     1      -0.892  -2.057   1.799  0.00  0.00    +0.132 C 
ATOM      7  C   UNL     1       0.579  -1.872   1.423  0.00  0.00    +0.129 C 
ATOM      8  N   UNL     1       0.799  -0.451   1.101  0.00  0.00    -0.273 N 
ATOM      9  C   UNL     1       1.657   0.306   1.813  0.00  0.00    +0.303 C 
ATOM     10  O   UNL     1       1.750   1.497   1.586  0.00  0.00    -0.253 OA
ATOM     11  N   UNL     1       2.413  -0.257   2.776  0.00  0.00    -0.294 N 
ATOM     12  H   UNL     1       2.285  -1.190   3.010  0.00  0.00    +0.151 HD
ENDROOT
BRANCH   5  13
ATOM     13  C   UNL     1      -3.085  -1.826   0.744  0.00  0.00    +0.036 A 
ATOM     14  C   UNL     1      -3.530  -2.459  -0.410  0.00  0.00    +0.025 A 
ATOM     15  C   UNL     1      -4.839  -2.889  -0.500  0.00  0.00    +0.022 A 
ATOM     16  C   UNL     1      -5.708  -2.690   0.558  0.00  0.00    +0.041 A 
ATOM     17  C   UNL     1      -5.268  -2.060   1.709  0.00  0.00    +0.022 A 
ATOM     18  C   UNL     1      -3.958  -1.633   1.806  0.00  0.00    +0.025 A 
ATOM     19 CL   UNL     1      -7.353  -3.231   0.442  0.00  0.00    -0.084 Cl
ENDBRANCH   5  13
BRANCH  11  20
ATOM     20  C   UNL     1       3.427   0.539   3.472  0.00  0.00    +0.028 C 
ATOM     21  C   UNL     1       2.755   1.721   4.173  0.00  0.00    +0.031 C 
ATOM     22  C   UNL     1       4.137  -0.332   4.509  0.00  0.00    +0.031 C 
ATOM     23  C   UNL     1       4.448   1.061   2.459  0.00  0.00    +0.031 C 
ENDBRANCH  11  20
TORSDOF 2
