REMARK  Name = ZINC06808076
REMARK  6 active torsions:
REMARK  status: ('A' for Active; 'I' for Inactive)
REMARK    1  A    between atoms: C_1  and  C_2
REMARK    2  A    between atoms: C_2  and  C_3
REMARK    3  A    between atoms: C_3  and  C_28
REMARK    4  A    between atoms: C_13  and  C_26
REMARK    5  A    between atoms: C_14  and  C_16
REMARK    6  A    between atoms: N_18  and  C_19
REMARK                            x       y       z     vdW  Elec       q    Type
REMARK                         _______ _______ _______ _____ _____    ______ ____
ROOT
ATOM      1  C   UNL     1      -1.102   2.183  -1.325  0.00  0.00    +0.115 C 
ATOM      2  C   UNL     1      -0.267   1.532  -0.211  0.00  0.00    +0.127 C 
ATOM      3  C   UNL     1      -0.919   1.898   1.110  0.00  0.00    +0.171 C 
ATOM      4  O   UNL     1      -1.015   1.097   2.017  0.00  0.00    -0.292 OA
ATOM      5  C   UNL     1      -1.431   3.270   1.233  0.00  0.00    +0.070 A 
ATOM      6  C   UNL     1      -1.524   4.069   0.087  0.00  0.00    +0.133 A 
ATOM      7  C   UNL     1      -2.018   5.367   0.197  0.00  0.00    +0.050 A 
ATOM      8  C   UNL     1      -2.411   5.872   1.416  0.00  0.00    +0.050 A 
ATOM      9  C   UNL     1      -2.323   5.097   2.570  0.00  0.00    +0.137 A 
ATOM     10  C   UNL     1      -1.830   3.785   2.485  0.00  0.00    +0.038 A 
ATOM     11  C   UNL     1      -1.860   3.261   3.799  0.00  0.00    +0.008 A 
ATOM     12  C   UNL     1      -2.353   4.239   4.604  0.00  0.00    +0.194 A 
ATOM     13  O   UNL     1      -2.627   5.333   3.862  0.00  0.00    -0.450 OA
ATOM     14  C   UNL     1      -1.428   1.882   4.225  0.00  0.00    +0.048 C 
ATOM     15  O   UNL     1      -1.140   3.595  -1.121  0.00  0.00    -0.485 OA
ATOM     16  C   UNL     1      -2.525   1.622  -1.290  0.00  0.00    +0.056 C 
ENDROOT
BRANCH  12  17
ATOM     17  C   UNL     1      -2.555   4.124   6.056  0.00  0.00    +0.284 C 
ATOM     18  O   UNL     1      -2.274   3.088   6.629  0.00  0.00    -0.266 OA
ATOM     19  N   UNL     1      -3.052   5.166   6.752  0.00  0.00    -0.279 N 
ATOM     20  H   UNL     1      -3.225   6.009   6.305  0.00  0.00    +0.155 HD
BRANCH  19  21
ATOM     21  C   UNL     1      -3.319   5.030   8.119  0.00  0.00    +0.034 A 
ATOM     22  C   UNL     1      -4.404   5.688   8.684  0.00  0.00    +0.026 A 
ATOM     23  C   UNL     1      -4.669   5.549  10.032  0.00  0.00    +0.040 A 
ATOM     24  C   UNL     1      -3.847   4.763  10.823  0.00  0.00    +0.124 A 
ATOM     25  C   UNL     1      -2.762   4.111  10.262  0.00  0.00    +0.040 A 
ATOM     26  C   UNL     1      -2.497   4.243   8.913  0.00  0.00    +0.026 A 
ATOM     27  F   UNL     1      -4.105   4.633  12.142  0.00  0.00    -0.205 F 
ENDBRANCH  19  21
ENDBRANCH  12  17
BRANCH   1  29
ATOM     28  C   UNL     1      -1.299   2.527  -3.791  0.00  0.00    +0.008 C 
ATOM     29  C   UNL     1      -0.467   1.879  -2.683  0.00  0.00    +0.045 C 
ENDBRANCH   1  29
TORSDOF 3
