REMARK  Name = ZINC39273195
REMARK  7 active torsions:
REMARK  status: ('A' for Active; 'I' for Inactive)
REMARK    1  A    between atoms: C_1  and  C_2
REMARK    2  A    between atoms: C_4  and  C_16
REMARK    3  A    between atoms: C_6  and  C_14
REMARK    4  A    between atoms: C_7  and  N_13
REMARK    5  A    between atoms: C_19  and  C_21
REMARK    6  A    between atoms: C_21  and  O_22
REMARK    7  A    between atoms: O_22  and  C_23
REMARK                            x       y       z     vdW  Elec       q    Type
REMARK                         _______ _______ _______ _____ _____    ______ ____
ROOT
ATOM      1  C   UNL     1      -0.018   1.503   0.010  0.00  0.00    +0.067 C 
ATOM      2  C   UNL     1       0.002  -0.004   0.002  0.00  0.00    +0.066 C 
ATOM      3  C   UNL     1      -1.064  -0.768   0.003  0.00  0.00    +0.033 C 
ATOM      4  C   UNL     1      -2.536  -0.493   0.145  0.00  0.00    +0.133 C 
ATOM      5  C   UNL     1      -3.065  -1.577   1.066  0.00  0.00    +0.100 C 
ATOM      6  C   UNL     1      -2.303  -2.628   1.436  0.00  0.00    +0.195 C 
ATOM      7  O   UNL     1      -1.023  -2.853   1.091  0.00  0.00    -0.448 OA
ATOM      8  C   UNL     1      -0.529  -2.198  -0.081  0.00  0.00    +0.343 C 
ATOM      9  N   UNL     1       0.921  -1.985  -0.028  0.00  0.00    -0.138 NA
ATOM     10  N   UNL     1       1.127  -0.765  -0.013  0.00  0.00    -0.155 NA
ENDROOT
BRANCH   4  11
ATOM     11  C   UNL     1      -3.212  -0.572  -1.199  0.00  0.00    +0.118 A 
ATOM     12  C   UNL     1      -3.881   0.428  -1.803  0.00  0.00    +0.046 A 
ATOM     13  C   UNL     1      -4.349  -0.080  -3.037  0.00  0.00    +0.048 A 
ATOM     14  C   UNL     1      -3.938  -1.358  -3.113  0.00  0.00    +0.142 A 
ATOM     15  O   UNL     1      -3.246  -1.649  -2.000  0.00  0.00    -0.460 OA
BRANCH  14  16
ATOM     16  C   UNL     1      -4.206  -2.303  -4.257  0.00  0.00    +0.303 C 
BRANCH  16  17
ATOM     17  O   UNL     1      -3.151  -2.200  -5.216  0.00  0.00    -0.483 OA
BRANCH  17  18
ATOM     18  C   UNL     1      -3.240  -2.991  -6.318  0.00  0.00    +0.140 A 
ATOM     19  C   UNL     1      -4.322  -3.845  -6.475  0.00  0.00    +0.050 A 
ATOM     20  C   UNL     1      -4.411  -4.648  -7.595  0.00  0.00    +0.042 A 
ATOM     21  C   UNL     1      -3.421  -4.603  -8.562  0.00  0.00    +0.125 A 
ATOM     22  C   UNL     1      -2.340  -3.752  -8.407  0.00  0.00    +0.062 A 
ATOM     23  C   UNL     1      -2.250  -2.942  -7.290  0.00  0.00    +0.085 A 
ATOM     24 CL   UNL     1      -0.898  -1.871  -7.099  0.00  0.00    -0.080 Cl
ATOM     25  F   UNL     1      -3.509  -5.389  -9.656  0.00  0.00    -0.205 F 
ENDBRANCH  17  18
ENDBRANCH  16  17
ENDBRANCH  14  16
ENDBRANCH   4  11
BRANCH   6  26
ATOM     26  N   UNL     1      -2.896  -3.562   2.247  0.00  0.00    -0.329 N 
ATOM     27  H   UNL     1      -3.818  -3.448   2.526  0.00  0.00    +0.145 HD
ATOM     28  H   UNL     1      -2.393  -4.337   2.542  0.00  0.00    +0.145 HD
ENDBRANCH   6  26
BRANCH   5  29
ATOM     29  C   UNL     1      -4.407  -1.482   1.556  0.00  0.00    +0.101 C 
ATOM     30  N   UNL     1      -5.472  -1.407   1.944  0.00  0.00    -0.191 NA
ENDBRANCH   5  29
TORSDOF 6
