REMARK  Name = ZINC40010636
REMARK  8 active torsions:
REMARK  status: ('A' for Active; 'I' for Inactive)
REMARK    1  A    between atoms: C_1  and  O_2
REMARK    2  A    between atoms: O_2  and  C_3
REMARK    3  A    between atoms: C_10  and  C_15
REMARK    4  A    between atoms: C_19  and  O_33
REMARK    5  A    between atoms: C_20  and  O_31
REMARK    6  A    between atoms: C_26  and  C_28
REMARK    7  A    between atoms: O_31  and  C_32
REMARK    8  A    between atoms: O_33  and  C_34
REMARK                            x       y       z     vdW  Elec       q    Type
REMARK                         _______ _______ _______ _____ _____    ______ ____
ROOT
ATOM      1  C   UNL     1       3.207  -5.421  -3.091  0.00  0.00    +0.122 C 
ATOM      2  C   UNL     1       2.681  -6.413  -2.083  0.00  0.00    -0.019 A 
ATOM      3  C   UNL     1       2.315  -5.931  -0.834  0.00  0.00    +0.055 A 
ATOM      4  C   UNL     1       1.816  -6.787   0.131  0.00  0.00    +0.162 A 
ATOM      5  C   UNL     1       1.681  -8.142  -0.157  0.00  0.00    +0.162 A 
ATOM      6  C   UNL     1       2.051  -8.618  -1.401  0.00  0.00    +0.053 A 
ATOM      7  C   UNL     1       2.558  -7.755  -2.366  0.00  0.00    -0.037 A 
ATOM      8  C   UNL     1       2.965  -8.352  -3.688  0.00  0.00    +0.054 C 
ATOM      9  C   UNL     1       3.034  -7.278  -4.772  0.00  0.00    +0.113 C 
ATOM     10  N   UNL     1       3.790  -6.138  -4.231  0.00  0.00    -0.293 N 
ATOM     11  C   UNL     1       4.971  -5.766  -4.762  0.00  0.00    +0.219 C 
ATOM     12  O   UNL     1       5.575  -4.822  -4.298  0.00  0.00    -0.275 OA
ENDROOT
BRANCH   1  20
ATOM     13  C   UNL     1       0.606  -0.607  -1.056  0.00  0.00    +0.121 A 
ATOM     14  C   UNL     1       1.173   0.181  -2.064  0.00  0.00    +0.047 A 
ATOM     15  C   UNL     1       1.792  -0.352  -3.148  0.00  0.00    +0.027 A 
ATOM     16  C   UNL     1       1.888  -1.747  -3.304  0.00  0.00    +0.041 A 
ATOM     17  N   UNL     1       2.498  -2.257  -4.374  0.00  0.00    -0.284 N 
ATOM     18  C   UNL     1       2.624  -3.556  -4.584  0.00  0.00    +0.226 C 
ATOM     19  O   UNL     1       3.192  -3.962  -5.580  0.00  0.00    -0.275 OA
ATOM     20  C   UNL     1       2.059  -4.536  -3.580  0.00  0.00    +0.123 C 
ATOM     21  C   UNL     1       1.364  -3.962  -2.361  0.00  0.00    -0.002 C 
ATOM     22  C   UNL     1       1.300  -2.604  -2.260  0.00  0.00    -0.003 A 
ATOM     23  C   UNL     1       0.652  -1.967  -1.112  0.00  0.00    +0.055 A 
ATOM     24  H   UNL     1       2.867  -1.645  -5.031  0.00  0.00    +0.155 HD
BRANCH  13  26
ATOM     25  C   UNL     1      -0.017   1.425   0.010  0.00  0.00    +0.277 C 
ATOM     26  O   UNL     1       0.002  -0.004   0.002  0.00  0.00    -0.495 OA
ENDBRANCH  13  26
ENDBRANCH   1  20
BRANCH  11  27
ATOM     27  C   UNL     1       5.543  -6.523  -5.933  0.00  0.00    +0.075 C 
ATOM     28  C   UNL     1       6.805  -7.353  -5.689  0.00  0.00    +0.013 C 
ATOM     29  C   UNL     1       6.888  -6.052  -6.490  0.00  0.00    +0.013 C 
ENDBRANCH  11  27
BRANCH   5  30
ATOM     30  O   UNL     1       1.187  -8.994   0.781  0.00  0.00    -0.491 OA
ATOM     31  C   UNL     1       1.077 -10.371   0.413  0.00  0.00    +0.277 C 
ENDBRANCH   5  30
BRANCH   4  32
ATOM     32  O   UNL     1       1.461  -6.308   1.353  0.00  0.00    -0.491 OA
ATOM     33  C   UNL     1       1.629  -4.907   1.575  0.00  0.00    +0.277 C 
ENDBRANCH   4  32
TORSDOF 5
