REMARK  Name = ZINC35531740
REMARK  9 active torsions:
REMARK  status: ('A' for Active; 'I' for Inactive)
REMARK    1  A    between atoms: C_1  and  C_2
REMARK    2  A    between atoms: C_9  and  C_11
REMARK    3  A    between atoms: C_11  and  S_12
REMARK    4  A    between atoms: S_12  and  C_13
REMARK    5  A    between atoms: N_25  and  C_26
REMARK    6  A    between atoms: C_26  and  C_27
REMARK    7  A    between atoms: C_27  and  C_28
REMARK    8  A    between atoms: C_28  and  C_29
REMARK    9  A    between atoms: C_28  and  C_30
REMARK                            x       y       z     vdW  Elec       q    Type
REMARK                         _______ _______ _______ _____ _____    ______ ____
ROOT
ATOM      1  C   UNL     1       0.154  -6.758   3.284  0.00  0.00    +0.198 A 
ATOM      2  N   UNL     1       0.685  -7.306   2.217  0.00  0.00    -0.120 NA
ATOM      3  N   UNL     1       0.680  -8.696   2.396  0.00  0.00    -0.109 NA
ATOM      4  C   UNL     1       0.143  -8.954   3.567  0.00  0.00    +0.240 A 
ATOM      5  N   UNL     1      -0.189  -7.762   4.146  0.00  0.00    -0.255 N 
ATOM      6  C   UNL     1      -0.783  -7.722   5.420  0.00  0.00    +0.071 A 
ATOM      7  C   UNL     1      -1.195  -6.625   6.172  0.00  0.00    +0.035 A 
ATOM      8  C   UNL     1      -1.749  -6.818   7.388  0.00  0.00    +0.048 A 
ATOM      9  S   UNL     1      -1.747  -8.486   7.589  0.00  0.00    -0.090 S 
ATOM     10  C   UNL     1      -1.004  -8.948   6.047  0.00  0.00    +0.101 A 
ATOM     11  C   UNL     1      -0.654 -10.163   5.443  0.00  0.00    +0.270 A 
ATOM     12  O   UNL     1      -0.861 -11.216   6.018  0.00  0.00    -0.266 OA
ATOM     13  N   UNL     1      -0.092 -10.158   4.214  0.00  0.00    -0.276 N 
ENDROOT
BRANCH   1  14
ATOM     14  S   UNL     1      -0.072  -5.033   3.559  0.00  0.00    -0.076 S 
BRANCH  14  15
ATOM     15  C   UNL     1       0.581  -4.259   2.055  0.00  0.00    +0.173 C 
BRANCH  15  23
ATOM     16  C   UNL     1      -0.019   1.526   0.010  0.00  0.00    +0.009 C 
ATOM     17  C   UNL     1       0.002  -0.004   0.002  0.00  0.00    +0.003 C 
ATOM     18  C   UNL     1       0.720  -0.498  -1.256  0.00  0.00    +0.006 C 
ATOM     19  C   UNL     1       0.712  -2.028  -1.282  0.00  0.00    +0.019 C 
ATOM     20  C   UNL     1       1.463  -2.559  -0.057  0.00  0.00    +0.108 C 
ATOM     21  N   UNL     1       0.869  -1.973   1.153  0.00  0.00    -0.301 N 
ATOM     22  C   UNL     1       0.744  -0.512   1.242  0.00  0.00    +0.111 C 
ATOM     23  C   UNL     1       0.447  -2.761   2.161  0.00  0.00    +0.226 C 
ATOM     24  O   UNL     1      -0.042  -2.265   3.154  0.00  0.00    -0.275 OA
ENDBRANCH  15  23
ENDBRANCH  14  15
ENDBRANCH   1  14
BRANCH  13  25
ATOM     25  C   UNL     1       0.280 -11.421   3.572  0.00  0.00    +0.128 C 
BRANCH  25  26
ATOM     26  C   UNL     1       1.714 -11.787   3.961  0.00  0.00    +0.025 C 
BRANCH  26  27
ATOM     27  C   UNL     1       2.103 -13.106   3.291  0.00  0.00    -0.016 C 
ATOM     28  C   UNL     1       2.131 -12.918   1.773  0.00  0.00    +0.007 C 
ATOM     29  C   UNL     1       3.488 -13.536   3.777  0.00  0.00    +0.007 C 
ENDBRANCH  26  27
ENDBRANCH  25  26
ENDBRANCH  13  25
TORSDOF 6
