REMARK  Name = ZINC67428936
REMARK  3 active torsions:
REMARK  status: ('A' for Active; 'I' for Inactive)
REMARK    1  A    between atoms: C_10  and  S_14
REMARK    2  A    between atoms: S_14  and  C_15
REMARK    3  A    between atoms: N_19  and  C_20
REMARK                            x       y       z     vdW  Elec       q    Type
REMARK                         _______ _______ _______ _____ _____    ______ ____
ROOT
ATOM      1  C   UNL     1      -0.017   1.381   0.010  0.00  0.00    +0.000 A 
ATOM      2  C   UNL     1       1.167   2.099   0.002  0.00  0.00    +0.001 A 
ATOM      3  C   UNL     1       2.380   1.440  -0.027  0.00  0.00    +0.011 A 
ATOM      4  C   UNL     1       2.403   0.043  -0.041  0.00  0.00    +0.022 A 
ATOM      5  C   UNL     1       1.207  -0.671  -0.009  0.00  0.00    -0.037 A 
ATOM      6  C   UNL     1       0.002  -0.004   0.002  0.00  0.00    +0.004 A 
ATOM      7  C   UNL     1       1.237  -2.188   0.050  0.00  0.00    +0.036 C 
ATOM      8  C   UNL     1       1.749  -2.732  -1.279  0.00  0.00    +0.006 C 
ATOM      9  C   UNL     1       3.268  -2.823  -1.296  0.00  0.00    +0.023 C 
ATOM     10  C   UNL     1       3.964  -1.487  -1.365  0.00  0.00    +0.125 C 
ATOM     11  C   UNL     1       3.682  -0.685  -0.109  0.00  0.00    +0.177 C 
ATOM     12  O   UNL     1       4.478  -0.645   0.805  0.00  0.00    -0.291 OA
ENDROOT
BRANCH  10  13
ATOM     13  S   UNL     1       5.753  -1.749  -1.516  0.00  0.00    -0.073 S 
BRANCH  13  14
ATOM     14  C   UNL     1       6.404  -0.126  -1.732  0.00  0.00    +0.210 A 
ATOM     15  N   UNL     1       5.716   0.995  -1.764  0.00  0.00    -0.101 NA
ATOM     16  N   UNL     1       6.499   1.998  -1.936  0.00  0.00    -0.022 NA
ATOM     17  N   UNL     1       7.722   1.602  -2.027  0.00  0.00    -0.043 NA
ATOM     18  N   UNL     1       7.708   0.203  -1.892  0.00  0.00    -0.217 N 
BRANCH  18  19
ATOM     19  C   UNL     1       8.857  -0.705  -1.920  0.00  0.00    +0.112 C 
ATOM     20  C   UNL     1       9.872  -0.307  -0.828  0.00  0.00    +0.027 C 
ATOM     21  C   UNL     1      11.253  -0.564  -1.481  0.00  0.00    +0.002 C 
ATOM     22  C   UNL     1      11.026  -0.118  -2.947  0.00  0.00    +0.002 C 
ATOM     23  C   UNL     1       9.591  -0.585  -3.267  0.00  0.00    +0.027 C 
ENDBRANCH  18  19
ENDBRANCH  13  14
ENDBRANCH  10  13
TORSDOF 3
