REMARK  Name = ZINC40347269
REMARK  6 active torsions:
REMARK  status: ('A' for Active; 'I' for Inactive)
REMARK    1  A    between atoms: C_1  and  C_2
REMARK    2  A    between atoms: C_3  and  C_8
REMARK    3  A    between atoms: C_8  and  N_9
REMARK    4  A    between atoms: N_9  and  S_10
REMARK    5  A    between atoms: S_10  and  C_13
REMARK    6  A    between atoms: C_14  and  N_21
REMARK                            x       y       z     vdW  Elec       q    Type
REMARK                         _______ _______ _______ _____ _____    ______ ____
ROOT
ATOM      1  S   UNL     1       2.007   0.275  -5.456  0.00  0.00    +0.062 S 
ATOM      2  O   UNL     1       3.279   0.777  -5.844  0.00  0.00    -0.153 OA
ATOM      3  O   UNL     1       1.381  -0.810  -6.125  0.00  0.00    -0.153 OA
ENDROOT
BRANCH   1   4
ATOM      4  C   UNL     1       0.885   1.631  -5.536  0.00  0.00    +0.140 A 
ATOM      5  C   UNL     1      -0.466   1.403  -5.762  0.00  0.00    +0.053 A 
ATOM      6  C   UNL     1      -1.348   2.474  -5.824  0.00  0.00    +0.040 A 
ATOM      7  C   UNL     1      -0.879   3.764  -5.660  0.00  0.00    +0.021 A 
ATOM      8  C   UNL     1       0.468   3.989  -5.436  0.00  0.00    +0.032 A 
ATOM      9  C   UNL     1       1.348   2.923  -5.368  0.00  0.00    +0.047 A 
ATOM     10 BR   UNL     1       3.186   3.234  -5.052  0.00  0.00    -0.048 Br
ATOM     11 BR   UNL     1      -2.079   5.224  -5.745  0.00  0.00    -0.050 Br
BRANCH   5  12
ATOM     12  N   UNL     1      -0.938   0.099  -5.928  0.00  0.00    -0.356 N 
ATOM     13  H   UNL     1      -0.447  -0.646  -5.546  0.00  0.00    +0.142 HD
ATOM     14  H   UNL     1      -1.755  -0.062  -6.425  0.00  0.00    +0.142 HD
ENDBRANCH   5  12
ENDBRANCH   1   4
BRANCH   1  15
ATOM     15  N   UNL     1       2.136  -0.161  -3.864  0.00  0.00    -0.185 NA
ATOM     16  H   UNL     1       2.982  -0.060  -3.400  0.00  0.00    +0.148 HD
BRANCH  15  17
ATOM     17  C   UNL     1       0.972  -0.698  -3.155  0.00  0.00    +0.144 C 
BRANCH  17  20
ATOM     18  C   UNL     1       1.674   0.800  -0.452  0.00  0.00    +0.068 C 
ATOM     19  C   UNL     1       1.731  -0.689  -0.679  0.00  0.00    +0.064 A 
ATOM     20  C   UNL     1       1.421  -1.349  -1.872  0.00  0.00    +0.008 A 
ATOM     21  C   UNL     1       1.596  -2.676  -1.672  0.00  0.00    +0.110 A 
ATOM     22  N   UNL     1       2.001  -2.849  -0.396  0.00  0.00    -0.284 N 
ATOM     23  H   UNL     1       2.204  -3.698   0.028  0.00  0.00    +0.188 HD
ATOM     24  N   UNL     1       2.084  -1.587   0.205  0.00  0.00    -0.179 NA
ENDBRANCH  17  20
ENDBRANCH  15  17
ENDBRANCH   1  15
TORSDOF 5
