REMARK  Name = ZINC39544106
REMARK  7 active torsions:
REMARK  status: ('A' for Active; 'I' for Inactive)
REMARK    1  A    between atoms: C_1  and  C_2
REMARK    2  A    between atoms: C_4  and  C_31
REMARK    3  A    between atoms: C_5  and  C_14
REMARK    4  A    between atoms: C_7  and  C_8
REMARK    5  A    between atoms: C_8  and  N_9
REMARK    6  A    between atoms: N_23  and  C_24
REMARK    7  A    between atoms: C_24  and  C_25
REMARK                            x       y       z     vdW  Elec       q    Type
REMARK                         _______ _______ _______ _____ _____    ______ ____
ROOT
ATOM      1  C   UNL     1       0.059  -4.275  -0.021  0.00  0.00    +0.205 C 
ATOM      2  N   UNL     1       0.693  -4.791   1.225  0.00  0.00    -0.267 NA
ATOM      3  C   UNL     1       1.285  -6.045   0.741  0.00  0.00    +0.212 C 
ATOM      4  C   UNL     1       1.649  -5.737  -0.711  0.00  0.00    +0.094 C 
ATOM      5  N   UNL     1       0.905  -4.769  -1.121  0.00  0.00    -0.260 NA
ATOM      6  C   UNL     1       2.794  -6.623  -0.933  0.00  0.00    +0.156 C 
ATOM      7  N   UNL     1       3.344  -6.882   0.221  0.00  0.00    -0.189 NA
ATOM      8  N   UNL     1       2.594  -6.369   1.316  0.00  0.00    -0.228 N 
ATOM      9  H   UNL     1       1.406  -4.158   1.556  0.00  0.00    +0.126 HD
ENDROOT
BRANCH   1  14
ATOM     10  C   UNL     1      -0.018   1.503   0.010  0.00  0.00    +0.044 C 
ATOM     11  C   UNL     1       0.002  -0.004   0.002  0.00  0.00    -0.045 A 
ATOM     12  C   UNL     1       0.006  -0.689  -1.199  0.00  0.00    +0.007 A 
ATOM     13  C   UNL     1       0.025  -2.071  -1.207  0.00  0.00    -0.044 A 
ATOM     14  C   UNL     1       0.040  -2.768  -0.013  0.00  0.00    -0.006 A 
ATOM     15  C   UNL     1       0.037  -2.084   1.188  0.00  0.00    +0.013 A 
ATOM     16  C   UNL     1       0.023  -0.702   1.195  0.00  0.00    -0.023 A 
ATOM     17  C   UNL     1       0.027  -2.817  -2.516  0.00  0.00    +0.044 C 
BRANCH  16  18
ATOM     18  C   UNL     1       0.025   0.045   2.504  0.00  0.00    +0.180 C 
BRANCH  18  19
ATOM     19  N   UNL     1      -1.352   0.373   2.882  0.00  0.00    -0.248 N 
ATOM     20  C   UNL     1      -1.964   0.069   4.040  0.00  0.00    +0.219 A 
ATOM     21  N   UNL     1      -3.185   0.536   3.988  0.00  0.00    -0.223 NA
ATOM     22  C   UNL     1      -3.388   1.141   2.819  0.00  0.00    +0.245 A 
ATOM     23  N   UNL     1      -2.293   1.072   2.109  0.00  0.00    -0.158 NA
ENDBRANCH  18  19
ENDBRANCH  16  18
ENDBRANCH   1  14
BRANCH   8  24
ATOM     24  C   UNL     1       3.025  -6.188   2.704  0.00  0.00    +0.163 C 
BRANCH  24  25
ATOM     25  C   UNL     1       2.712  -7.433   3.494  0.00  0.00    -0.026 A 
ATOM     26  C   UNL     1       1.492  -7.578   4.136  0.00  0.00    +0.025 A 
ATOM     27  C   UNL     1       1.240  -8.734   4.851  0.00  0.00    +0.111 A 
ATOM     28  N   UNL     1       2.144  -9.691   4.926  0.00  0.00    -0.263 NA
ATOM     29  C   UNL     1       3.315  -9.587   4.328  0.00  0.00    +0.111 A 
ATOM     30  C   UNL     1       3.635  -8.463   3.591  0.00  0.00    +0.025 A 
ENDBRANCH  24  25
ENDBRANCH   8  24
TORSDOF 5
