REMARK  Name = ZINC13839629
REMARK  7 active torsions:
REMARK  status: ('A' for Active; 'I' for Inactive)
REMARK    1  A    between atoms: C_3  and  C_6
REMARK    2  A    between atoms: C_7  and  C_8
REMARK    3  A    between atoms: N_10  and  C_11
REMARK    4  A    between atoms: C_11  and  N_13
REMARK    5  A    between atoms: N_13  and  C_14
REMARK    6  A    between atoms: C_17  and  N_21
REMARK    7  A    between atoms: C_22  and  C_24
REMARK                            x       y       z     vdW  Elec       q    Type
REMARK                         _______ _______ _______ _____ _____    ______ ____
ROOT
ATOM      1  C   UNL     1       1.145   3.166  -0.259  0.00  0.00    +0.034 A 
ATOM      2  C   UNL     1       1.282   1.791  -0.400  0.00  0.00    +0.025 A 
ATOM      3  C   UNL     1       0.161   0.985  -0.433  0.00  0.00    +0.026 A 
ATOM      4  C   UNL     1      -1.103   1.550  -0.331  0.00  0.00    +0.052 A 
ATOM      5  C   UNL     1      -1.240   2.925  -0.183  0.00  0.00    +0.064 A 
ATOM      6  C   UNL     1      -0.118   3.731  -0.150  0.00  0.00    +0.045 A 
ATOM      7 CL   UNL     1      -2.820   3.631  -0.048  0.00  0.00    -0.082 Cl
ENDROOT
BRANCH   4   8
ATOM      8  N   UNL     1      -2.240   0.733  -0.370  0.00  0.00    -0.278 N 
ATOM      9  C   UNL     1      -2.172  -0.539   0.070  0.00  0.00    +0.284 C 
ATOM     10  O   UNL     1      -1.154  -0.946   0.599  0.00  0.00    -0.266 OA
ATOM     11  H   UNL     1      -3.077   1.083  -0.714  0.00  0.00    +0.155 HD
BRANCH   9  12
ATOM     12  C   UNL     1      -3.324  -1.432  -0.088  0.00  0.00    +0.189 A 
ATOM     13  C   UNL     1      -3.388  -2.736   0.311  0.00  0.00    +0.054 A 
ATOM     14  C   UNL     1      -4.667  -3.202  -0.035  0.00  0.00    +0.042 A 
ATOM     15  C   UNL     1      -5.318  -2.174  -0.623  0.00  0.00    +0.196 A 
ATOM     16  O   UNL     1      -4.508  -1.108  -0.648  0.00  0.00    -0.458 OA
ENDBRANCH   9  12
ENDBRANCH   4   8
BRANCH   1  17
ATOM     17  N   UNL     1       2.283   3.982  -0.224  0.00  0.00    -0.297 N 
ATOM     18  H   UNL     1       2.345   4.700   0.425  0.00  0.00    +0.154 HD
BRANCH  17  19
ATOM     19  C   UNL     1       3.290   3.772  -1.095  0.00  0.00    +0.141 C 
ATOM     20  S   UNL     1       3.228   2.441  -2.170  0.00  0.00    -0.018 S 
BRANCH  19  23
ATOM     21  C   UNL     1       5.353   4.398  -1.989  0.00  0.00    +0.242 C 
ATOM     22  O   UNL     1       5.309   3.451  -2.754  0.00  0.00    -0.270 OA
ATOM     23  N   UNL     1       4.346   4.609  -1.119  0.00  0.00    -0.264 N 
ATOM     24  H   UNL     1       4.381   5.363  -0.510  0.00  0.00    +0.157 HD
BRANCH  21  26
ATOM     25  C   UNL     1       7.476   5.063  -2.891  0.00  0.00    +0.051 C 
ATOM     26  C   UNL     1       6.461   5.276  -2.014  0.00  0.00    +0.071 C 
BRANCH  25  29
ATOM     27  C   UNL     1      10.523   6.920  -3.427  0.00  0.00    +0.042 A 
ATOM     28  C   UNL     1       9.682   5.843  -3.746  0.00  0.00    +0.049 A 
ATOM     29  C   UNL     1       8.585   5.942  -2.916  0.00  0.00    +0.128 A 
ATOM     30  O   UNL     1       8.761   7.024  -2.128  0.00  0.00    -0.464 OA
ATOM     31  C   UNL     1       9.925   7.614  -2.433  0.00  0.00    +0.195 A 
ENDBRANCH  25  29
ENDBRANCH  21  26
ENDBRANCH  19  23
ENDBRANCH  17  19
ENDBRANCH   1  17
TORSDOF 7
