REMARK  Name = ZINC47173183
REMARK  3 active torsions:
REMARK  status: ('A' for Active; 'I' for Inactive)
REMARK    1  A    between atoms: C_6  and  C_7
REMARK    2  A    between atoms: C_8  and  C_9
REMARK    3  A    between atoms: N_11  and  C_12
REMARK                            x       y       z     vdW  Elec       q    Type
REMARK                         _______ _______ _______ _____ _____    ______ ____
ROOT
ATOM      1  C   UNL     1      -2.494  -2.862  -0.051  0.00  0.00    +0.237 C 
ATOM      2  O   UNL     1      -3.557  -2.272  -0.093  0.00  0.00    -0.271 OA
ATOM      3  N   UNL     1      -2.472  -4.209   0.004  0.00  0.00    -0.301 N 
ATOM      4  H   UNL     1      -1.625  -4.679   0.038  0.00  0.00    +0.150 HD
ENDROOT
BRANCH   3   5
ATOM      5  C   UNL     1      -3.729  -4.962   0.013  0.00  0.00    +0.159 C 
ATOM      6  C   UNL     1      -3.466  -6.396   0.476  0.00  0.00    +0.032 C 
ATOM      7  C   UNL     1      -2.111  -6.878  -0.009  0.00  0.00    +0.004 C 
ATOM      8  C   UNL     1      -2.020  -7.035  -1.516  0.00  0.00    +0.019 C 
ATOM      9  C   UNL     1      -2.111  -5.676  -2.212  0.00  0.00    +0.104 C 
ATOM     10  N   UNL     1      -3.531  -5.348  -2.420  0.00  0.00    -0.314 N 
ATOM     11  C   UNL     1      -4.306  -5.003  -1.387  0.00  0.00    +0.233 C 
ATOM     12  O   UNL     1      -5.474  -4.729  -1.567  0.00  0.00    -0.274 OA
ATOM     13  H   UNL     1      -3.907  -5.379  -3.314  0.00  0.00    +0.149 HD
ENDBRANCH   3   5
BRANCH   1  15
ATOM     14  C   UNL     1      -1.260  -0.763  -0.114  0.00  0.00    +0.013 C 
ATOM     15  C   UNL     1      -1.238  -2.110  -0.059  0.00  0.00    +0.068 C 
BRANCH  14  21
ATOM     16  C   UNL     1      -0.016   1.391  -0.180  0.00  0.00    +0.009 A 
ATOM     17  C   UNL     1       1.170   2.094  -0.187  0.00  0.00    +0.022 A 
ATOM     18  C   UNL     1       2.379   1.419  -0.138  0.00  0.00    +0.059 A 
ATOM     19  C   UNL     1       2.406   0.034  -0.082  0.00  0.00    +0.060 A 
ATOM     20  C   UNL     1       1.226  -0.681  -0.073  0.00  0.00    +0.029 A 
ATOM     21  C   UNL     1       0.003  -0.006  -0.123  0.00  0.00    -0.023 A 
ATOM     22 CL   UNL     1       3.926  -0.801  -0.022  0.00  0.00    -0.082 Cl
ATOM     23 CL   UNL     1       3.867   2.313  -0.149  0.00  0.00    -0.082 Cl
ENDBRANCH  14  21
ENDBRANCH   1  15
TORSDOF 3
