REMARK  Name = ZINC39887343
REMARK  8 active torsions:
REMARK  status: ('A' for Active; 'I' for Inactive)
REMARK    1  A    between atoms: C_1  and  C_2
REMARK    2  A    between atoms: C_2  and  C_3
REMARK    3  A    between atoms: C_3  and  C_4
REMARK    4  A    between atoms: C_4  and  C_5
REMARK    5  A    between atoms: C_8  and  N_11
REMARK    6  A    between atoms: C_12  and  C_22
REMARK    7  A    between atoms: C_17  and  C_20
REMARK    8  A    between atoms: C_25  and  C_27
REMARK                            x       y       z     vdW  Elec       q    Type
REMARK                         _______ _______ _______ _____ _____    ______ ____
ROOT
ATOM      1  N   UNL     1       3.394  -3.856  -5.932  0.00  0.00    -0.267 N 
ATOM      2  C   UNL     1       4.854  -3.992  -5.955  0.00  0.00    +0.234 C 
ATOM      3  N   UNL     1       5.222  -5.277  -6.551  0.00  0.00    -0.286 N 
ATOM      4  C   UNL     1       4.443  -5.845  -7.494  0.00  0.00    +0.258 C 
ATOM      5  O   UNL     1       4.777  -6.893  -8.015  0.00  0.00    -0.269 OA
ATOM      6  C   UNL     1       3.192  -5.192  -7.888  0.00  0.00    +0.142 C 
ATOM      7  C   UNL     1       2.681  -4.184  -7.058  0.00  0.00    +0.103 C 
ATOM      8  S   UNL     1       1.173  -3.363  -7.454  0.00  0.00    -0.033 SA
ATOM      9  H   UNL     1       6.034  -5.725  -6.266  0.00  0.00    +0.151 HD
ENDROOT
BRANCH   1  13
ATOM     10  C   UNL     1       1.444  -2.512  -2.506  0.00  0.00    -0.047 A 
ATOM     11  C   UNL     1       2.267  -1.655  -3.212  0.00  0.00    +0.005 A 
ATOM     12  C   UNL     1       2.916  -2.097  -4.348  0.00  0.00    +0.024 A 
ATOM     13  C   UNL     1       2.740  -3.405  -4.782  0.00  0.00    +0.037 A 
ATOM     14  C   UNL     1       1.912  -4.263  -4.070  0.00  0.00    +0.024 A 
ATOM     15  C   UNL     1       1.270  -3.816  -2.932  0.00  0.00    +0.005 A 
BRANCH  10  16
ATOM     16  C   UNL     1       0.738  -2.026  -1.266  0.00  0.00    +0.035 C 
BRANCH  16  17
ATOM     17  C   UNL     1       1.626  -2.273  -0.044  0.00  0.00    +0.004 C 
BRANCH  17  19
ATOM     18  C   UNL     1       1.797  -2.027   2.436  0.00  0.00    +0.004 C 
ATOM     19  C   UNL     1       0.910  -1.780   1.214  0.00  0.00    -0.003 C 
ENDBRANCH  17  19
ENDBRANCH  16  17
ENDBRANCH  10  16
ENDBRANCH   1  13
BRANCH   2  20
ATOM     20  C   UNL     1       5.449  -2.874  -6.772  0.00  0.00    +0.144 A 
ATOM     21  C   UNL     1       6.587  -2.940  -7.486  0.00  0.00    +0.048 A 
ATOM     22  C   UNL     1       6.766  -1.675  -8.090  0.00  0.00    +0.045 A 
ATOM     23  C   UNL     1       5.728  -0.910  -7.708  0.00  0.00    +0.102 A 
ATOM     24  O   UNL     1       4.930  -1.643  -6.915  0.00  0.00    -0.461 OA
ATOM     25  C   UNL     1       5.495   0.524  -8.108  0.00  0.00    +0.086 C 
ENDBRANCH   2  20
BRANCH   6  26
ATOM     26  C   UNL     1       2.508  -5.577  -9.086  0.00  0.00    +0.107 C 
ATOM     27  N   UNL     1       1.966  -5.883 -10.036  0.00  0.00    -0.191 NA
ENDBRANCH   6  26
TORSDOF 6
