REMARK  Name = ZINC13331874
REMARK  3 active torsions:
REMARK  status: ('A' for Active; 'I' for Inactive)
REMARK    1  A    between atoms: C_4  and  S_10
REMARK    2  A    between atoms: C_5  and  N_7
REMARK    3  A    between atoms: S_10  and  N_13
REMARK                            x       y       z     vdW  Elec       q    Type
REMARK                         _______ _______ _______ _____ _____    ______ ____
ROOT
ATOM      1  S   UNL     1       5.102   1.133   0.102  0.00  0.00    +0.076 S 
ATOM      2  O   UNL     1       6.250   1.965   0.206  0.00  0.00    -0.150 OA
ATOM      3  O   UNL     1       4.769   0.166   1.088  0.00  0.00    -0.150 OA
ENDROOT
BRANCH   1   4
ATOM      4  N   UNL     1       3.796   2.144  -0.030  0.00  0.00    -0.199 N 
ATOM      5  C   UNL     1       2.520   1.614  -0.185  0.00  0.00    +0.138 A 
ATOM      6  C   UNL     1       1.417   2.462  -0.186  0.00  0.00    +0.046 A 
ATOM      7  C   UNL     1       0.153   1.922  -0.341  0.00  0.00    +0.020 A 
ATOM      8  C   UNL     1       0.034   0.546  -0.490  0.00  0.00    +0.036 A 
ATOM      9  C   UNL     1       1.172  -0.236  -0.480  0.00  0.00    +0.128 A 
ATOM     10  N   UNL     1       2.365   0.307  -0.330  0.00  0.00    -0.238 NA
ATOM     11 BR   UNL     1      -1.669  -0.248  -0.706  0.00  0.00    -0.049 Br
ATOM     12  H   UNL     1       3.922   3.105   0.001  0.00  0.00    +0.175 HD
ENDBRANCH   1   4
BRANCH   1  16
ATOM     13  C   UNL     1       5.471  -1.095  -3.821  0.00  0.00    +0.002 A 
ATOM     14  C   UNL     1       5.219  -1.790  -2.653  0.00  0.00    +0.002 A 
ATOM     15  C   UNL     1       5.111  -1.110  -1.454  0.00  0.00    +0.031 A 
ATOM     16  C   UNL     1       5.245   0.266  -1.425  0.00  0.00    +0.139 A 
ATOM     17  C   UNL     1       5.497   0.961  -2.594  0.00  0.00    +0.153 A 
ATOM     18  C   UNL     1       5.610   0.280  -3.792  0.00  0.00    +0.035 A 
BRANCH  17  19
ATOM     19  N   UNL     1       5.646   2.433  -2.562  0.00  0.00    +0.058 N 
ATOM     20  O   UNL     1       5.993   3.031  -3.564  0.00  0.00    -0.126 OA
ATOM     21  O   UNL     1       5.421   3.046  -1.534  0.00  0.00    -0.126 OA
ENDBRANCH  17  19
ENDBRANCH   1  16
TORSDOF 3
