REMARK  Name = ZINC06754926
REMARK  8 active torsions:
REMARK  status: ('A' for Active; 'I' for Inactive)
REMARK    1  A    between atoms: C_1  and  C_2
REMARK    2  A    between atoms: C_3  and  C_25
REMARK    3  A    between atoms: N_4  and  C_21
REMARK    4  A    between atoms: C_9  and  C_14
REMARK    5  A    between atoms: C_19  and  O_20
REMARK    6  A    between atoms: C_21  and  C_22
REMARK    7  A    between atoms: C_22  and  C_23
REMARK    8  A    between atoms: C_22  and  C_24
REMARK                            x       y       z     vdW  Elec       q    Type
REMARK                         _______ _______ _______ _____ _____    ______ ____
ROOT
ATOM      1  C   UNL     1      -1.748   7.015   0.047  0.00  0.00    +0.046 C 
ATOM      2  C   UNL     1      -3.135   6.428   0.051  0.00  0.00    -0.017 A 
ATOM      3  C   UNL     1      -4.296   7.110   0.060  0.00  0.00    +0.021 A 
ATOM      4  N   UNL     1      -5.345   6.232   0.061  0.00  0.00    -0.329 N 
ATOM      5  C   UNL     1      -4.880   4.945   0.052  0.00  0.00    +0.146 A 
ATOM      6  C   UNL     1      -3.481   5.012   0.045  0.00  0.00    +0.066 A 
ATOM      7  C   UNL     1      -2.729   3.762   0.035  0.00  0.00    +0.169 A 
ATOM      8  N   UNL     1      -1.448   3.450   0.033  0.00  0.00    -0.206 NA
ATOM      9  C   UNL     1      -1.309   2.121   0.020  0.00  0.00    +0.186 A 
ATOM     10  N   UNL     1      -2.502   1.558   0.023  0.00  0.00    -0.143 NA
ATOM     11  N   UNL     1      -3.446   2.592   0.033  0.00  0.00    -0.201 N 
ATOM     12  C   UNL     1      -4.804   2.631   0.040  0.00  0.00    +0.227 A 
ATOM     13  N   UNL     1      -5.477   3.744   0.049  0.00  0.00    -0.218 NA
ATOM     14  C   UNL     1      -4.421   8.612   0.068  0.00  0.00    +0.064 C 
ENDROOT
BRANCH   9  15
ATOM     15  C   UNL     1      -0.017   1.394   0.010  0.00  0.00    +0.062 A 
ATOM     16  C   UNL     1       1.184   2.100   0.002  0.00  0.00    +0.015 A 
ATOM     17  C   UNL     1       2.384   1.419  -0.013  0.00  0.00    +0.001 A 
ATOM     18  C   UNL     1       2.399   0.035  -0.021  0.00  0.00    +0.004 A 
ATOM     19  C   UNL     1       1.214  -0.676  -0.013  0.00  0.00    +0.046 A 
ATOM     20  C   UNL     1       0.002  -0.004   0.002  0.00  0.00    +0.128 A 
BRANCH  20  21
ATOM     21  O   UNL     1      -1.163  -0.702   0.010  0.00  0.00    -0.506 OA
ATOM     22  H   UNL     1      -1.510  -0.899  -0.871  0.00  0.00    +0.292 HD
ENDBRANCH  20  21
ENDBRANCH   9  15
BRANCH   4  23
ATOM     23  C   UNL     1      -6.759   6.614   0.070  0.00  0.00    +0.126 C 
BRANCH  23  24
ATOM     24  C   UNL     1      -7.244   6.739   1.516  0.00  0.00    +0.003 C 
ATOM     25  C   UNL     1      -6.509   7.892   2.202  0.00  0.00    +0.009 C 
ATOM     26  C   UNL     1      -8.749   7.015   1.527  0.00  0.00    +0.009 C 
ENDBRANCH  23  24
ENDBRANCH   4  23
TORSDOF 4
