REMARK  Name = ZINC04835608
REMARK  7 active torsions:
REMARK  status: ('A' for Active; 'I' for Inactive)
REMARK    1  A    between atoms: C_1  and  C_2
REMARK    2  A    between atoms: C_2  and  C_4
REMARK    3  A    between atoms: C_2  and  S_11
REMARK    4  A    between atoms: N_9  and  C_10
REMARK    5  A    between atoms: S_11  and  C_12
REMARK    6  A    between atoms: C_15  and  C_24
REMARK    7  A    between atoms: N_16  and  C_17
REMARK                            x       y       z     vdW  Elec       q    Type
REMARK                         _______ _______ _______ _____ _____    ______ ____
ROOT
ATOM      1  C   UNL     1       0.989   3.725   1.281  0.00  0.00    +0.197 A 
ATOM      2  N   UNL     1       1.947   2.829   1.372  0.00  0.00    -0.122 NA
ATOM      3  N   UNL     1       3.067   3.404   1.629  0.00  0.00    -0.128 NA
ATOM      4  C   UNL     1       2.895   4.702   1.727  0.00  0.00    +0.169 A 
ATOM      5  N   UNL     1       1.557   4.949   1.507  0.00  0.00    -0.270 N 
ENDROOT
BRANCH   5   6
ATOM      6  C   UNL     1       0.912   6.194   1.514  0.00  0.00    +0.051 A 
ATOM      7  C   UNL     1       1.186   7.124   0.520  0.00  0.00    +0.029 A 
ATOM      8  C   UNL     1       0.546   8.348   0.524  0.00  0.00    +0.040 A 
ATOM      9  C   UNL     1      -0.359   8.652   1.527  0.00  0.00    +0.124 A 
ATOM     10  C   UNL     1      -0.629   7.729   2.523  0.00  0.00    +0.040 A 
ATOM     11  C   UNL     1       0.004   6.502   2.518  0.00  0.00    +0.029 A 
ATOM     12  F   UNL     1      -0.981   9.852   1.533  0.00  0.00    -0.205 F 
ENDBRANCH   5   6
BRANCH   4  13
ATOM     13  C   UNL     1       3.938   5.708   2.019  0.00  0.00    +0.020 A 
ATOM     14  C   UNL     1       5.287   5.385   1.862  0.00  0.00    +0.011 A 
ATOM     15  C   UNL     1       6.255   6.330   2.131  0.00  0.00    +0.001 A 
ATOM     16  C   UNL     1       5.892   7.592   2.565  0.00  0.00    +0.000 A 
ATOM     17  C   UNL     1       4.557   7.917   2.728  0.00  0.00    +0.001 A 
ATOM     18  C   UNL     1       3.578   6.983   2.458  0.00  0.00    +0.011 A 
ENDBRANCH   4  13
BRANCH   1  19
ATOM     19  S   UNL     1      -0.710   3.408   0.940  0.00  0.00    -0.073 S 
BRANCH  19  21
ATOM     20  C   UNL     1       0.181   1.231  -0.451  0.00  0.00    +0.029 C 
ATOM     21  C   UNL     1      -0.665   1.607   0.768  0.00  0.00    +0.137 C 
BRANCH  21  22
ATOM     22  C   UNL     1      -2.067   1.084   0.587  0.00  0.00    +0.233 C 
ATOM     23  O   UNL     1      -2.928   1.805   0.129  0.00  0.00    -0.274 OA
ATOM     24  N   UNL     1      -2.363  -0.184   0.933  0.00  0.00    -0.239 N 
ATOM     25  C   UNL     1      -3.617  -0.651   0.771  0.00  0.00    +0.306 C 
ATOM     26  O   UNL     1      -4.480   0.071   0.312  0.00  0.00    -0.252 OA
ATOM     27  N   UNL     1      -3.913  -1.920   1.117  0.00  0.00    -0.302 N 
ATOM     28  C   UNL     1      -5.276  -2.428   0.941  0.00  0.00    +0.129 C 
ATOM     29  H   UNL     1      -1.674  -0.761   1.299  0.00  0.00    +0.159 HD
ATOM     30  H   UNL     1      -3.225  -2.496   1.483  0.00  0.00    +0.150 HD
ENDBRANCH  21  22
ENDBRANCH  19  21
ENDBRANCH   1  19
TORSDOF 5
