REMARK  Name = ZINC18219673
REMARK  5 active torsions:
REMARK  status: ('A' for Active; 'I' for Inactive)
REMARK    1  A    between atoms: C_1  and  O_2
REMARK    2  A    between atoms: O_2  and  C_3
REMARK    3  A    between atoms: C_3  and  C_4
REMARK    4  A    between atoms: C_4  and  N_5
REMARK    5  A    between atoms: C_14  and  C_27
REMARK                            x       y       z     vdW  Elec       q    Type
REMARK                         _______ _______ _______ _____ _____    ______ ____
ROOT
ATOM      1  N   UNL     1       1.401  -2.532  -0.162  0.00  0.00    -0.279 N 
ATOM      2  C   UNL     1       0.774  -2.648  -1.383  0.00  0.00    +0.116 A 
ATOM      3  C   UNL     1       1.494  -3.046  -2.468  0.00  0.00    +0.067 A 
ATOM      4  C   UNL     1       2.868  -3.322  -2.310  0.00  0.00    +0.260 A 
ATOM      5  O   UNL     1       3.534  -3.675  -3.268  0.00  0.00    -0.267 OA
ATOM      6  N   UNL     1       3.441  -3.193  -1.099  0.00  0.00    -0.275 N 
ATOM      7  H   UNL     1       4.386  -3.383  -0.991  0.00  0.00    +0.173 HD
ATOM      8  C   UNL     1       2.713  -2.799  -0.038  0.00  0.00    +0.331 A 
ATOM      9  O   UNL     1       3.248  -2.686   1.048  0.00  0.00    -0.246 OA
ATOM     10  C   UNL     1       0.877  -3.209  -3.834  0.00  0.00    +0.093 C 
ATOM     11  C   UNL     1      -0.481  -2.557  -3.852  0.00  0.00    +0.034 C 
ATOM     12  C   UNL     1      -1.129  -2.168  -2.707  0.00  0.00    +0.048 C 
ATOM     13  N   UNL     1      -0.569  -2.349  -1.463  0.00  0.00    -0.299 N 
ATOM     14  C   UNL     1      -2.421  -1.574  -3.068  0.00  0.00    +0.007 A 
ATOM     15  C   UNL     1      -3.439  -1.035  -2.297  0.00  0.00    +0.010 A 
ATOM     16  C   UNL     1      -4.556  -0.543  -2.978  0.00  0.00    +0.001 A 
ATOM     17  C   UNL     1      -4.651  -0.589  -4.349  0.00  0.00    +0.001 A 
ATOM     18  C   UNL     1      -3.633  -1.130  -5.141  0.00  0.00    +0.012 A 
ATOM     19  C   UNL     1      -2.522  -1.619  -4.481  0.00  0.00    +0.031 A 
ATOM     20  C   UNL     1      -1.279  -2.249  -4.977  0.00  0.00    +0.193 C 
ATOM     21  O   UNL     1      -0.995  -2.463  -6.139  0.00  0.00    -0.287 OA
ATOM     22  H   UNL     1      -1.107  -2.267  -0.660  0.00  0.00    +0.154 HD
ENDROOT
BRANCH  10  23
ATOM     23  C   UNL     1       0.735  -4.676  -4.149  0.00  0.00    -0.035 A 
ATOM     24  C   UNL     1      -0.040  -5.485  -3.339  0.00  0.00    +0.004 A 
ATOM     25  C   UNL     1      -0.171  -6.830  -3.629  0.00  0.00    +0.000 A 
ATOM     26  C   UNL     1       0.473  -7.366  -4.728  0.00  0.00    +0.000 A 
ATOM     27  C   UNL     1       1.248  -6.557  -5.538  0.00  0.00    +0.000 A 
ATOM     28  C   UNL     1       1.375  -5.211  -5.252  0.00  0.00    +0.004 A 
ENDBRANCH  10  23
BRANCH   1  29
ATOM     29  C   UNL     1       0.633  -2.108   1.011  0.00  0.00    +0.156 C 
BRANCH  29  30
ATOM     30  C   UNL     1       0.673  -0.582   1.123  0.00  0.00    +0.181 C 
BRANCH  30  32
ATOM     31  C   UNL     1      -0.017   1.425   0.010  0.00  0.00    +0.194 C 
ATOM     32  O   UNL     1       0.002  -0.004   0.002  0.00  0.00    -0.381 OA
ENDBRANCH  30  32
ENDBRANCH  29  30
ENDBRANCH   1  29
TORSDOF 4
