REMARK  Name = ZINC65556605
REMARK  4 active torsions:
REMARK  status: ('A' for Active; 'I' for Inactive)
REMARK    1  A    between atoms: C_3  and  N_9
REMARK    2  A    between atoms: C_10  and  C_12
REMARK    3  A    between atoms: N_14  and  C_15
REMARK    4  A    between atoms: C_15  and  C_16
REMARK                            x       y       z     vdW  Elec       q    Type
REMARK                         _______ _______ _______ _____ _____    ______ ____
ROOT
ATOM      1  C   UNL     1       4.843   4.231  -0.250  0.00  0.00    +0.300 C 
ATOM      2  O   UNL     1       5.901   3.636  -0.256  0.00  0.00    -0.265 OA
ATOM      3  N   UNL     1       4.825   5.575  -0.343  0.00  0.00    -0.303 N 
ATOM      4  H   UNL     1       3.980   6.051  -0.339  0.00  0.00    +0.149 HD
ENDROOT
BRANCH   1   6
ATOM      5  N   UNL     1       3.579   2.128  -0.048  0.00  0.00    -0.275 N 
ATOM      6  C   UNL     1       3.561   3.473  -0.141  0.00  0.00    +0.303 C 
ATOM      7  O   UNL     1       2.503   4.068  -0.135  0.00  0.00    -0.265 OA
ATOM      8  H   UNL     1       4.424   1.659   0.030  0.00  0.00    +0.155 HD
BRANCH   5  11
ATOM      9  C   UNL     1       0.068   1.242  -0.685  0.00  0.00    +0.005 A 
ATOM     10  C   UNL     1       1.252   1.952  -0.669  0.00  0.00    +0.026 A 
ATOM     11  C   UNL     1       2.379   1.411  -0.065  0.00  0.00    +0.072 A 
ATOM     12  C   UNL     1       2.312   0.152   0.523  0.00  0.00    +0.179 A 
ATOM     13  C   UNL     1       1.122  -0.555   0.504  0.00  0.00    +0.160 A 
ATOM     14  C   UNL     1       0.001  -0.009  -0.101  0.00  0.00    +0.041 A 
ATOM     15  F   UNL     1       1.053  -1.778   1.074  0.00  0.00    -0.202 F 
ATOM     16  F   UNL     1       3.405  -0.379   1.113  0.00  0.00    -0.201 F 
ENDBRANCH   5  11
ENDBRANCH   1   6
BRANCH   3  17
ATOM     17  C   UNL     1       6.083   6.319  -0.451  0.00  0.00    +0.141 C 
BRANCH  17  18
ATOM     18  C   UNL     1       5.788   7.794  -0.540  0.00  0.00    -0.014 A 
ATOM     19  C   UNL     1       5.593   8.396  -1.776  0.00  0.00    +0.010 A 
ATOM     20  C   UNL     1       5.325   9.753  -1.815  0.00  0.00    +0.042 A 
ATOM     21  C   UNL     1       5.261  10.464  -0.621  0.00  0.00    +0.099 A 
ATOM     22  N   UNL     1       5.453   9.853   0.538  0.00  0.00    -0.349 N 
ATOM     23  C   UNL     1       5.705   8.559   0.605  0.00  0.00    +0.089 A 
ATOM     24  N   UNL     1       4.992  11.827  -0.644  0.00  0.00    -0.317 N 
ATOM     25  C   UNL     1       4.662  12.447  -1.908  0.00  0.00    +0.106 C 
ATOM     26  C   UNL     1       5.959  12.927  -2.606  0.00  0.00    +0.019 C 
ATOM     27  C   UNL     1       6.518  14.090  -1.900  0.00  0.00    +0.002 C 
ATOM     28  C   UNL     1       6.945  13.808  -0.463  0.00  0.00    +0.002 C 
ATOM     29  C   UNL     1       5.751  13.946   0.450  0.00  0.00    +0.019 C 
ATOM     30  C   UNL     1       5.050  12.582   0.623  0.00  0.00    +0.106 C 
ATOM     31  H   UNL     1       5.404  10.368   1.359  0.00  0.00    +0.167 HD
ENDBRANCH  17  18
ENDBRANCH   3  17
TORSDOF 4
