REMARK  Name = ZINC39978368
REMARK  9 active torsions:
REMARK  status: ('A' for Active; 'I' for Inactive)
REMARK    1  A    between atoms: C_1  and  C_2
REMARK    2  A    between atoms: C_6  and  C_8
REMARK    3  A    between atoms: N_10  and  C_11
REMARK    4  A    between atoms: C_11  and  C_13
REMARK    5  A    between atoms: C_11  and  C_16
REMARK    6  A    between atoms: C_13  and  C_14
REMARK    7  A    between atoms: C_13  and  C_15
REMARK    8  A    between atoms: N_18  and  N_19
REMARK    9  A    between atoms: C_20  and  C_21
REMARK                            x       y       z     vdW  Elec       q    Type
REMARK                         _______ _______ _______ _____ _____    ______ ____
ROOT
ATOM      1  C   UNL     1      -0.520  -4.919   3.617  0.00  0.00    +0.253 C 
ATOM      2  O   UNL     1      -0.998  -4.991   2.505  0.00  0.00    -0.272 OA
ATOM      3  N   UNL     1      -0.579  -5.981   4.445  0.00  0.00    -0.205 N 
ATOM      4  H   UNL     1      -0.132  -5.951   5.305  0.00  0.00    +0.177 HD
ENDROOT
BRANCH   3   5
ATOM      5  N   UNL     1      -1.287  -7.129   4.063  0.00  0.00    -0.188 NA
ATOM      6  C   UNL     1      -1.414  -8.128   4.900  0.00  0.00    +0.136 C 
BRANCH   6   7
ATOM      7  C   UNL     1      -1.015  -7.979   6.236  0.00  0.00    +0.000 C 
ATOM      8  C   UNL     1      -1.184  -8.894   7.272  0.00  0.00    +0.004 A 
ATOM      9  C   UNL     1      -1.768 -10.179   7.325  0.00  0.00    +0.010 A 
ATOM     10  C   UNL     1      -1.793 -10.858   8.499  0.00  0.00    +0.001 A 
ATOM     11  C   UNL     1      -1.254 -10.318   9.670  0.00  0.00    +0.002 A 
ATOM     12  C   UNL     1      -0.678  -9.092   9.694  0.00  0.00    +0.026 A 
ATOM     13  C   UNL     1      -0.613  -8.320   8.504  0.00  0.00    +0.043 A 
ATOM     14  N   UNL     1      -0.117  -7.124   8.267  0.00  0.00    -0.380 N 
ATOM     15  C   UNL     1      -0.305  -6.793   6.851  0.00  0.00    +0.150 C 
ATOM     16  H   UNL     1       0.310  -6.553   8.925  0.00  0.00    +0.160 HD
ENDBRANCH   6   7
ENDBRANCH   3   5
BRANCH   1  17
ATOM     17  C   UNL     1       0.140  -3.644   4.073  0.00  0.00    +0.163 C 
BRANCH  17  20
ATOM     18  C   UNL     1      -0.284  -1.273   3.705  0.00  0.00    +0.245 C 
ATOM     19  O   UNL     1       0.110  -1.057   4.835  0.00  0.00    -0.270 OA
ATOM     20  N   UNL     1      -0.308  -2.533   3.229  0.00  0.00    -0.300 N 
ATOM     21  H   UNL     1      -0.622  -2.705   2.327  0.00  0.00    +0.150 HD
BRANCH  18  27
ATOM     22  C   UNL     1      -1.111   3.607   3.070  0.00  0.00    +0.044 C 
ATOM     23  C   UNL     1      -1.136   2.196   2.543  0.00  0.00    -0.050 A 
ATOM     24  C   UNL     1      -1.583   1.947   1.257  0.00  0.00    +0.003 A 
ATOM     25  C   UNL     1      -1.608   0.654   0.765  0.00  0.00    +0.001 A 
ATOM     26  C   UNL     1      -1.188  -0.396   1.555  0.00  0.00    +0.013 A 
ATOM     27  C   UNL     1      -0.736  -0.152   2.853  0.00  0.00    +0.037 A 
ATOM     28  C   UNL     1      -0.707   1.155   3.341  0.00  0.00    +0.016 A 
ENDBRANCH  18  27
ENDBRANCH  17  20
BRANCH  17  29
ATOM     29  C   UNL     1       1.659  -3.788   3.963  0.00  0.00    +0.012 C 
ATOM     30  C   UNL     1       2.325  -2.465   4.347  0.00  0.00    +0.009 C 
ATOM     31  C   UNL     1       2.136  -4.893   4.908  0.00  0.00    +0.009 C 
ENDBRANCH  17  29
ENDBRANCH   1  17
TORSDOF 6
