REMARK  Name = ZINC16045281
REMARK  9 active torsions:
REMARK  status: ('A' for Active; 'I' for Inactive)
REMARK    1  A    between atoms: C_1  and  C_2
REMARK    2  A    between atoms: C_2  and  C_3
REMARK    3  A    between atoms: C_3  and  C_4
REMARK    4  A    between atoms: C_4  and  C_28
REMARK    5  A    between atoms: N_7  and  C_11
REMARK    6  A    between atoms: C_11  and  C_12
REMARK    7  A    between atoms: N_14  and  C_15
REMARK    8  A    between atoms: C_15  and  C_16
REMARK    9  A    between atoms: N_18  and  C_19
REMARK                            x       y       z     vdW  Elec       q    Type
REMARK                         _______ _______ _______ _____ _____    ______ ____
ROOT
ATOM      1  C   UNL     1      -3.937   1.487  -2.566  0.00  0.00    +0.213 C 
ENDROOT
BRANCH   1   5
ATOM      2  C   UNL     1      -1.376   2.071   0.060  0.00  0.00    +0.138 C 
ATOM      3  C   UNL     1      -1.900   2.235  -1.353  0.00  0.00    +0.251 C 
ATOM      4  O   UNL     1      -1.368   2.828  -2.267  0.00  0.00    -0.272 OA
ATOM      5  N   UNL     1      -3.080   1.584  -1.382  0.00  0.00    -0.215 N 
ATOM      6  C   UNL     1      -3.372   1.038  -0.196  0.00  0.00    +0.310 C 
ATOM      7  O   UNL     1      -4.383   0.401   0.024  0.00  0.00    -0.252 OA
ATOM      8  N   UNL     1      -2.420   1.272   0.726  0.00  0.00    -0.281 N 
ATOM      9  H   UNL     1      -2.420   0.973   1.648  0.00  0.00    +0.152 HD
BRANCH   2  10
ATOM     10  C   UNL     1      -0.064   1.330   0.056  0.00  0.00    -0.015 A 
ATOM     11  C   UNL     1       1.127   2.033   0.059  0.00  0.00    +0.006 A 
ATOM     12  C   UNL     1       2.331   1.354   0.049  0.00  0.00    +0.000 A 
ATOM     13  C   UNL     1       2.344  -0.028   0.037  0.00  0.00    +0.000 A 
ATOM     14  C   UNL     1       1.154  -0.731   0.034  0.00  0.00    +0.000 A 
ATOM     15  C   UNL     1      -0.050  -0.052   0.044  0.00  0.00    +0.006 A 
ENDBRANCH   2  10
BRANCH   2  16
ATOM     16  C   UNL     1      -1.222   3.432   0.742  0.00  0.00    +0.040 C 
BRANCH  16  18
ATOM     17  C   UNL     1      -2.437   5.469   1.526  0.00  0.00    +0.004 C 
ATOM     18  C   UNL     1      -2.591   4.108   0.844  0.00  0.00    -0.000 C 
ENDBRANCH  16  18
ENDBRANCH   2  16
ENDBRANCH   1   5
BRANCH   1  19
ATOM     19  C   UNL     1      -4.899   2.647  -2.587  0.00  0.00    +0.231 C 
ATOM     20  O   UNL     1      -4.871   3.474  -1.700  0.00  0.00    -0.274 OA
ATOM     21  N   UNL     1      -5.790   2.766  -3.591  0.00  0.00    -0.305 N 
ATOM     22  H   UNL     1      -5.812   2.105  -4.300  0.00  0.00    +0.149 HD
BRANCH  21  23
ATOM     23  C   UNL     1      -6.725   3.894  -3.611  0.00  0.00    +0.200 C 
BRANCH  23  24
ATOM     24  C   UNL     1      -7.606   3.794  -4.829  0.00  0.00    +0.234 C 
ATOM     25  O   UNL     1      -7.468   2.871  -5.604  0.00  0.00    -0.274 OA
ATOM     26  N   UNL     1      -8.549   4.730  -5.057  0.00  0.00    -0.282 N 
ATOM     27  H   UNL     1      -8.704   5.431  -4.405  0.00  0.00    +0.155 HD
BRANCH  26  28
ATOM     28  C   UNL     1      -9.306   4.689  -6.236  0.00  0.00    +0.072 A 
ATOM     29  C   UNL     1      -9.656   3.468  -6.795  0.00  0.00    +0.029 A 
ATOM     30  C   UNL     1     -10.402   3.429  -7.957  0.00  0.00    +0.043 A 
ATOM     31  C   UNL     1     -10.803   4.606  -8.565  0.00  0.00    +0.161 A 
ATOM     32  C   UNL     1     -10.456   5.828  -8.010  0.00  0.00    +0.195 A 
ATOM     33  C   UNL     1      -9.713   5.872  -6.843  0.00  0.00    +0.182 A 
ATOM     34  F   UNL     1      -9.378   7.062  -6.298  0.00  0.00    -0.200 F 
ATOM     35  F   UNL     1     -10.848   6.976  -8.605  0.00  0.00    -0.199 F 
ATOM     36  F   UNL     1     -11.533   4.564  -9.702  0.00  0.00    -0.202 F 
ENDBRANCH  26  28
ENDBRANCH  23  24
ENDBRANCH  21  23
ENDBRANCH   1  19
TORSDOF 8
