REMARK  Name = ZINC20630237
REMARK  7 active torsions:
REMARK  status: ('A' for Active; 'I' for Inactive)
REMARK    1  A    between atoms: C_1  and  C_2
REMARK    2  A    between atoms: C_5  and  N_9
REMARK    3  A    between atoms: C_7  and  C_8
REMARK    4  A    between atoms: N_12  and  C_15
REMARK    5  A    between atoms: C_15  and  N_16
REMARK    6  A    between atoms: C_18  and  C_25
REMARK    7  A    between atoms: C_21  and  C_24
REMARK                            x       y       z     vdW  Elec       q    Type
REMARK                         _______ _______ _______ _____ _____    ______ ____
ROOT
ATOM      1  N   UNL     1      -1.198  -4.135   0.002  0.00  0.00    -0.188 N 
ATOM      2  C   UNL     1      -1.253  -2.954  -0.651  0.00  0.00    +0.202 A 
ATOM      3  S   UNL     1      -1.260  -2.718  -2.346  0.00  0.00    -0.009 S 
ATOM      4  N   UNL     1      -1.297  -1.995   0.299  0.00  0.00    -0.206 N 
ATOM      5  N   UNL     1      -1.277  -2.635   1.544  0.00  0.00    -0.043 NA
ATOM      6  N   UNL     1      -1.221  -3.859   1.374  0.00  0.00    -0.040 NA
ENDROOT
BRANCH   1  11
ATOM      7  C   UNL     1      -0.950  -9.278  -2.383  0.00  0.00    +0.044 C 
ATOM      8  C   UNL     1      -1.015  -7.912  -1.750  0.00  0.00    -0.047 A 
ATOM      9  C   UNL     1      -1.745  -6.905  -2.356  0.00  0.00    +0.006 A 
ATOM     10  C   UNL     1      -1.812  -5.654  -1.775  0.00  0.00    +0.028 A 
ATOM     11  C   UNL     1      -1.137  -5.404  -0.587  0.00  0.00    +0.070 A 
ATOM     12  C   UNL     1      -0.405  -6.418   0.018  0.00  0.00    +0.031 A 
ATOM     13  C   UNL     1      -0.347  -7.668  -0.565  0.00  0.00    -0.046 A 
ATOM     14  C   UNL     1       0.448  -8.768   0.092  0.00  0.00    +0.044 C 
ENDBRANCH   1  11
BRANCH   4  15
ATOM     15  C   UNL     1      -1.360  -0.549   0.069  0.00  0.00    +0.235 C 
BRANCH  15  16
ATOM     16  N   UNL     1       0.002  -0.004   0.002  0.00  0.00    -0.279 NA
ATOM     17  C   UNL     1      -0.018   1.466   0.010  0.00  0.00    +0.117 C 
ATOM     18  C   UNL     1       1.420   1.990  -0.001  0.00  0.00    +0.130 C 
ATOM     19  O   UNL     1       2.106   1.465  -1.141  0.00  0.00    -0.371 OA
ATOM     20  C   UNL     1       2.145   0.035  -1.180  0.00  0.00    +0.130 C 
ATOM     21  C   UNL     1       0.714  -0.509  -1.181  0.00  0.00    +0.117 C 
ATOM     22  C   UNL     1       2.866  -0.422  -2.449  0.00  0.00    +0.039 C 
ATOM     23  C   UNL     1       1.406   3.519  -0.073  0.00  0.00    +0.039 C 
ENDBRANCH  15  16
ENDBRANCH   4  15
TORSDOF 3
