REMARK  Name = ZINC04748903
REMARK  7 active torsions:
REMARK  status: ('A' for Active; 'I' for Inactive)
REMARK    1  A    between atoms: C_1  and  C_2
REMARK    2  A    between atoms: C_9  and  N_14
REMARK    3  A    between atoms: C_10  and  C_11
REMARK    4  A    between atoms: C_15  and  C_17
REMARK    5  A    between atoms: C_17  and  C_19
REMARK    6  A    between atoms: C_17  and  O_20
REMARK    7  A    between atoms: O_20  and  C_21
REMARK                            x       y       z     vdW  Elec       q    Type
REMARK                         _______ _______ _______ _____ _____    ______ ____
ROOT
ATOM      1  C   UNL     1       9.998  -4.244   5.168  0.00  0.00    +0.008 C 
ATOM      2  C   UNL     1       8.875  -4.244   4.128  0.00  0.00    -0.009 C 
ATOM      3  C   UNL     1       7.794  -5.250   4.536  0.00  0.00    +0.008 C 
ATOM      4  C   UNL     1       6.800  -5.438   3.389  0.00  0.00    +0.037 C 
ATOM      5  C   UNL     1       6.299  -4.069   2.945  0.00  0.00    -0.023 A 
ATOM      6  C   UNL     1       6.975  -2.944   3.263  0.00  0.00    -0.004 A 
ATOM      7  S   UNL     1       6.030  -1.630   2.546  0.00  0.00    -0.077 S 
ATOM      8  C   UNL     1       4.754  -2.560   1.833  0.00  0.00    +0.084 A 
ATOM      9  C   UNL     1       5.086  -3.864   2.171  0.00  0.00    +0.068 A 
ATOM     10  C   UNL     1       8.246  -2.846   4.049  0.00  0.00    +0.046 C 
ENDROOT
BRANCH   9  11
ATOM     11  C   UNL     1       4.246  -4.994   1.761  0.00  0.00    +0.244 C 
ATOM     12  O   UNL     1       4.454  -5.552   0.700  0.00  0.00    -0.270 OA
ATOM     13  N   UNL     1       3.244  -5.413   2.558  0.00  0.00    -0.325 N 
ATOM     14  H   UNL     1       3.078  -4.968   3.404  0.00  0.00    +0.145 HD
ATOM     15  H   UNL     1       2.688  -6.160   2.286  0.00  0.00    +0.145 HD
ENDBRANCH   9  11
BRANCH   8  16
ATOM     16  N   UNL     1       3.662  -2.110   1.105  0.00  0.00    -0.276 N 
ATOM     17  C   UNL     1       3.501  -0.791   0.879  0.00  0.00    +0.258 C 
ATOM     18  O   UNL     1       4.310   0.002   1.311  0.00  0.00    -0.271 OA
ATOM     19  H   UNL     1       3.015  -2.744   0.759  0.00  0.00    +0.155 HD
BRANCH  17  20
ATOM     20  C   UNL     1       2.315  -0.302   0.088  0.00  0.00    +0.256 C 
ATOM     21  C   UNL     1       2.347  -0.916  -1.312  0.00  0.00    +0.062 C 
BRANCH  20  22
ATOM     22  O   UNL     1       2.366   1.122  -0.015  0.00  0.00    -0.477 OA
BRANCH  22  23
ATOM     23  C   UNL     1       1.186   1.770  -0.213  0.00  0.00    +0.157 A 
ATOM     24  C   UNL     1       0.023   1.044  -0.419  0.00  0.00    +0.051 A 
ATOM     25  C   UNL     1      -1.174   1.703  -0.626  0.00  0.00    +0.042 A 
ATOM     26  C   UNL     1      -1.215   3.087  -0.619  0.00  0.00    +0.126 A 
ATOM     27  C   UNL     1      -0.055   3.814  -0.414  0.00  0.00    +0.080 A 
ATOM     28  C   UNL     1       1.146   3.158  -0.211  0.00  0.00    +0.168 A 
ATOM     29  F   UNL     1       2.279   3.867  -0.012  0.00  0.00    -0.202 F 
ATOM     30  F   UNL     1      -2.387   3.728  -0.817  0.00  0.00    -0.205 F 
ENDBRANCH  22  23
ENDBRANCH  20  22
ENDBRANCH  17  20
ENDBRANCH   8  16
TORSDOF 5
