REMARK  Name = ZINC15880113
REMARK  6 active torsions:
REMARK  status: ('A' for Active; 'I' for Inactive)
REMARK    1  A    between atoms: C_1  and  C_2
REMARK    2  A    between atoms: C_2  and  C_3
REMARK    3  A    between atoms: C_2  and  C_4
REMARK    4  A    between atoms: C_2  and  C_5
REMARK    5  A    between atoms: C_8  and  C_11
REMARK    6  A    between atoms: N_20  and  C_23
REMARK                            x       y       z     vdW  Elec       q    Type
REMARK                         _______ _______ _______ _____ _____    ______ ____
ROOT
ATOM      1  C   UNL     1       2.695  -1.859  -4.733  0.00  0.00    +0.250 C 
ATOM      2  O   UNL     1       2.105  -2.558  -5.533  0.00  0.00    -0.270 OA
ATOM      3  N   UNL     1       3.980  -1.519  -4.954  0.00  0.00    -0.261 N 
ATOM      4  C   UNL     1       4.630  -1.967  -6.097  0.00  0.00    +0.165 A 
ATOM      5  N   UNL     1       5.872  -1.743  -6.472  0.00  0.00    -0.229 NA
ATOM      6  C   UNL     1       6.362  -2.240  -7.601  0.00  0.00    +0.056 A 
ATOM      7  C   UNL     1       5.488  -2.988  -8.326  0.00  0.00    +0.028 A 
ATOM      8  S   UNL     1       4.023  -2.936  -7.335  0.00  0.00    -0.055 S 
ATOM      9  C   UNL     1       5.751  -3.665  -9.627  0.00  0.00    +0.128 C 
ATOM     10  N   UNL     1       7.003  -3.113 -10.185  0.00  0.00    -0.300 NA
ATOM     11  C   UNL     1       8.066  -3.105  -9.171  0.00  0.00    +0.090 C 
ATOM     12  C   UNL     1       7.782  -2.035  -8.111  0.00  0.00    +0.071 C 
ATOM     13  C   UNL     1       7.420  -3.859 -11.380  0.00  0.00    +0.105 C 
ATOM     14  H   UNL     1       4.451  -0.961  -4.315  0.00  0.00    +0.157 HD
ENDROOT
BRANCH   1  18
ATOM     15  C   UNL     1       0.707  -0.490  -1.238  0.00  0.00    -0.042 A 
ATOM     16  C   UNL     1       0.033  -1.285  -2.147  0.00  0.00    +0.005 A 
ATOM     17  C   UNL     1       0.672  -1.733  -3.285  0.00  0.00    +0.013 A 
ATOM     18  C   UNL     1       2.003  -1.382  -3.517  0.00  0.00    +0.037 A 
ATOM     19  C   UNL     1       2.678  -0.580  -2.595  0.00  0.00    +0.013 A 
ATOM     20  C   UNL     1       2.025  -0.135  -1.464  0.00  0.00    +0.005 A 
BRANCH  15  22
ATOM     21  C   UNL     1      -0.019   1.526   0.010  0.00  0.00    +0.015 C 
ATOM     22  C   UNL     1       0.002  -0.004   0.002  0.00  0.00    -0.013 C 
ATOM     23  C   UNL     1       0.742  -0.511   1.242  0.00  0.00    +0.015 C 
ATOM     24  C   UNL     1      -1.433  -0.534   0.013  0.00  0.00    +0.015 C 
ENDBRANCH  15  22
ENDBRANCH   1  18
TORSDOF 2
