REMARK  Name = ZINC08047066
REMARK  8 active torsions:
REMARK  status: ('A' for Active; 'I' for Inactive)
REMARK    1  A    between atoms: C_1  and  C_2
REMARK    2  A    between atoms: C_4  and  C_27
REMARK    3  A    between atoms: N_11  and  C_12
REMARK    4  A    between atoms: C_12  and  C_13
REMARK    5  A    between atoms: C_16  and  O_19
REMARK    6  A    between atoms: O_19  and  C_20
REMARK    7  A    between atoms: C_20  and  C_21
REMARK    8  A    between atoms: C_20  and  C_22
REMARK                            x       y       z     vdW  Elec       q    Type
REMARK                         _______ _______ _______ _____ _____    ______ ____
ROOT
ATOM      1  C   UNL     1      -4.640   4.981   4.414  0.00  0.00    +0.044 C 
ATOM      2  C   UNL     1      -4.948   3.625   3.833  0.00  0.00    -0.050 A 
ATOM      3  C   UNL     1      -6.120   2.975   4.175  0.00  0.00    +0.008 A 
ATOM      4  C   UNL     1      -6.408   1.734   3.646  0.00  0.00    -0.028 A 
ATOM      5  C   UNL     1      -5.519   1.125   2.763  0.00  0.00    +0.048 A 
ATOM      6  C   UNL     1      -4.343   1.788   2.428  0.00  0.00    +0.042 A 
ATOM      7  C   UNL     1      -4.060   3.028   2.957  0.00  0.00    +0.014 A 
ATOM      8  C   UNL     1      -3.614   0.881   1.474  0.00  0.00    +0.278 C 
ATOM      9  C   UNL     1      -4.508  -0.323   1.328  0.00  0.00    +0.285 C 
ATOM     10  O   UNL     1      -4.297  -1.301   0.642  0.00  0.00    -0.269 OA
ATOM     11  N   UNL     1      -5.585  -0.104   2.105  0.00  0.00    -0.262 N 
ATOM     12  O   UNL     1      -2.327   0.505   2.000  0.00  0.00    -0.335 OA
ATOM     13  C   UNL     1      -1.605   0.081   0.817  0.00  0.00    +0.192 C 
ATOM     14  C   UNL     1      -2.123   1.041  -0.277  0.00  0.00    +0.192 C 
ATOM     15  O   UNL     1      -3.391   1.519   0.214  0.00  0.00    -0.335 OA
ATOM     16  C   UNL     1      -7.688   1.034   4.026  0.00  0.00    +0.046 C 
ENDROOT
BRANCH  11  17
ATOM     17  C   UNL     1      -6.698  -1.047   2.243  0.00  0.00    +0.149 C 
BRANCH  17  18
ATOM     18  C   UNL     1      -7.559  -0.993   1.008  0.00  0.00    -0.029 A 
ATOM     19  C   UNL     1      -8.487   0.021   0.857  0.00  0.00    +0.009 A 
ATOM     20  C   UNL     1      -9.274   0.075  -0.277  0.00  0.00    +0.046 A 
ATOM     21  C   UNL     1      -9.139  -0.894  -1.261  0.00  0.00    +0.121 A 
ATOM     22  C   UNL     1      -8.211  -1.913  -1.105  0.00  0.00    +0.046 A 
ATOM     23  C   UNL     1      -7.423  -1.960   0.029  0.00  0.00    +0.009 A 
BRANCH  21  24
ATOM     24  O   UNL     1      -9.916  -0.845  -2.375  0.00  0.00    -0.489 OA
BRANCH  24  25
ATOM     25  C   UNL     1      -9.713  -1.867  -3.352  0.00  0.00    +0.167 C 
ATOM     26  C   UNL     1     -10.443  -3.140  -2.918  0.00  0.00    +0.051 C 
ATOM     27  C   UNL     1     -10.261  -1.399  -4.702  0.00  0.00    +0.051 C 
ENDBRANCH  24  25
ENDBRANCH  21  24
ENDBRANCH  17  18
ENDBRANCH  11  17
TORSDOF 4
