REMARK  Name = ZINC38593370
REMARK  7 active torsions:
REMARK  status: ('A' for Active; 'I' for Inactive)
REMARK    1  A    between atoms: C_1  and  C_2
REMARK    2  A    between atoms: C_5  and  N_24
REMARK    3  A    between atoms: C_7  and  S_8
REMARK    4  A    between atoms: S_8  and  N_11
REMARK    5  A    between atoms: N_11  and  C_12
REMARK    6  A    between atoms: C_12  and  C_13
REMARK    7  A    between atoms: C_13  and  C_19
REMARK                            x       y       z     vdW  Elec       q    Type
REMARK                         _______ _______ _______ _____ _____    ______ ____
ROOT
ATOM      1  N   UNL     1       1.176   1.029   2.916  0.00  0.00    -0.189 NA
ATOM      2  H   UNL     1       1.889   0.846   3.548  0.00  0.00    +0.148 HD
ENDROOT
BRANCH   1   3
ATOM      3  S   UNL     1      -0.087  -0.031   2.762  0.00  0.00    +0.059 S 
ATOM      4  O   UNL     1      -1.277   0.742   2.841  0.00  0.00    -0.153 OA
ATOM      5  O   UNL     1       0.180  -1.111   3.646  0.00  0.00    -0.153 OA
BRANCH   3  12
ATOM      6  C   UNL     1       2.169  -1.752   1.713  0.00  0.00    +0.046 C 
ATOM      7  C   UNL     1       1.055  -1.465   0.740  0.00  0.00    -0.024 A 
ATOM      8  C   UNL     1       1.104  -1.984  -0.540  0.00  0.00    +0.007 A 
ATOM      9  C   UNL     1       0.082  -1.722  -1.433  0.00  0.00    +0.033 A 
ATOM     10  C   UNL     1      -0.990  -0.939  -1.046  0.00  0.00    +0.128 A 
ATOM     11  C   UNL     1      -1.040  -0.420   0.234  0.00  0.00    +0.061 A 
ATOM     12  C   UNL     1      -0.020  -0.687   1.129  0.00  0.00    +0.110 A 
BRANCH  10  13
ATOM     13  N   UNL     1      -2.084  -0.657  -2.002  0.00  0.00    +0.056 N 
ATOM     14  O   UNL     1      -2.039  -1.110  -3.122  0.00  0.00    -0.126 OA
ATOM     15  O   UNL     1      -3.021   0.027  -1.664  0.00  0.00    -0.126 OA
ENDBRANCH  10  13
ENDBRANCH   3  12
ENDBRANCH   1   3
BRANCH   1  16
ATOM     16  C   UNL     1       1.217   2.244   2.098  0.00  0.00    +0.118 C 
BRANCH  16  17
ATOM     17  C   UNL     1       2.207   3.237   2.709  0.00  0.00    +0.020 C 
ATOM     18  C   UNL     1       3.605   2.611   2.746  0.00  0.00    +0.041 C 
ATOM     19  C   UNL     1       4.068   2.333   1.313  0.00  0.00    +0.161 C 
ATOM     20  O   UNL     1       4.056   3.551   0.565  0.00  0.00    -0.380 OA
ATOM     21  C   UNL     1       2.767   4.157   0.457  0.00  0.00    +0.161 C 
ATOM     22  C   UNL     1       2.251   4.508   1.855  0.00  0.00    +0.041 C 
BRANCH  17  23
ATOM     23  C   UNL     1       1.772   3.586   4.109  0.00  0.00    -0.003 A 
ATOM     24  C   UNL     1       1.610   2.771   5.181  0.00  0.00    +0.012 A 
ATOM     25  C   UNL     1       1.199   3.317   6.382  0.00  0.00    +0.008 A 
ATOM     26  C   UNL     1       0.970   4.652   6.453  0.00  0.00    +0.045 A 
ATOM     27  S   UNL     1       1.345   5.180   4.790  0.00  0.00    -0.101 S 
ENDBRANCH  17  23
ENDBRANCH  16  17
ENDBRANCH   1  16
TORSDOF 6
