REMARK  Name = ZINC40569296
REMARK  6 active torsions:
REMARK  status: ('A' for Active; 'I' for Inactive)
REMARK    1  A    between atoms: C_1  and  C_2
REMARK    2  A    between atoms: C_2  and  C_3
REMARK    3  A    between atoms: C_3  and  C_4
REMARK    4  A    between atoms: C_11  and  C_19
REMARK    5  A    between atoms: C_13  and  C_17
REMARK    6  A    between atoms: C_14  and  N_16
REMARK                            x       y       z     vdW  Elec       q    Type
REMARK                         _______ _______ _______ _____ _____    ______ ____
ROOT
ATOM      1  C   UNL     1       0.739  -2.004  -1.265  0.00  0.00    +0.113 A 
ATOM      2  C   UNL     1      -0.217  -2.675  -1.937  0.00  0.00    +0.088 A 
ATOM      3  C   UNL     1      -0.203  -4.088  -1.949  0.00  0.00    +0.144 A 
ATOM      4  C   UNL     1       0.797  -4.747  -1.266  0.00  0.00    +0.092 A 
ATOM      5  C   UNL     1       1.764  -3.996  -0.585  0.00  0.00    +0.345 A 
ATOM      6  O   UNL     1       2.657  -4.561   0.025  0.00  0.00    -0.245 OA
ATOM      7  O   UNL     1       1.711  -2.653  -0.608  0.00  0.00    -0.427 OA
ATOM      8  C   UNL     1       0.857  -6.249  -1.250  0.00  0.00    +0.105 C 
ATOM      9  C   UNL     1      -0.461  -6.824  -1.692  0.00  0.00    +0.098 C 
ATOM     10  C   UNL     1      -1.376  -6.065  -2.340  0.00  0.00    +0.199 C 
ATOM     11  O   UNL     1      -1.156  -4.768  -2.619  0.00  0.00    -0.441 OA
ENDROOT
BRANCH   8  12
ATOM     12  C   UNL     1       1.942  -6.717  -2.185  0.00  0.00    -0.034 A 
ATOM     13  C   UNL     1       1.883  -6.393  -3.528  0.00  0.00    +0.007 A 
ATOM     14  C   UNL     1       2.878  -6.821  -4.386  0.00  0.00    +0.038 A 
ATOM     15  C   UNL     1       3.934  -7.574  -3.901  0.00  0.00    +0.123 A 
ATOM     16  C   UNL     1       3.991  -7.898  -2.556  0.00  0.00    +0.038 A 
ATOM     17  C   UNL     1       2.998  -7.464  -1.698  0.00  0.00    +0.007 A 
ATOM     18  F   UNL     1       4.907  -7.994  -4.739  0.00  0.00    -0.205 F 
ENDBRANCH   8  12
BRANCH  10  19
ATOM     19  N   UNL     1      -2.563  -6.636  -2.724  0.00  0.00    -0.328 N 
ATOM     20  H   UNL     1      -2.736  -7.571  -2.530  0.00  0.00    +0.145 HD
ATOM     21  H   UNL     1      -3.229  -6.106  -3.189  0.00  0.00    +0.145 HD
ENDBRANCH  10  19
BRANCH   9  22
ATOM     22  C   UNL     1      -0.753  -8.200  -1.423  0.00  0.00    +0.101 C 
ATOM     23  N   UNL     1      -0.985  -9.291  -1.210  0.00  0.00    -0.191 NA
ENDBRANCH   9  22
BRANCH   1  24
ATOM     24  C   UNL     1       0.718  -0.497  -1.257  0.00  0.00    +0.074 C 
BRANCH  24  26
ATOM     25  C   UNL     1      -0.019   1.526   0.010  0.00  0.00    +0.004 C 
ATOM     26  C   UNL     1       0.002  -0.004   0.002  0.00  0.00    +0.004 C 
ENDBRANCH  24  26
ENDBRANCH   1  24
TORSDOF 5
