REMARK  Name = ZINC12020071
REMARK  7 active torsions:
REMARK  status: ('A' for Active; 'I' for Inactive)
REMARK    1  A    between atoms: C_1  and  O_2
REMARK    2  A    between atoms: O_2  and  C_3
REMARK    3  A    between atoms: C_6  and  N_10
REMARK    4  A    between atoms: C_11  and  C_13
REMARK    5  A    between atoms: C_21  and  C_22
REMARK    6  A    between atoms: C_21  and  N_59
REMARK    7  A    between atoms: N_25  and  C_27
REMARK                            x       y       z     vdW  Elec       q    Type
REMARK                         _______ _______ _______ _____ _____    ______ ____
ROOT
ATOM      1  C   UNL     1       1.192  -0.690   0.167  0.00  0.00    +0.082 C 
ATOM      2  C   UNL     1       1.471  -1.351   1.518  0.00  0.00    +0.020 C 
ATOM      3  C   UNL     1       0.969  -2.191   0.345  0.00  0.00    -0.021 C 
ATOM      4  C   UNL     1       1.961  -3.145  -0.327  0.00  0.00    -0.011 C 
ATOM      5  C   UNL     1       1.401  -3.548  -1.696  0.00  0.00    -0.078 C 
ATOM      6  C   UNL     1      -0.892  -3.127  -1.017  0.00  0.00    -0.078 C 
ATOM      7  C   UNL     1      -0.476  -2.697   0.394  0.00  0.00    -0.011 C 
ATOM      8  N   UNL     1       0.062  -4.147  -1.506  0.00  0.00    +0.382 N 
ATOM      9  H   UNL     1       0.130  -4.898  -0.809  0.00  0.00    -0.081 HD
ENDROOT
BRANCH   1  11
ATOM     10  N   UNL     1      -0.291   0.839  -1.091  0.00  0.00    -0.285 N 
ATOM     11  C   UNL     1      -0.028   0.187   0.059  0.00  0.00    +0.221 C 
ATOM     12  O   UNL     1      -0.774   0.307   1.008  0.00  0.00    -0.275 OA
ATOM     13  H   UNL     1       0.343   0.802  -1.824  0.00  0.00    +0.155 HD
BRANCH  10  17
ATOM     14  C   UNL     1      -3.836   2.997  -1.500  0.00  0.00    +0.138 A 
ATOM     15  C   UNL     1      -3.811   1.843  -0.731  0.00  0.00    +0.049 A 
ATOM     16  C   UNL     1      -2.638   1.128  -0.596  0.00  0.00    +0.027 A 
ATOM     17  C   UNL     1      -1.482   1.564  -1.229  0.00  0.00    +0.035 A 
ATOM     18  C   UNL     1      -1.505   2.722  -1.994  0.00  0.00    +0.047 A 
ATOM     19  C   UNL     1      -2.681   3.434  -2.134  0.00  0.00    +0.084 A 
ATOM     20 CL   UNL     1      -2.712   4.879  -3.095  0.00  0.00    -0.080 Cl
BRANCH  14  22
ATOM     21  C   UNL     1      -6.142   3.194  -0.953  0.00  0.00    +0.277 C 
ATOM     22  O   UNL     1      -4.992   3.701  -1.633  0.00  0.00    -0.494 OA
ENDBRANCH  14  22
ENDBRANCH  10  17
ENDBRANCH   1  11
BRANCH   8  23
ATOM     23  C   UNL     1      -0.420  -4.718  -2.780  0.00  0.00    -0.040 C 
BRANCH  23  24
ATOM     24  C   UNL     1       0.679  -5.543  -3.397  0.00  0.00    -0.026 A 
ATOM     25  C   UNL     1       0.918  -6.902  -3.165  0.00  0.00    +0.136 A 
ATOM     26  N   UNL     1       1.955  -7.263  -3.877  0.00  0.00    -0.175 NA
ATOM     27  N   UNL     1       2.410  -6.145  -4.587  0.00  0.00    -0.240 N 
ATOM     28  C   UNL     1       1.606  -5.102  -4.279  0.00  0.00    +0.116 A 
BRANCH  27  29
ATOM     29  C   UNL     1       3.503  -6.113  -5.465  0.00  0.00    +0.066 A 
ATOM     30  C   UNL     1       3.843  -4.931  -6.109  0.00  0.00    +0.030 A 
ATOM     31  C   UNL     1       4.923  -4.901  -6.970  0.00  0.00    +0.040 A 
ATOM     32  C   UNL     1       5.660  -6.051  -7.198  0.00  0.00    +0.124 A 
ATOM     33  C   UNL     1       5.319  -7.232  -6.561  0.00  0.00    +0.040 A 
ATOM     34  C   UNL     1       4.243  -7.265  -5.695  0.00  0.00    +0.030 A 
ATOM     35  F   UNL     1       6.713  -6.021  -8.045  0.00  0.00    -0.205 F 
ENDBRANCH  27  29
ENDBRANCH  23  24
ENDBRANCH   8  23
TORSDOF 6
