REMARK  Name = ZINC07129294
REMARK  8 active torsions:
REMARK  status: ('A' for Active; 'I' for Inactive)
REMARK    1  A    between atoms: C_1  and  C_2
REMARK    2  A    between atoms: C_9  and  C_11
REMARK    3  A    between atoms: C_14  and  S_16
REMARK    4  A    between atoms: S_16  and  C_17
REMARK    5  A    between atoms: C_17  and  C_18
REMARK    6  A    between atoms: N_23  and  C_24
REMARK    7  A    between atoms: C_24  and  C_25
REMARK    8  A    between atoms: C_24  and  C_26
REMARK                            x       y       z     vdW  Elec       q    Type
REMARK                         _______ _______ _______ _____ _____    ______ ____
ROOT
ATOM      1  C   UNL     1      -0.438   2.221   4.995  0.00  0.00    +0.256 A 
ATOM      2  N   UNL     1       0.738   1.911   5.490  0.00  0.00    -0.106 NA
ATOM      3  N   UNL     1       0.751   2.163   6.752  0.00  0.00    -0.101 NA
ATOM      4  C   UNL     1      -0.417   2.635   7.116  0.00  0.00    +0.278 A 
ATOM      5  O   UNL     1      -1.195   2.683   6.016  0.00  0.00    -0.410 OA
ENDROOT
BRANCH   1  13
ATOM      6  C   UNL     1      -0.149   0.967  -2.482  0.00  0.00    +0.008 C 
ATOM      7  C   UNL     1      -0.758   1.595  -1.226  0.00  0.00    -0.009 C 
ATOM      8  C   UNL     1      -2.239   1.218  -1.137  0.00  0.00    +0.009 C 
ATOM      9  C   UNL     1      -2.897   2.062  -0.035  0.00  0.00    +0.043 C 
ATOM     10  C   UNL     1      -2.029   2.007   1.181  0.00  0.00    -0.006 A 
ATOM     11  C   UNL     1      -0.733   1.581   1.260  0.00  0.00    -0.036 A 
ATOM     12  C   UNL     1      -0.136   1.624   2.510  0.00  0.00    +0.024 A 
ATOM     13  C   UNL     1      -0.856   2.086   3.592  0.00  0.00    +0.076 A 
ATOM     14  S   UNL     1      -2.430   2.476   2.843  0.00  0.00    -0.088 S 
ATOM     15  C   UNL     1      -0.013   1.086   0.008  0.00  0.00    +0.039 C 
ENDBRANCH   1  13
BRANCH   4  16
ATOM     16  S   UNL     1      -0.885   3.119   8.744  0.00  0.00    -0.056 S 
BRANCH  16  17
ATOM     17  C   UNL     1       0.654   2.767   9.630  0.00  0.00    +0.175 C 
BRANCH  17  18
ATOM     18  C   UNL     1       0.486   3.115  11.087  0.00  0.00    +0.231 C 
ATOM     19  O   UNL     1      -0.571   3.556  11.486  0.00  0.00    -0.274 OA
ATOM     20  N   UNL     1       1.509   2.934  11.945  0.00  0.00    -0.239 N 
ATOM     21  C   UNL     1       1.358   3.245  13.248  0.00  0.00    +0.306 C 
ATOM     22  O   UNL     1       0.299   3.687  13.649  0.00  0.00    -0.252 OA
ATOM     23  N   UNL     1       2.381   3.065  14.106  0.00  0.00    -0.297 N 
ATOM     24  H   UNL     1       2.354   2.581  11.625  0.00  0.00    +0.159 HD
ATOM     25  H   UNL     1       3.226   2.712  13.787  0.00  0.00    +0.151 HD
BRANCH  23  26
ATOM     26  C   UNL     1       2.218   3.402  15.523  0.00  0.00    +0.068 C 
ATOM     27  C   UNL     1       3.197   2.577  16.360  0.00  0.00    +0.027 C 
ATOM     28  C   UNL     1       2.500   4.892  15.728  0.00  0.00    +0.027 C 
ENDBRANCH  23  26
ENDBRANCH  17  18
ENDBRANCH  16  17
ENDBRANCH   4  16
TORSDOF 5
