REMARK  Name = ZINC39591104
REMARK  5 active torsions:
REMARK  status: ('A' for Active; 'I' for Inactive)
REMARK    1  A    between atoms: C_1  and  C_2
REMARK    2  A    between atoms: C_4  and  C_8
REMARK    3  A    between atoms: C_12  and  S_24
REMARK    4  A    between atoms: N_14  and  N_15
REMARK    5  A    between atoms: C_16  and  C_17
REMARK                            x       y       z     vdW  Elec       q    Type
REMARK                         _______ _______ _______ _____ _____    ______ ____
ROOT
ATOM      1  C   UNL     1      -0.964  -2.951   1.248  0.00  0.00    +0.263 C 
ATOM      2  N   UNL     1      -2.422  -3.071   1.285  0.00  0.00    -0.163 NA
ATOM      3  N   UNL     1      -2.784  -4.246   1.277  0.00  0.00    -0.155 NA
ATOM      4  C   UNL     1      -1.647  -5.165   1.233  0.00  0.00    +0.288 C 
ATOM      5  N   UNL     1      -0.434  -4.325   1.214  0.00  0.00    -0.192 N 
ENDROOT
BRANCH   1   9
ATOM      6  C   UNL     1      -0.018   1.503   0.010  0.00  0.00    +0.067 C 
ATOM      7  C   UNL     1       0.002  -0.004   0.002  0.00  0.00    +0.058 C 
ATOM      8  C   UNL     1      -1.086  -0.777   0.003  0.00  0.00    +0.030 C 
ATOM      9  C   UNL     1      -0.531  -2.190  -0.007  0.00  0.00    +0.198 C 
ATOM     10  N   UNL     1       0.926  -1.973  -0.013  0.00  0.00    -0.176 NA
ATOM     11  N   UNL     1       1.125  -0.756  -0.013  0.00  0.00    -0.159 NA
ENDBRANCH   1   9
BRANCH   5  12
ATOM     12  N   UNL     1       0.904  -4.736   1.173  0.00  0.00    -0.187 NA
ATOM     13  C   UNL     1       1.194  -6.001   1.147  0.00  0.00    +0.141 C 
BRANCH  13  14
ATOM     14  C   UNL     1       2.603  -6.433   1.105  0.00  0.00    +0.030 A 
ATOM     15  C   UNL     1       2.919  -7.793   1.071  0.00  0.00    +0.012 A 
ATOM     16  C   UNL     1       4.239  -8.191   1.030  0.00  0.00    +0.001 A 
ATOM     17  C   UNL     1       5.251  -7.247   1.023  0.00  0.00    +0.003 A 
ATOM     18  C   UNL     1       4.948  -5.898   1.056  0.00  0.00    +0.039 A 
ATOM     19  C   UNL     1       3.630  -5.484   1.091  0.00  0.00    +0.132 A 
ATOM     20  F   UNL     1       3.334  -4.166   1.118  0.00  0.00    -0.205 F 
ENDBRANCH  13  14
ENDBRANCH   5  12
BRANCH   4  21
ATOM     21  S   UNL     1      -1.646  -6.226   2.704  0.00  0.00    -0.130 S 
ATOM     22  H   UNL     1      -2.806  -6.903   2.618  0.00  0.00    +0.105 HD
ENDBRANCH   4  21
TORSDOF 4
