REMARK  Name = ZINC62280838
REMARK  9 active torsions:
REMARK  status: ('A' for Active; 'I' for Inactive)
REMARK    1  A    between atoms: C_1  and  C_2
REMARK    2  A    between atoms: N_5  and  C_8
REMARK    3  A    between atoms: C_8  and  C_9
REMARK    4  A    between atoms: C_8  and  C_24
REMARK    5  A    between atoms: C_9  and  N_10
REMARK    6  A    between atoms: C_11  and  C_13
REMARK    7  A    between atoms: C_13  and  N_14
REMARK    8  A    between atoms: N_14  and  C_15
REMARK    9  A    between atoms: C_19  and  C_22
REMARK                            x       y       z     vdW  Elec       q    Type
REMARK                         _______ _______ _______ _____ _____    ______ ____
ROOT
ATOM      1  C   UNL     1      -2.199  -4.408   1.601  0.00  0.00    +0.093 C 
ENDROOT
BRANCH   1   2
ATOM      2  N   UNL     1      -2.242  -5.869   1.705  0.00  0.00    -0.315 N 
ATOM      3  C   UNL     1      -3.428  -6.505   1.770  0.00  0.00    +0.230 C 
ATOM      4  O   UNL     1      -4.460  -5.869   1.742  0.00  0.00    -0.274 OA
ATOM      5  H   UNL     1      -1.417  -6.378   1.727  0.00  0.00    +0.149 HD
BRANCH   3   6
ATOM      6  C   UNL     1      -3.472  -8.008   1.877  0.00  0.00    +0.201 C 
BRANCH   6   7
ATOM      7  N   UNL     1      -4.867  -8.453   1.931  0.00  0.00    -0.309 N 
ATOM      8  C   UNL     1      -5.585  -8.764   0.694  0.00  0.00    +0.131 C 
ATOM      9  C   UNL     1      -5.506  -8.579   3.155  0.00  0.00    +0.121 A 
ATOM     10  C   UNL     1      -4.852  -8.176   4.317  0.00  0.00    +0.045 A 
ATOM     11  C   UNL     1      -5.486  -8.302   5.523  0.00  0.00    +0.024 A 
ATOM     12  C   UNL     1      -6.783  -8.837   5.545  0.00  0.00    +0.070 A 
ATOM     13  C   UNL     1      -7.378  -9.220   4.341  0.00  0.00    +0.131 A 
ATOM     14  N   UNL     1      -6.734  -9.077   3.202  0.00  0.00    -0.239 NA
BRANCH  12  15
ATOM     15  C   UNL     1      -7.486  -8.988   6.783  0.00  0.00    +0.101 C 
ATOM     16  N   UNL     1      -8.044  -9.108   7.766  0.00  0.00    -0.191 NA
ENDBRANCH  12  15
ENDBRANCH   6   7
ENDBRANCH   3   6
ENDBRANCH   1   2
BRANCH   1  17
ATOM     17  C   UNL     1      -0.749  -3.951   1.434  0.00  0.00    -0.020 C 
BRANCH  17  22
ATOM     18  C   UNL     1      -0.069   1.426  -0.340  0.00  0.00    +0.007 C 
ATOM     19  C   UNL     1      -0.042  -0.101  -0.250  0.00  0.00    -0.018 C 
ATOM     20  C   UNL     1      -1.475  -0.634  -0.164  0.00  0.00    -0.015 C 
ATOM     21  C   UNL     1      -1.439  -2.154   0.005  0.00  0.00    -0.078 C 
ATOM     22  N   UNL     1      -0.714  -2.496   1.235  0.00  0.00    +0.385 N 
ATOM     23  C   UNL     1       0.681  -2.051   1.131  0.00  0.00    -0.078 C 
ATOM     24  C   UNL     1       0.727  -0.527   1.004  0.00  0.00    -0.015 C 
ATOM     25  H   UNL     1      -1.153  -2.040   2.021  0.00  0.00    -0.081 HD
ENDBRANCH  17  22
BRANCH  17  26
ATOM     26  C   UNL     1       0.036  -4.308   2.670  0.00  0.00    -0.059 A 
ATOM     27  C   UNL     1      -0.053  -3.514   3.799  0.00  0.00    +0.002 A 
ATOM     28  C   UNL     1       0.666  -3.841   4.933  0.00  0.00    +0.000 A 
ATOM     29  C   UNL     1       1.475  -4.962   4.938  0.00  0.00    +0.000 A 
ATOM     30  C   UNL     1       1.564  -5.756   3.810  0.00  0.00    +0.000 A 
ATOM     31  C   UNL     1       0.841  -5.431   2.678  0.00  0.00    +0.002 A 
ENDBRANCH  17  26
ENDBRANCH   1  17
TORSDOF 7
