REMARK  Name = ZINC40024794
REMARK  3 active torsions:
REMARK  status: ('A' for Active; 'I' for Inactive)
REMARK    1  A    between atoms: C_1  and  C_2
REMARK    2  A    between atoms: C_8  and  N_10
REMARK    3  A    between atoms: C_17  and  C_20
REMARK                            x       y       z     vdW  Elec       q    Type
REMARK                         _______ _______ _______ _____ _____    ______ ____
ROOT
ATOM      1  N   UNL     1       0.056  -0.038   2.447  0.00  0.00    -0.325 N 
ATOM      2  C   UNL     1       0.760   0.097   3.639  0.00  0.00    +0.140 A 
ATOM      3  C   UNL     1       0.090   0.547   4.794  0.00  0.00    +0.049 A 
ATOM      4  C   UNL     1       0.768   0.684   5.965  0.00  0.00    +0.053 A 
ATOM      5  C   UNL     1       2.140   0.371   6.003  0.00  0.00    +0.178 A 
ATOM      6  N   UNL     1       3.059   0.396   6.956  0.00  0.00    -0.128 NA
ATOM      7  N   UNL     1       4.185   0.007   6.469  0.00  0.00    -0.123 NA
ATOM      8  C   UNL     1       4.052  -0.283   5.198  0.00  0.00    +0.258 A 
ATOM      9  N   UNL     1       2.763  -0.066   4.861  0.00  0.00    -0.187 N 
ATOM     10  N   UNL     1       2.038  -0.200   3.675  0.00  0.00    -0.148 NA
ATOM     11  H   UNL     1      -0.888   0.180   2.413  0.00  0.00    +0.148 HD
ENDROOT
BRANCH   1  18
ATOM     12  C   UNL     1      -0.019   1.526   0.010  0.00  0.00    +0.009 C 
ATOM     13  C   UNL     1       0.002  -0.004   0.002  0.00  0.00    +0.006 C 
ATOM     14  C   UNL     1       0.718  -0.497  -1.257  0.00  0.00    +0.005 C 
ATOM     15  C   UNL     1       0.739  -2.027  -1.265  0.00  0.00    +0.000 C 
ATOM     16  C   UNL     1       1.479  -2.534  -0.026  0.00  0.00    +0.002 C 
ATOM     17  C   UNL     1       0.763  -2.041   1.233  0.00  0.00    +0.022 C 
ATOM     18  C   UNL     1       0.742  -0.511   1.242  0.00  0.00    +0.075 C 
ENDBRANCH   1  18
BRANCH   8  19
ATOM     19  C   UNL     1       5.142  -0.772   4.279  0.00  0.00    +0.454 C 
ATOM     20  F   UNL     1       6.236  -1.198   5.038  0.00  0.00    -0.163 F 
ATOM     21  F   UNL     1       4.662  -1.839   3.512  0.00  0.00    -0.163 F 
ATOM     22  F   UNL     1       5.539   0.269   3.432  0.00  0.00    -0.163 F 
ENDBRANCH   8  19
TORSDOF 2
