REMARK  Name = ZINC50824827
REMARK  6 active torsions:
REMARK  status: ('A' for Active; 'I' for Inactive)
REMARK    1  A    between atoms: C_1  and  C_2
REMARK    2  A    between atoms: N_7  and  C_10
REMARK    3  A    between atoms: C_12  and  C_13
REMARK    4  A    between atoms: C_13  and  O_15
REMARK    5  A    between atoms: O_15  and  C_16
REMARK    6  A    between atoms: C_19  and  C_22
REMARK                            x       y       z     vdW  Elec       q    Type
REMARK                         _______ _______ _______ _____ _____    ______ ____
ROOT
ATOM      1  C   UNL     1      -0.018   1.503   0.010  0.00  0.00    +0.046 C 
ATOM      2  C   UNL     1       0.002  -0.004   0.002  0.00  0.00    -0.015 A 
ATOM      3  C   UNL     1       0.005  -0.697  -1.210  0.00  0.00    +0.076 A 
ATOM      4  C   UNL     1       0.025  -2.108  -1.113  0.00  0.00    +0.116 A 
ATOM      5  N   UNL     1       0.029  -2.883  -2.189  0.00  0.00    -0.230 NA
ATOM      6  C   UNL     1       0.015  -2.382  -3.394  0.00  0.00    +0.203 A 
ATOM      7  N   UNL     1      -0.004  -1.044  -3.614  0.00  0.00    -0.302 N 
ATOM      8  C   UNL     1      -0.009  -0.166  -2.592  0.00  0.00    +0.262 A 
ATOM      9  O   UNL     1      -0.027   1.034  -2.800  0.00  0.00    -0.267 OA
ATOM     10  C   UNL     1      -0.018  -0.543  -4.990  0.00  0.00    +0.153 C 
ATOM     11  S   UNL     1       0.038  -2.396   0.639  0.00  0.00    -0.062 S 
ATOM     12  C   UNL     1       0.023  -0.695   1.179  0.00  0.00    +0.102 A 
ENDROOT
BRANCH  12  13
ATOM     13  C   UNL     1       0.030  -0.170   2.547  0.00  0.00    +0.346 C 
ATOM     14  O   UNL     1       0.015   1.031   2.737  0.00  0.00    -0.244 OA
BRANCH  13  15
ATOM     15  O   UNL     1       0.051  -1.019   3.595  0.00  0.00    -0.458 OA
BRANCH  15  16
ATOM     16  C   UNL     1       0.057  -0.438   4.900  0.00  0.00    +0.177 C 
ATOM     17  C   UNL     1       1.501  -0.211   5.352  0.00  0.00    +0.045 C 
ATOM     18  C   UNL     1       1.506   0.411   6.750  0.00  0.00    +0.007 C 
ATOM     19  C   UNL     1       0.807  -0.532   7.731  0.00  0.00    -0.014 C 
ATOM     20  C   UNL     1      -0.637  -0.759   7.279  0.00  0.00    +0.007 C 
ATOM     21  C   UNL     1      -0.642  -1.381   5.881  0.00  0.00    +0.045 C 
ATOM     22  C   UNL     1       0.813   0.090   9.128  0.00  0.00    +0.007 C 
ENDBRANCH  15  16
ENDBRANCH  13  15
ENDBRANCH  12  13
TORSDOF 3
