REMARK  Name = ZINC20603499
REMARK  7 active torsions:
REMARK  status: ('A' for Active; 'I' for Inactive)
REMARK    1  A    between atoms: C_1  and  C_2
REMARK    2  A    between atoms: C_2  and  C_3
REMARK    3  A    between atoms: C_3  and  N_4
REMARK    4  A    between atoms: C_13  and  O_14
REMARK    5  A    between atoms: C_15  and  N_16
REMARK    6  A    between atoms: N_16  and  S_17
REMARK    7  A    between atoms: S_17  and  C_20
REMARK                            x       y       z     vdW  Elec       q    Type
REMARK                         _______ _______ _______ _____ _____    ______ ____
ROOT
ATOM      1  N   UNL     1       3.727   3.356  -0.051  0.00  0.00    -0.382 N 
ATOM      2  C   UNL     1       2.462   3.916  -0.095  0.00  0.00    +0.076 A 
ATOM      3  C   UNL     1       1.315   3.158  -0.618  0.00  0.00    +0.042 A 
ATOM      4  C   UNL     1       1.469   1.850  -1.084  0.00  0.00    +0.013 A 
ATOM      5  C   UNL     1       0.375   1.166  -1.567  0.00  0.00    +0.001 A 
ATOM      6  C   UNL     1      -0.872   1.773  -1.597  0.00  0.00    +0.004 A 
ATOM      7  C   UNL     1      -1.038   3.062  -1.135  0.00  0.00    +0.047 A 
ATOM      8  C   UNL     1       0.051   3.769  -0.643  0.00  0.00    +0.141 A 
ATOM      9  O   UNL     1      -0.097   5.033  -0.192  0.00  0.00    -0.424 OA
ATOM     10  C   UNL     1       0.938   5.741   0.288  0.00  0.00    +0.310 A 
ATOM     11  C   UNL     1       2.237   5.205   0.350  0.00  0.00    +0.152 A 
ATOM     12  H   UNL     1       4.007   2.696   0.784  0.00  0.00    +0.160 HD
ENDROOT
BRANCH  10  13
ATOM     13  O   UNL     1       0.746   6.879   0.682  0.00  0.00    -0.479 OA
ATOM     14  H   UNL     1       1.583   7.472   1.079  0.00  0.00    +0.295 HD
ENDBRANCH  10  13
BRANCH  11  15
ATOM     15  N   UNL     1       3.298   5.976   0.859  0.00  0.00    -0.208 N 
ATOM     16  H   UNL     1       4.162   6.213   0.220  0.00  0.00    +0.174 HD
BRANCH  15  17
ATOM     17  S   UNL     1       3.248   6.525   2.420  0.00  0.00    +0.073 S 
ATOM     18  O   UNL     1       4.495   7.159   2.668  0.00  0.00    -0.150 OA
ATOM     19  O   UNL     1       2.006   7.200   2.574  0.00  0.00    -0.150 OA
BRANCH  17  20
ATOM     20  C   UNL     1       3.184   5.110   3.469  0.00  0.00    +0.109 A 
ATOM     21  C   UNL     1       1.968   4.525   3.766  0.00  0.00    +0.031 A 
ATOM     22  C   UNL     1       1.917   3.412   4.584  0.00  0.00    +0.040 A 
ATOM     23  C   UNL     1       3.085   2.890   5.115  0.00  0.00    +0.124 A 
ATOM     24  C   UNL     1       4.302   3.480   4.820  0.00  0.00    +0.040 A 
ATOM     25  C   UNL     1       4.351   4.590   3.997  0.00  0.00    +0.031 A 
ATOM     26  F   UNL     1       3.037   1.805   5.918  0.00  0.00    -0.205 F 
ENDBRANCH  17  20
ENDBRANCH  15  17
ENDBRANCH  11  15
BRANCH   1  27
ATOM     27  C   UNL     1       4.529   3.772  -1.209  0.00  0.00    +0.112 C 
BRANCH  27  29
ATOM     28  C   UNL     1       6.720   3.501  -2.377  0.00  0.00    +0.005 C 
ATOM     29  C   UNL     1       5.886   3.067  -1.171  0.00  0.00    +0.017 C 
ENDBRANCH  27  29
ENDBRANCH   1  27
TORSDOF 6
