REMARK  Name = ZINC01510079
REMARK  6 active torsions:
REMARK  status: ('A' for Active; 'I' for Inactive)
REMARK    1  A    between atoms: C_1  and  C_2
REMARK    2  A    between atoms: C_6  and  C_26
REMARK    3  A    between atoms: C_9  and  C_12
REMARK    4  A    between atoms: N_14  and  N_15
REMARK    5  A    between atoms: C_16  and  C_17
REMARK    6  A    between atoms: C_22  and  N_23
REMARK                            x       y       z     vdW  Elec       q    Type
REMARK                         _______ _______ _______ _____ _____    ______ ____
ROOT
ATOM      1  C   UNL     1      -2.870  -2.478   0.091  0.00  0.00    +0.238 C 
ATOM      2  O   UNL     1      -3.255  -3.174   1.008  0.00  0.00    -0.273 OA
ATOM      3  N   UNL     1      -3.701  -2.188  -0.929  0.00  0.00    -0.207 N 
ATOM      4  H   UNL     1      -3.393  -1.632  -1.662  0.00  0.00    +0.177 HD
ENDROOT
BRANCH   1  13
ATOM      5  C   UNL     1      -0.113   1.667   0.055  0.00  0.00    +0.011 C 
ATOM      6  C   UNL     1      -0.074   0.138   0.076  0.00  0.00    -0.030 C 
ATOM      7  C   UNL     1       0.669  -0.370  -1.162  0.00  0.00    +0.010 C 
ATOM      8  C   UNL     1       0.709  -1.899  -1.141  0.00  0.00    -0.009 C 
ATOM      9  C   UNL     1       1.434  -2.374   0.120  0.00  0.00    +0.010 C 
ATOM     10  C   UNL     1       0.692  -1.866   1.357  0.00  0.00    -0.030 C 
ATOM     11  C   UNL     1       0.652  -0.337   1.336  0.00  0.00    +0.013 C 
ATOM     12  C   UNL     1      -0.737  -2.414   1.354  0.00  0.00    +0.023 C 
ATOM     13  C   UNL     1      -1.463  -1.939   0.094  0.00  0.00    +0.050 C 
ATOM     14  C   UNL     1      -0.720  -2.447  -1.144  0.00  0.00    +0.019 C 
ATOM     15  C   UNL     1      -1.502  -0.410   0.073  0.00  0.00    +0.023 C 
ATOM     16  C   UNL     1       1.417  -2.341   2.618  0.00  0.00    +0.011 C 
ENDBRANCH   1  13
BRANCH   3  17
ATOM     17  N   UNL     1      -5.009  -2.689  -0.932  0.00  0.00    -0.188 NA
ATOM     18  C   UNL     1      -5.809  -2.409  -1.915  0.00  0.00    +0.140 C 
BRANCH  18  19
ATOM     19  C   UNL     1      -7.187  -2.937  -1.917  0.00  0.00    +0.025 A 
ATOM     20  C   UNL     1      -7.596  -3.835  -0.928  0.00  0.00    +0.012 A 
ATOM     21  C   UNL     1      -8.885  -4.325  -0.937  0.00  0.00    +0.001 A 
ATOM     22  C   UNL     1      -9.773  -3.928  -1.922  0.00  0.00    +0.002 A 
ATOM     23  C   UNL     1      -9.374  -3.039  -2.905  0.00  0.00    +0.033 A 
ATOM     24  C   UNL     1      -8.090  -2.536  -2.904  0.00  0.00    +0.135 A 
BRANCH  24  25
ATOM     25  N   UNL     1      -7.667  -1.580  -3.952  0.00  0.00    +0.057 N 
ATOM     26  O   UNL     1      -8.477  -1.150  -4.740  0.00  0.00    -0.126 OA
ATOM     27  O   UNL     1      -6.512  -1.228  -4.019  0.00  0.00    -0.126 OA
ENDBRANCH  24  25
ENDBRANCH  18  19
ENDBRANCH   3  17
TORSDOF 4
