REMARK  Name = ZINC40134664
REMARK  9 active torsions:
REMARK  status: ('A' for Active; 'I' for Inactive)
REMARK    1  A    between atoms: C_1  and  C_2
REMARK    2  A    between atoms: C_5  and  O_8
REMARK    3  A    between atoms: O_8  and  C_9
REMARK    4  A    between atoms: C_9  and  C_11
REMARK    5  A    between atoms: C_9  and  C_12
REMARK    6  A    between atoms: N_14  and  C_15
REMARK    7  A    between atoms: C_18  and  S_21
REMARK    8  A    between atoms: S_21  and  N_24
REMARK    9  A    between atoms: N_29  and  C_30
REMARK                            x       y       z     vdW  Elec       q    Type
REMARK                         _______ _______ _______ _____ _____    ______ ____
ROOT
ATOM      1  C   UNL     1       1.298  -8.407   2.403  0.00  0.00    +0.034 A 
ATOM      2  C   UNL     1       1.715  -8.994   1.215  0.00  0.00    +0.025 A 
ATOM      3  C   UNL     1       2.231 -10.275   1.224  0.00  0.00    +0.031 A 
ATOM      4  C   UNL     1       2.332 -10.973   2.413  0.00  0.00    +0.113 A 
ATOM      5  C   UNL     1       1.918 -10.392   3.597  0.00  0.00    +0.031 A 
ATOM      6  C   UNL     1       1.407  -9.109   3.596  0.00  0.00    +0.025 A 
ENDROOT
BRANCH   1   9
ATOM      7  C   UNL     1       0.988  -6.292   3.449  0.00  0.00    +0.258 C 
ATOM      8  O   UNL     1       1.709  -6.649   4.357  0.00  0.00    -0.271 OA
ATOM      9  N   UNL     1       0.775  -7.109   2.398  0.00  0.00    -0.282 N 
ATOM     10  H   UNL     1       0.259  -6.797   1.638  0.00  0.00    +0.155 HD
BRANCH   7  11
ATOM     11  C   UNL     1       0.332  -4.937   3.495  0.00  0.00    +0.256 C 
ATOM     12  C   UNL     1       0.781  -4.111   2.288  0.00  0.00    +0.062 C 
BRANCH  11  13
ATOM     13  O   UNL     1       0.709  -4.265   4.698  0.00  0.00    -0.480 OA
BRANCH  13  18
ATOM     14  C   UNL     1      -2.815  -0.325   6.641  0.00  0.00    +0.044 C 
ATOM     15  C   UNL     1      -1.872  -1.379   6.121  0.00  0.00    -0.050 A 
ATOM     16  C   UNL     1      -2.117  -1.984   4.902  0.00  0.00    +0.007 A 
ATOM     17  C   UNL     1      -1.254  -2.950   4.423  0.00  0.00    +0.046 A 
ATOM     18  C   UNL     1      -0.141  -3.314   5.167  0.00  0.00    +0.122 A 
ATOM     19  C   UNL     1       0.103  -2.705   6.389  0.00  0.00    +0.046 A 
ATOM     20  C   UNL     1      -0.760  -1.735   6.861  0.00  0.00    +0.007 A 
ENDBRANCH  13  18
ENDBRANCH  11  13
ENDBRANCH   7  11
ENDBRANCH   1   9
BRANCH   4  21
ATOM     21  S   UNL     1       2.991 -12.607   2.419  0.00  0.00    +0.100 S 
ATOM     22  O   UNL     1       2.475 -13.249   3.577  0.00  0.00    -0.146 OA
ATOM     23  O   UNL     1       2.800 -13.127   1.111  0.00  0.00    -0.146 OA
BRANCH  21  24
ATOM     24  N   UNL     1       4.627 -12.475   2.642  0.00  0.00    -0.118 NA
ATOM     25  C   UNL     1       5.361 -13.539   2.686  0.00  0.00    +0.119 C 
ATOM     26  C   UNL     1       4.868 -14.965   2.545  0.00  0.00    +0.075 C 
ATOM     27  C   UNL     1       5.890 -15.780   3.372  0.00  0.00    +0.026 C 
ATOM     28  C   UNL     1       7.152 -14.896   3.320  0.00  0.00    +0.106 C 
ATOM     29  N   UNL     1       6.719 -13.569   2.863  0.00  0.00    -0.320 N 
ATOM     30  C   UNL     1       7.614 -12.433   2.630  0.00  0.00    +0.130 C 
ENDBRANCH  21  24
ENDBRANCH   4  21
TORSDOF 6
