REMARK  Name = ZINC57453484
REMARK  10 active torsions:
REMARK  status: ('A' for Active; 'I' for Inactive)
REMARK    1  A    between atoms: C_3  and  O_11
REMARK    2  A    between atoms: C_6  and  C_7
REMARK    3  A    between atoms: O_11  and  C_12
REMARK    4  A    between atoms: C_12  and  C_13
REMARK    5  A    between atoms: C_13  and  C_15
REMARK    6  A    between atoms: C_13  and  O_29
REMARK    7  A    between atoms: C_15  and  N_16
REMARK    8  A    between atoms: C_17  and  C_19
REMARK    9  A    between atoms: C_22  and  N_28
REMARK   10  A    between atoms: C_23  and  N_25
REMARK                            x       y       z     vdW  Elec       q    Type
REMARK                         _______ _______ _______ _____ _____    ______ ____
ROOT
ATOM      1  C   UNL     1       7.225   1.548  -0.029  0.00  0.00    +0.139 C 
ENDROOT
BRANCH   1   2
ATOM      2  N   UNL     1       8.392   2.432   0.030  0.00  0.00    -0.309 N 
ATOM      3  C   UNL     1       9.593   1.939   0.393  0.00  0.00    +0.244 C 
ATOM      4  O   UNL     1       9.708   0.761   0.670  0.00  0.00    -0.270 OA
ATOM      5  H   UNL     1       8.300   3.372  -0.191  0.00  0.00    +0.149 HD
BRANCH   3   6
ATOM      6  C   UNL     1      10.768   2.830   0.453  0.00  0.00    +0.039 A 
ATOM      7  C   UNL     1      10.635   4.186   0.140  0.00  0.00    +0.015 A 
ATOM      8  C   UNL     1      11.733   5.014   0.197  0.00  0.00    +0.026 A 
ATOM      9  C   UNL     1      12.974   4.503   0.566  0.00  0.00    +0.055 A 
ATOM     10  C   UNL     1      13.109   3.153   0.878  0.00  0.00    +0.147 A 
ATOM     11  C   UNL     1      12.014   2.321   0.828  0.00  0.00    +0.047 A 
BRANCH  10  12
ATOM     12  N   UNL     1      14.431   2.613   1.269  0.00  0.00    +0.058 N 
ATOM     13  O   UNL     1      14.762   1.506   0.911  0.00  0.00    -0.126 OA
ATOM     14  O   UNL     1      15.179   3.278   1.946  0.00  0.00    -0.126 OA
ENDBRANCH  10  12
BRANCH   9  15
ATOM     15  N   UNL     1      14.081   5.342   0.623  0.00  0.00    -0.356 N 
ATOM     16  H   UNL     1      13.970   6.300   0.517  0.00  0.00    +0.142 HD
ATOM     17  H   UNL     1      14.965   4.969   0.767  0.00  0.00    +0.142 HD
ENDBRANCH   9  15
ENDBRANCH   3   6
ENDBRANCH   1   2
BRANCH   1  18
ATOM     18  C   UNL     1       5.998   2.351  -0.464  0.00  0.00    +0.169 C 
BRANCH  18  19
ATOM     19  O   UNL     1       6.185   2.821  -1.800  0.00  0.00    -0.387 OA
ATOM     20  H   UNL     1       6.310   2.116  -2.451  0.00  0.00    +0.210 HD
ENDBRANCH  18  19
BRANCH  18  21
ATOM     21  C   UNL     1       4.757   1.458  -0.406  0.00  0.00    +0.261 C 
BRANCH  21  22
ATOM     22  O   UNL     1       3.595   2.237  -0.699  0.00  0.00    -0.489 OA
BRANCH  22  25
ATOM     23  C   UNL     1       0.018   1.626  -0.955  0.00  0.00    +0.016 A 
ATOM     24  C   UNL     1       1.232   2.285  -0.965  0.00  0.00    +0.046 A 
ATOM     25  C   UNL     1       2.400   1.590  -0.689  0.00  0.00    +0.121 A 
ATOM     26  C   UNL     1       2.347   0.234  -0.404  0.00  0.00    +0.046 A 
ATOM     27  C   UNL     1       1.131  -0.421  -0.395  0.00  0.00    +0.016 A 
ATOM     28  C   UNL     1      -0.033   0.274  -0.670  0.00  0.00    +0.055 A 
BRANCH  28  29
ATOM     29  C   UNL     1      -1.358  -0.444  -0.660  0.00  0.00    +0.417 C 
ATOM     30  F   UNL     1      -1.630  -0.941  -1.939  0.00  0.00    -0.166 F 
ATOM     31  F   UNL     1      -1.307  -1.504   0.252  0.00  0.00    -0.166 F 
ATOM     32  F   UNL     1      -2.368   0.448  -0.282  0.00  0.00    -0.166 F 
ENDBRANCH  28  29
ENDBRANCH  22  25
ENDBRANCH  21  22
ENDBRANCH  18  21
ENDBRANCH   1  18
TORSDOF 10
