REMARK  Name = ZINC01618716
REMARK  7 active torsions:
REMARK  status: ('A' for Active; 'I' for Inactive)
REMARK    1  A    between atoms: C_1  and  C_2
REMARK    2  A    between atoms: C_2  and  C_3
REMARK    3  A    between atoms: C_2  and  C_4
REMARK    4  A    between atoms: C_2  and  N_5
REMARK    5  A    between atoms: N_5  and  S_10
REMARK    6  A    between atoms: N_8  and  C_9
REMARK    7  A    between atoms: S_10  and  C_13
REMARK                            x       y       z     vdW  Elec       q    Type
REMARK                         _______ _______ _______ _____ _____    ______ ____
ROOT
ATOM      1  N   UNL     1      -1.113   2.246  -1.168  0.00  0.00    -0.150 N 
ATOM      2  C   UNL     1      -1.061   3.550  -1.504  0.00  0.00    +0.322 C 
ATOM      3  O   UNL     1      -2.028   4.086  -2.010  0.00  0.00    -0.251 OA
ATOM      4  N   UNL     1       0.063   4.259  -1.279  0.00  0.00    -0.301 N 
ATOM      5  C   UNL     1       0.079   5.703  -1.526  0.00  0.00    +0.129 C 
ATOM      6  H   UNL     1       0.861   3.814  -0.954  0.00  0.00    +0.150 HD
ENDROOT
BRANCH   1   8
ATOM      7  C   UNL     1      -2.510   1.567  -3.057  0.00  0.00    +0.033 C 
ATOM      8  C   UNL     1      -2.272   1.436  -1.551  0.00  0.00    +0.053 C 
ATOM      9  C   UNL     1      -2.009  -0.030  -1.201  0.00  0.00    +0.033 C 
ATOM     10  C   UNL     1      -3.509   1.927  -0.795  0.00  0.00    +0.033 C 
ENDBRANCH   1   8
BRANCH   1  11
ATOM     11  S   UNL     1       0.134   1.558  -0.322  0.00  0.00    +0.078 S 
ATOM     12  O   UNL     1       0.769   2.610   0.391  0.00  0.00    -0.150 OA
ATOM     13  O   UNL     1      -0.399   0.411   0.326  0.00  0.00    -0.150 OA
BRANCH  11  14
ATOM     14  C   UNL     1       1.303   0.971  -1.503  0.00  0.00    +0.109 A 
ATOM     15  C   UNL     1       1.248  -0.340  -1.936  0.00  0.00    +0.030 A 
ATOM     16  C   UNL     1       2.161  -0.800  -2.866  0.00  0.00    +0.022 A 
ATOM     17  C   UNL     1       3.138   0.050  -3.355  0.00  0.00    +0.041 A 
ATOM     18  C   UNL     1       3.195   1.361  -2.916  0.00  0.00    +0.022 A 
ATOM     19  C   UNL     1       2.278   1.821  -1.990  0.00  0.00    +0.030 A 
ATOM     20 CL   UNL     1       4.289  -0.528  -4.518  0.00  0.00    -0.084 Cl
ENDBRANCH  11  14
ENDBRANCH   1  11
TORSDOF 3
