REMARK  Name = ZINC09133711
REMARK  8 active torsions:
REMARK  status: ('A' for Active; 'I' for Inactive)
REMARK    1  A    between atoms: C_1  and  C_2
REMARK    2  A    between atoms: C_2  and  O_3
REMARK    3  A    between atoms: O_3  and  C_4
REMARK    4  A    between atoms: C_4  and  C_6
REMARK    5  A    between atoms: C_14  and  N_15
REMARK    6  A    between atoms: C_16  and  C_18
REMARK    7  A    between atoms: C_24  and  O_27
REMARK    8  A    between atoms: O_27  and  C_28
REMARK                            x       y       z     vdW  Elec       q    Type
REMARK                         _______ _______ _______ _____ _____    ______ ____
ROOT
ATOM      1  N   UNL     1       1.140   2.155   0.003  0.00  0.00    -0.273 N 
ATOM      2  C   UNL     1      -0.018   1.465   0.010  0.00  0.00    +0.284 C 
ATOM      3  O   UNL     1      -1.079   2.059   0.018  0.00  0.00    -0.266 OA
ATOM      4  H   UNL     1       1.987   1.681  -0.008  0.00  0.00    +0.156 HD
ENDROOT
BRANCH   1  13
ATOM      5  C   UNL     1       2.197   4.408   0.010  0.00  0.00    +0.095 A 
ATOM      6  C   UNL     1       1.913   5.847   0.016  0.00  0.00    +0.005 A 
ATOM      7  C   UNL     1       2.833   6.919   0.013  0.00  0.00    +0.010 A 
ATOM      8  C   UNL     1       2.394   8.218   0.026  0.00  0.00    +0.001 A 
ATOM      9  C   UNL     1       1.040   8.520   0.041  0.00  0.00    +0.001 A 
ATOM     10  C   UNL     1       0.116   7.493   0.043  0.00  0.00    +0.016 A 
ATOM     11  C   UNL     1       0.548   6.184   0.031  0.00  0.00    +0.022 A 
ATOM     12  S   UNL     1      -0.291   4.620   0.030  0.00  0.00    -0.073 S 
ATOM     13  C   UNL     1       1.121   3.534   0.010  0.00  0.00    +0.087 A 
BRANCH   5  14
ATOM     14  C   UNL     1       3.529   3.927   0.002  0.00  0.00    +0.342 C 
ATOM     15  O   UNL     1       4.097   3.726  -1.056  0.00  0.00    -0.245 OA
BRANCH  14  16
ATOM     16  O   UNL     1       4.169   3.690   1.166  0.00  0.00    -0.461 OA
BRANCH  16  18
ATOM     17  C   UNL     1       6.067   2.998   2.492  0.00  0.00    +0.048 C 
ATOM     18  C   UNL     1       5.510   3.205   1.082  0.00  0.00    +0.229 C 
ENDBRANCH  16  18
ENDBRANCH  14  16
ENDBRANCH   5  14
ENDBRANCH   1  13
BRANCH   2  19
ATOM     19  C   UNL     1       0.002  -0.004   0.002  0.00  0.00    +0.191 A 
ATOM     20  C   UNL     1      -1.098  -0.801   0.008  0.00  0.00    +0.063 A 
ATOM     21  C   UNL     1      -0.602  -2.177  -0.004  0.00  0.00    +0.025 A 
ATOM     22  C   UNL     1      -1.215  -3.433  -0.006  0.00  0.00    +0.012 A 
ATOM     23  C   UNL     1      -0.448  -4.563  -0.018  0.00  0.00    +0.004 A 
ATOM     24  C   UNL     1       0.937  -4.474  -0.031  0.00  0.00    +0.049 A 
ATOM     25  C   UNL     1       1.565  -3.243  -0.031  0.00  0.00    +0.163 A 
ATOM     26  C   UNL     1       0.800  -2.076  -0.018  0.00  0.00    +0.177 A 
ATOM     27  O   UNL     1       1.116  -0.766  -0.019  0.00  0.00    -0.447 OA
BRANCH  25  28
ATOM     28  O   UNL     1       2.922  -3.169  -0.044  0.00  0.00    -0.491 OA
ATOM     29  C   UNL     1       3.639  -4.405  -0.058  0.00  0.00    +0.277 C 
ENDBRANCH  25  28
ENDBRANCH   2  19
TORSDOF 6
