REMARK  Name = ZINC03082819
REMARK  6 active torsions:
REMARK  status: ('A' for Active; 'I' for Inactive)
REMARK    1  A    between atoms: C_6  and  S_7
REMARK    2  A    between atoms: S_7  and  N_10
REMARK    3  A    between atoms: N_10  and  C_11
REMARK    4  A    between atoms: C_11  and  C_12
REMARK    5  A    between atoms: N_14  and  C_15
REMARK    6  A    between atoms: C_15  and  C_16
REMARK                            x       y       z     vdW  Elec       q    Type
REMARK                         _______ _______ _______ _____ _____    ______ ____
ROOT
ATOM      1  N   UNL     1      -0.897   1.885  -1.312  0.00  0.00    -0.181 NA
ATOM      2  H   UNL     1      -1.263   1.218  -1.913  0.00  0.00    +0.149 HD
ENDROOT
BRANCH   1   3
ATOM      3  S   UNL     1      -0.017   1.417   0.010  0.00  0.00    +0.059 S 
ATOM      4  O   UNL     1       0.002  -0.004   0.002  0.00  0.00    -0.153 OA
ATOM      5  O   UNL     1       1.172   2.195   0.003  0.00  0.00    -0.153 OA
BRANCH   3  11
ATOM      6  C   UNL     1      -0.717   3.145   2.004  0.00  0.00    +0.029 A 
ATOM      7  C   UNL     1      -1.435   3.526   3.122  0.00  0.00    +0.016 A 
ATOM      8  C   UNL     1      -2.354   2.659   3.682  0.00  0.00    +0.013 A 
ATOM      9  C   UNL     1      -2.560   1.412   3.121  0.00  0.00    +0.016 A 
ATOM     10  C   UNL     1      -1.846   1.033   2.000  0.00  0.00    +0.029 A 
ATOM     11  C   UNL     1      -0.927   1.900   1.439  0.00  0.00    +0.105 A 
ATOM     12  I   UNL     1      -3.437   3.234   5.381  0.00  0.00    -0.044 I 
ENDBRANCH   3  11
ENDBRANCH   1   3
BRANCH   1  13
ATOM     13  C   UNL     1      -1.125   3.309  -1.574  0.00  0.00    +0.201 C 
BRANCH  13  14
ATOM     14  C   UNL     1      -1.614   3.488  -2.988  0.00  0.00    +0.229 C 
ATOM     15  O   UNL     1      -1.759   2.522  -3.706  0.00  0.00    -0.274 OA
ATOM     16  N   UNL     1      -1.891   4.722  -3.454  0.00  0.00    -0.306 N 
ATOM     17  H   UNL     1      -1.775   5.495  -2.879  0.00  0.00    +0.149 HD
BRANCH  16  18
ATOM     18  C   UNL     1      -2.367   4.896  -4.829  0.00  0.00    +0.199 C 
BRANCH  18  19
ATOM     19  C   UNL     1      -2.601   6.360  -5.098  0.00  0.00    +0.228 C 
ATOM     20  O   UNL     1      -2.391   7.178  -4.227  0.00  0.00    -0.274 OA
ATOM     21  N   UNL     1      -3.043   6.761  -6.306  0.00  0.00    -0.328 N 
ATOM     22  H   UNL     1      -3.212   6.107  -7.002  0.00  0.00    +0.145 HD
ATOM     23  H   UNL     1      -3.194   7.703  -6.479  0.00  0.00    +0.145 HD
ENDBRANCH  18  19
ENDBRANCH  16  18
ENDBRANCH  13  14
ENDBRANCH   1  13
TORSDOF 6
