REMARK  Name = ZINC47240735
REMARK  3 active torsions:
REMARK  status: ('A' for Active; 'I' for Inactive)
REMARK    1  A    between atoms: C_6  and  N_7
REMARK    2  A    between atoms: C_8  and  C_10
REMARK    3  A    between atoms: C_13  and  N_15
REMARK                            x       y       z     vdW  Elec       q    Type
REMARK                         _______ _______ _______ _____ _____    ______ ____
ROOT
ATOM      1  N   UNL     1      -1.200  -0.722   0.010  0.00  0.00    -0.285 N 
ATOM      2  C   UNL     1      -1.185  -2.065  -0.099  0.00  0.00    +0.223 C 
ATOM      3  O   UNL     1      -0.128  -2.660  -0.113  0.00  0.00    -0.275 OA
ATOM      4  H   UNL     1      -2.045  -0.252   0.098  0.00  0.00    +0.155 HD
ENDROOT
BRANCH   1  10
ATOM      5  C   UNL     1       1.071  -0.454  -0.766  0.00  0.00    +0.026 A 
ATOM      6  C   UNL     1       2.256   0.256  -0.779  0.00  0.00    +0.041 A 
ATOM      7  C   UNL     1       2.379   1.415  -0.033  0.00  0.00    +0.142 A 
ATOM      8  C   UNL     1       1.313   1.867   0.729  0.00  0.00    +0.078 A 
ATOM      9  C   UNL     1       0.126   1.159   0.745  0.00  0.00    +0.046 A 
ATOM     10  C   UNL     1       0.002  -0.004  -0.004  0.00  0.00    +0.035 A 
ATOM     11 CL   UNL     1       1.469   3.321   1.665  0.00  0.00    -0.081 Cl
ATOM     12  F   UNL     1       3.539   2.107  -0.047  0.00  0.00    -0.204 F 
ENDBRANCH   1  10
BRANCH   2  13
ATOM     13  C   UNL     1      -2.480  -2.828  -0.204  0.00  0.00    +0.107 C 
ATOM     14  C   UNL     1      -2.878  -3.710   0.981  0.00  0.00    +0.047 C 
ATOM     15  C   UNL     1      -2.395  -4.351  -0.323  0.00  0.00    +0.182 C 
BRANCH  15  16
ATOM     16  N   UNL     1      -1.061  -4.956  -0.327  0.00  0.00    +0.026 N 
ATOM     17  O   UNL     1      -0.325  -4.803   0.620  0.00  0.00    -0.131 OA
ATOM     18  O   UNL     1      -0.696  -5.608  -1.277  0.00  0.00    -0.131 OA
ENDBRANCH  15  16
ENDBRANCH   2  13
TORSDOF 3
