REMARK  Name = ZINC51501471
REMARK  10 active torsions:
REMARK  status: ('A' for Active; 'I' for Inactive)
REMARK    1  A    between atoms: C_1  and  N_2
REMARK    2  A    between atoms: C_6  and  C_7
REMARK    3  A    between atoms: C_7  and  C_9
REMARK    4  A    between atoms: C_7  and  N_19
REMARK    5  A    between atoms: C_11  and  O_17
REMARK    6  A    between atoms: C_13  and  O_15
REMARK    7  A    between atoms: O_15  and  C_16
REMARK    8  A    between atoms: O_17  and  C_18
REMARK    9  A    between atoms: N_19  and  C_20
REMARK   10  A    between atoms: C_21  and  C_26
REMARK                            x       y       z     vdW  Elec       q    Type
REMARK                         _______ _______ _______ _____ _____    ______ ____
ROOT
ATOM      1  C   UNL     1       0.030  -0.354   2.521  0.00  0.00    +0.166 C 
ENDROOT
BRANCH   1   7
ATOM      2  C   UNL     1      -0.018   1.461   0.010  0.00  0.00    +0.150 C 
ATOM      3  N   UNL     1       0.002  -0.004   0.002  0.00  0.00    -0.337 N 
ATOM      4  C   UNL     1       0.009  -0.810  -1.104  0.00  0.00    +0.104 A 
ATOM      5  C   UNL     1       0.029  -2.081  -0.660  0.00  0.00    +0.102 A 
ATOM      6  N   UNL     1       0.034  -2.052   0.681  0.00  0.00    -0.348 N 
ATOM      7  C   UNL     1       0.023  -0.811   1.085  0.00  0.00    +0.112 A 
ATOM      8  H   UNL     1       0.048  -2.831   1.260  0.00  0.00    +0.167 HD
ENDBRANCH   1   7
BRANCH   1   9
ATOM      9  C   UNL     1       1.449  -0.300   3.024  0.00  0.00    -0.013 A 
ATOM     10  C   UNL     1       2.249   0.784   2.717  0.00  0.00    +0.051 A 
ATOM     11  C   UNL     1       3.557   0.836   3.179  0.00  0.00    +0.124 A 
ATOM     12  C   UNL     1       4.060  -0.200   3.950  0.00  0.00    +0.091 A 
ATOM     13  C   UNL     1       3.256  -1.287   4.257  0.00  0.00    +0.124 A 
ATOM     14  C   UNL     1       1.947  -1.332   3.797  0.00  0.00    +0.051 A 
BRANCH  13  15
ATOM     15  O   UNL     1       3.746  -2.305   5.012  0.00  0.00    -0.495 OA
ATOM     16  C   UNL     1       5.100  -2.189   5.455  0.00  0.00    +0.277 C 
ENDBRANCH  13  15
BRANCH  11  17
ATOM     17  O   UNL     1       4.343   1.902   2.876  0.00  0.00    -0.495 OA
ATOM     18  C   UNL     1       5.678   1.889   3.385  0.00  0.00    +0.277 C 
ENDBRANCH  11  17
ENDBRANCH   1   9
BRANCH   1  19
ATOM     19  N   UNL     1      -0.572   0.978   2.612  0.00  0.00    -0.323 N 
ATOM     20  H   UNL     1      -0.008   1.767   2.601  0.00  0.00    +0.148 HD
BRANCH  19  21
ATOM     21  C   UNL     1      -1.944   1.111   2.715  0.00  0.00    +0.105 A 
ATOM     22  C   UNL     1      -2.700   2.281   2.805  0.00  0.00    +0.118 A 
ATOM     23  C   UNL     1      -4.077   2.069   2.897  0.00  0.00    +0.157 A 
ATOM     24  N   UNL     1      -4.496   0.835   2.889  0.00  0.00    -0.196 NA
ATOM     25  S   UNL     1      -3.111  -0.093   2.753  0.00  0.00    +0.029 S 
ATOM     26 CL   UNL     1      -5.188   3.398   3.019  0.00  0.00    -0.060 Cl
BRANCH  22  27
ATOM     27  C   UNL     1      -2.114   3.588   2.804  0.00  0.00    +0.105 C 
ATOM     28  N   UNL     1      -1.649   4.624   2.804  0.00  0.00    -0.191 NA
ENDBRANCH  22  27
ENDBRANCH  19  21
ENDBRANCH   1  19
TORSDOF 7
