REMARK  Name = ZINC40071085
REMARK  7 active torsions:
REMARK  status: ('A' for Active; 'I' for Inactive)
REMARK    1  A    between atoms: C_4  and  C_7
REMARK    2  A    between atoms: C_7  and  N_8
REMARK    3  A    between atoms: C_14  and  N_19
REMARK    4  A    between atoms: C_15  and  C_16
REMARK    5  A    between atoms: C_20  and  C_22
REMARK    6  A    between atoms: C_22  and  C_23
REMARK    7  A    between atoms: C_23  and  C_24
REMARK                            x       y       z     vdW  Elec       q    Type
REMARK                         _______ _______ _______ _____ _____    ______ ____
ROOT
ATOM      1  N   UNL     1       4.153  -0.953   1.342  0.00  0.00    -0.293 NA
ATOM      2  C   UNL     1       5.533  -1.457   1.371  0.00  0.00    +0.090 C 
ATOM      3  C   UNL     1       6.103  -1.351   2.789  0.00  0.00    +0.052 C 
ATOM      4  C   UNL     1       5.113  -2.000   3.745  0.00  0.00    -0.021 A 
ATOM      5  C   UNL     1       3.836  -2.222   3.362  0.00  0.00    +0.010 A 
ATOM      6  S   UNL     1       3.072  -2.978   4.765  0.00  0.00    -0.076 S 
ATOM      7  C   UNL     1       4.378  -3.004   5.822  0.00  0.00    +0.084 A 
ATOM      8  C   UNL     1       5.412  -2.429   5.098  0.00  0.00    +0.068 A 
ATOM      9  C   UNL     1       3.239  -1.884   2.031  0.00  0.00    +0.127 C 
ENDROOT
BRANCH   8  10
ATOM     10  C   UNL     1       6.749  -2.263   5.675  0.00  0.00    +0.244 C 
ATOM     11  O   UNL     1       7.030  -1.243   6.277  0.00  0.00    -0.270 OA
ATOM     12  N   UNL     1       7.668  -3.239   5.539  0.00  0.00    -0.325 N 
ATOM     13  H   UNL     1       7.444  -4.052   5.059  0.00  0.00    +0.145 HD
ATOM     14  H   UNL     1       8.553  -3.129   5.921  0.00  0.00    +0.145 HD
ENDBRANCH   8  10
BRANCH   7  15
ATOM     15  N   UNL     1       4.413  -3.488   7.121  0.00  0.00    -0.279 N 
ATOM     16  C   UNL     1       3.304  -4.019   7.672  0.00  0.00    +0.218 C 
ATOM     17  O   UNL     1       2.275  -4.073   7.033  0.00  0.00    -0.275 OA
ATOM     18  H   UNL     1       5.236  -3.445   7.632  0.00  0.00    +0.155 HD
BRANCH  16  19
ATOM     19  C   UNL     1       3.343  -4.546   9.084  0.00  0.00    +0.101 C 
BRANCH  19  20
ATOM     20  C   UNL     1       1.964  -5.089   9.463  0.00  0.00    +0.051 C 
BRANCH  20  21
ATOM     21  C   UNL     1       2.002  -5.615  10.875  0.00  0.00    -0.010 A 
ATOM     22  C   UNL     1       1.744  -4.965  12.036  0.00  0.00    +0.011 A 
ATOM     23  C   UNL     1       1.842  -5.657  13.228  0.00  0.00    +0.008 A 
ATOM     24  C   UNL     1       2.193  -6.966  13.201  0.00  0.00    +0.045 A 
ATOM     25  S   UNL     1       2.392  -7.259  11.452  0.00  0.00    -0.102 S 
ENDBRANCH  20  21
ENDBRANCH  19  20
ENDBRANCH  16  19
ENDBRANCH   7  15
BRANCH   1  26
ATOM     26  C   UNL     1       3.711  -0.707  -0.038  0.00  0.00    +0.120 C 
BRANCH  26  30
ATOM     27  C   UNL     1      -0.017   1.378   0.010  0.00  0.00    +0.000 A 
ATOM     28  C   UNL     1       1.171   2.086   0.002  0.00  0.00    +0.000 A 
ATOM     29  C   UNL     1       2.377   1.411  -0.013  0.00  0.00    +0.005 A 
ATOM     30  C   UNL     1       2.396   0.029  -0.020  0.00  0.00    -0.033 A 
ATOM     31  C   UNL     1       1.208  -0.679  -0.012  0.00  0.00    +0.005 A 
ATOM     32  C   UNL     1       0.002  -0.004   0.002  0.00  0.00    +0.000 A 
ENDBRANCH  26  30
ENDBRANCH   1  26
TORSDOF 7
