REMARK  Name = ZINC14477496
REMARK  3 active torsions:
REMARK  status: ('A' for Active; 'I' for Inactive)
REMARK    1  A    between atoms: C_3  and  C_9
REMARK    2  A    between atoms: C_20  and  N_26
REMARK    3  A    between atoms: C_22  and  O_25
REMARK                            x       y       z     vdW  Elec       q    Type
REMARK                         _______ _______ _______ _____ _____    ______ ____
ROOT
ATOM      1  C   UNL     1       0.606  -0.384   1.338  0.00  0.00    +0.106 C 
ATOM      2  C   UNL     1       0.002  -0.004   0.002  0.00  0.00    +0.029 C 
ATOM      3  C   UNL     1      -1.503  -0.218  -0.194  0.00  0.00    +0.033 C 
ATOM      4  C   UNL     1      -1.840   0.889  -1.196  0.00  0.00    -0.030 C 
ATOM      5  C   UNL     1      -0.969   1.885  -1.080  0.00  0.00    -0.023 C 
ATOM      6  C   UNL     1      -0.019   1.556   0.011  0.00  0.00    +0.049 C 
ATOM      7  C   UNL     1       1.392   2.001  -0.001  0.00  0.00    -0.014 A 
ATOM      8  C   UNL     1       1.781   3.165  -0.631  0.00  0.00    +0.039 A 
ATOM      9  C   UNL     1       3.103   3.566  -0.615  0.00  0.00    +0.130 A 
ATOM     10  C   UNL     1       4.045   2.793   0.040  0.00  0.00    +0.080 A 
ATOM     11  C   UNL     1       3.667   1.623   0.669  0.00  0.00    +0.140 A 
ATOM     12  C   UNL     1       2.331   1.202   0.654  0.00  0.00    +0.074 A 
ATOM     13  N   UNL     1       2.026   0.001   1.296  0.00  0.00    -0.334 N 
ATOM     14  H   UNL     1       2.594  -0.754   0.941  0.00  0.00    +0.147 HD
ENDROOT
BRANCH   1  17
ATOM     15  C   UNL     1      -0.216   2.220   3.945  0.00  0.00    +0.020 A 
ATOM     16  C   UNL     1       0.430   1.538   2.931  0.00  0.00    +0.008 A 
ATOM     17  C   UNL     1      -0.096   0.355   2.448  0.00  0.00    -0.009 A 
ATOM     18  C   UNL     1      -1.265  -0.153   2.987  0.00  0.00    +0.047 A 
ATOM     19  C   UNL     1      -1.909   0.525   4.006  0.00  0.00    +0.040 A 
ATOM     20  C   UNL     1      -1.384   1.712   4.485  0.00  0.00    +0.042 A 
ATOM     21 CL   UNL     1      -2.191   2.565   5.764  0.00  0.00    -0.083 Cl
ATOM     22 CL   UNL     1      -1.923  -1.643   2.385  0.00  0.00    -0.083 Cl
ENDBRANCH   1  17
BRANCH   9  23
ATOM     23  N   UNL     1       3.510   4.816  -1.295  0.00  0.00    +0.057 N 
ATOM     24  O   UNL     1       2.678   5.495  -1.870  0.00  0.00    -0.126 OA
ATOM     25  O   UNL     1       4.676   5.166  -1.279  0.00  0.00    -0.126 OA
ENDBRANCH   9  23
BRANCH  11  26
ATOM     26  O   UNL     1       4.602   0.871   1.309  0.00  0.00    -0.505 OA
ATOM     27  H   UNL     1       5.022   0.204   0.748  0.00  0.00    +0.292 HD
ENDBRANCH  11  26
TORSDOF 3
