REMARK  Name = ZINC66733111
REMARK  7 active torsions:
REMARK  status: ('A' for Active; 'I' for Inactive)
REMARK    1  A    between atoms: C_1  and  C_2
REMARK    2  A    between atoms: C_4  and  N_9
REMARK    3  A    between atoms: C_6  and  C_8
REMARK    4  A    between atoms: C_13  and  O_16
REMARK    5  A    between atoms: O_16  and  C_17
REMARK    6  A    between atoms: C_17  and  C_19
REMARK    7  A    between atoms: C_20  and  C_21
REMARK                            x       y       z     vdW  Elec       q    Type
REMARK                         _______ _______ _______ _____ _____    ______ ____
ROOT
ATOM      1  N   UNL     1       0.030  -2.832  -2.322  0.00  0.00    -0.312 N 
ATOM      2  C   UNL     1       0.044  -4.300  -2.279  0.00  0.00    +0.107 C 
ATOM      3  C   UNL     1       1.214  -4.807  -3.129  0.00  0.00    +0.023 C 
ATOM      4  C   UNL     1       1.108  -4.220  -4.538  0.00  0.00    +0.048 C 
ATOM      5  C   UNL     1       1.190  -2.693  -4.464  0.00  0.00    +0.194 C 
ATOM      6  C   UNL     1       0.014  -2.163  -3.630  0.00  0.00    +0.151 C 
ENDROOT
BRANCH   1  10
ATOM      7  C   UNL     1      -0.452   1.464   0.034  0.00  0.00    +0.063 C 
ATOM      8  C   UNL     1      -0.204  -0.023   0.013  0.00  0.00    +0.017 A 
ATOM      9  C   UNL     1      -0.210  -0.716  -1.181  0.00  0.00    +0.064 A 
ATOM     10  C   UNL     1       0.026  -2.092  -1.150  0.00  0.00    +0.125 A 
ATOM     11  N   UNL     1       0.245  -2.681   0.022  0.00  0.00    -0.220 NA
ATOM     12  C   UNL     1       0.241  -1.980   1.137  0.00  0.00    +0.106 A 
ATOM     13  N   UNL     1       0.028  -0.680   1.141  0.00  0.00    -0.347 N 
ATOM     14  C   UNL     1       0.495  -2.684   2.445  0.00  0.00    +0.086 C 
ATOM     15  H   UNL     1       0.036  -0.197   1.982  0.00  0.00    +0.167 HD
ENDBRANCH   1  10
BRANCH   5  16
ATOM     16  O   UNL     1       1.122  -2.147  -5.783  0.00  0.00    -0.457 OA
BRANCH  16  17
ATOM     17  C   UNL     1       2.290  -1.974  -6.435  0.00  0.00    +0.332 C 
ATOM     18  O   UNL     1       3.338  -2.277  -5.897  0.00  0.00    -0.246 OA
BRANCH  17  19
ATOM     19  C   UNL     1       2.297  -1.437  -7.747  0.00  0.00    +0.092 C 
ATOM     20  C   UNL     1       3.467  -1.262  -8.400  0.00  0.00    +0.015 C 
BRANCH  20  21
ATOM     21  C   UNL     1       3.474  -0.706  -9.760  0.00  0.00    -0.024 A 
ATOM     22  C   UNL     1       2.272  -0.348 -10.383  0.00  0.00    +0.011 A 
ATOM     23  C   UNL     1       2.282   0.176 -11.653  0.00  0.00    +0.046 A 
ATOM     24  C   UNL     1       3.487   0.356 -12.335  0.00  0.00    +0.124 A 
ATOM     25  C   UNL     1       4.678  -0.008 -11.714  0.00  0.00    -0.002 A 
ATOM     26  C   UNL     1       4.683  -0.522 -10.442  0.00  0.00    +0.015 A 
ATOM     27  C   UNL     1       5.796   0.279 -12.698  0.00  0.00    +0.080 C 
ATOM     28  C   UNL     1       5.018   0.455 -14.024  0.00  0.00    +0.234 C 
ATOM     29  O   UNL     1       3.715   0.863 -13.577  0.00  0.00    -0.491 OA
ENDBRANCH  20  21
ENDBRANCH  17  19
ENDBRANCH  16  17
ENDBRANCH   5  16
TORSDOF 5
