REMARK  Name = ZINC00333976
REMARK  3 active torsions:
REMARK  status: ('A' for Active; 'I' for Inactive)
REMARK    1  A    between atoms: C_6  and  C_7
REMARK    2  A    between atoms: C_8  and  C_17
REMARK    3  A    between atoms: C_11  and  O_16
REMARK                            x       y       z     vdW  Elec       q    Type
REMARK                         _______ _______ _______ _____ _____    ______ ____
ROOT
ATOM      1  C   UNL     1       3.290   2.608  -0.227  0.00  0.00    +0.146 A 
ATOM      2  C   UNL     1       2.621   1.413   0.017  0.00  0.00    +0.068 A 
ATOM      3  C   UNL     1       1.212   1.793   0.243  0.00  0.00    +0.034 A 
ATOM      4  C   UNL     1       0.054   1.077   0.532  0.00  0.00    +0.057 A 
ATOM      5  C   UNL     1      -1.145   1.749   0.684  0.00  0.00    +0.118 A 
ATOM      6  C   UNL     1      -1.188   3.134   0.561  0.00  0.00    +0.049 A 
ATOM      7  C   UNL     1      -0.044   3.848   0.275  0.00  0.00    +0.050 A 
ATOM      8  C   UNL     1       1.168   3.188   0.113  0.00  0.00    +0.137 A 
ATOM      9  O   UNL     1       2.416   3.624  -0.165  0.00  0.00    -0.454 OA
ENDROOT
BRANCH   1  15
ATOM     10  C   UNL     1       5.514   3.631   0.227  0.00  0.00    +0.013 A 
ATOM     11  C   UNL     1       6.861   3.744  -0.041  0.00  0.00    +0.021 A 
ATOM     12  C   UNL     1       7.438   2.982  -1.044  0.00  0.00    +0.041 A 
ATOM     13  C   UNL     1       6.667   2.099  -1.782  0.00  0.00    +0.021 A 
ATOM     14  C   UNL     1       5.319   1.972  -1.522  0.00  0.00    +0.013 A 
ATOM     15  C   UNL     1       4.731   2.738  -0.510  0.00  0.00    +0.018 A 
ATOM     16 CL   UNL     1       9.134   3.135  -1.379  0.00  0.00    -0.084 Cl
ENDBRANCH   1  15
BRANCH   5  17
ATOM     17  O   UNL     1      -2.282   1.056   0.961  0.00  0.00    -0.507 OA
ATOM     18  H   UNL     1      -2.453   0.942   1.905  0.00  0.00    +0.292 HD
ENDBRANCH   5  17
BRANCH   2  19
ATOM     19  C   UNL     1       3.173   0.112   0.043  0.00  0.00    +0.263 C 
ATOM     20  O   UNL     1       4.373  -0.041  -0.067  0.00  0.00    -0.296 OA
ENDBRANCH   2  19
TORSDOF 3
