REMARK  Name = ZINC39951538
REMARK  9 active torsions:
REMARK  status: ('A' for Active; 'I' for Inactive)
REMARK    1  A    between atoms: C_1  and  C_2
REMARK    2  A    between atoms: C_2  and  C_3
REMARK    3  A    between atoms: C_3  and  C_4
REMARK    4  A    between atoms: C_4  and  N_5
REMARK    5  A    between atoms: C_7  and  C_37
REMARK    6  A    between atoms: C_12  and  C_15
REMARK    7  A    between atoms: C_16  and  C_18
REMARK    8  A    between atoms: C_24  and  C_25
REMARK    9  A    between atoms: C_24  and  C_31
REMARK                            x       y       z     vdW  Elec       q    Type
REMARK                         _______ _______ _______ _____ _____    ______ ____
ROOT
ATOM      1  N   UNL     1       1.384  -0.858   2.691  0.00  0.00    +0.380 N 
ATOM      2  C   UNL     1       1.281  -2.293   2.431  0.00  0.00    -0.072 C 
ATOM      3  C   UNL     1       2.065  -3.140   3.413  0.00  0.00    -0.045 C 
ATOM      4  C   UNL     1       1.330  -3.364   4.720  0.00  0.00    +0.024 C 
ATOM      5  C   UNL     1       1.058  -2.084   5.479  0.00  0.00    +0.108 C 
ATOM      6  N   UNL     1       2.215  -1.366   5.932  0.00  0.00    -0.301 N 
ATOM      7  C   UNL     1       3.194  -0.645   5.170  0.00  0.00    +0.112 C 
ATOM      8  C   UNL     1       3.551  -1.143   3.804  0.00  0.00    -0.031 C 
ATOM      9  C   UNL     1       3.478  -2.644   3.651  0.00  0.00    +0.011 C 
ATOM     10  C   UNL     1       2.788  -0.432   2.695  0.00  0.00    -0.071 C 
ATOM     11  C   UNL     1       5.025  -0.777   3.593  0.00  0.00    +0.011 C 
ATOM     12  C   UNL     1       2.410  -1.365   7.276  0.00  0.00    +0.224 C 
ATOM     13  O   UNL     1       3.380  -0.812   7.748  0.00  0.00    -0.275 OA
ATOM     14  C   UNL     1       2.205  -4.529   2.766  0.00  0.00    +0.009 C 
ATOM     15  H   UNL     1       0.959  -0.619   3.571  0.00  0.00    -0.082 HD
ENDROOT
BRANCH  12  16
ATOM     16  C   UNL     1       1.420  -2.053   8.181  0.00  0.00    +0.139 C 
ATOM     17  C   UNL     1       0.423  -1.031   8.784  0.00  0.00    +0.138 C 
ATOM     18  C   UNL     1       0.316  -1.512  10.228  0.00  0.00    +0.309 C 
ATOM     19  O   UNL     1      -0.670  -1.539  10.926  0.00  0.00    -0.251 OA
ATOM     20  O   UNL     1       1.572  -1.902  10.556  0.00  0.00    -0.448 OA
ATOM     21  C   UNL     1       2.125  -2.620   9.434  0.00  0.00    +0.175 C 
BRANCH  21  22
ATOM     22  C   UNL     1       1.841  -4.094   9.566  0.00  0.00    +0.001 A 
ATOM     23  C   UNL     1       1.627  -4.861   8.436  0.00  0.00    +0.008 A 
ATOM     24  C   UNL     1       1.366  -6.213   8.557  0.00  0.00    +0.000 A 
ATOM     25  C   UNL     1       1.321  -6.799   9.809  0.00  0.00    +0.000 A 
ATOM     26  C   UNL     1       1.536  -6.032  10.939  0.00  0.00    +0.000 A 
ATOM     27  C   UNL     1       1.800  -4.681  10.817  0.00  0.00    +0.008 A 
ENDBRANCH  21  22
BRANCH  21  28
ATOM     28  C   UNL     1       3.610  -2.383   9.345  0.00  0.00    +0.001 A 
ATOM     29  C   UNL     1       4.209  -1.437  10.156  0.00  0.00    +0.008 A 
ATOM     30  C   UNL     1       5.572  -1.220  10.075  0.00  0.00    +0.000 A 
ATOM     31  C   UNL     1       6.336  -1.948   9.183  0.00  0.00    +0.000 A 
ATOM     32  C   UNL     1       5.737  -2.895   8.373  0.00  0.00    +0.000 A 
ATOM     33  C   UNL     1       4.375  -3.115   8.457  0.00  0.00    +0.008 A 
ENDBRANCH  21  28
ENDBRANCH  12  16
BRANCH   1  34
ATOM     34  C   UNL     1       0.670  -0.126   1.626  0.00  0.00    -0.079 C 
BRANCH  34  35
ATOM     35  C   UNL     1       0.647   1.367   1.961  0.00  0.00    -0.019 C 
BRANCH  35  37
ATOM     36  C   UNL     1      -0.116   3.618   1.192  0.00  0.00    +0.004 C 
ATOM     37  C   UNL     1      -0.093   2.126   0.858  0.00  0.00    -0.005 C 
ENDBRANCH  35  37
ENDBRANCH  34  35
ENDBRANCH   1  34
TORSDOF 6
