REMARK  Name = ZINC67370759
REMARK  3 active torsions:
REMARK  status: ('A' for Active; 'I' for Inactive)
REMARK    1  A    between atoms: C_1  and  N_2
REMARK    2  A    between atoms: N_2  and  C_3
REMARK    3  A    between atoms: C_3  and  C_4
REMARK                            x       y       z     vdW  Elec       q    Type
REMARK                         _______ _______ _______ _____ _____    ______ ____
ROOT
ATOM      1  C   UNL     1       0.024  -0.743   1.267  0.00  0.00    +0.184 C 
ENDROOT
BRANCH   1   3
ATOM      2  C   UNL     1      -0.018   1.461   0.010  0.00  0.00    +0.132 C 
ATOM      3  N   UNL     1       0.002  -0.004   0.002  0.00  0.00    -0.295 N 
ATOM      4  C   UNL     1       0.000  -0.690  -1.201  0.00  0.00    +0.218 A 
ATOM      5  N   UNL     1       0.013  -2.014  -1.190  0.00  0.00    -0.222 NA
ATOM      6  C   UNL     1       0.011  -2.700  -2.321  0.00  0.00    +0.131 A 
ATOM      7  C   UNL     1      -0.004  -2.016  -3.527  0.00  0.00    +0.054 A 
ATOM      8  C   UNL     1      -0.017  -0.629  -3.501  0.00  0.00    +0.131 A 
ATOM      9  N   UNL     1      -0.020  -0.005  -2.335  0.00  0.00    -0.222 NA
ATOM     10 BR   UNL     1      -0.006  -2.953  -5.169  0.00  0.00    -0.047 Br
ENDBRANCH   1   3
BRANCH   1  11
ATOM     11  C   UNL     1      -1.389  -1.016   1.714  0.00  0.00    +0.155 A 
ATOM     12  N   UNL     1      -2.123  -0.243   2.471  0.00  0.00    -0.132 NA
ATOM     13  N   UNL     1      -3.281  -0.773   2.661  0.00  0.00    -0.129 NA
ATOM     14  C   UNL     1      -3.345  -1.931   2.024  0.00  0.00    +0.161 A 
ATOM     15  N   UNL     1      -2.136  -2.109   1.399  0.00  0.00    -0.285 N 
ATOM     16  C   UNL     1      -1.902  -3.225   0.650  0.00  0.00    +0.094 A 
ATOM     17  C   UNL     1      -2.857  -4.169   0.511  0.00  0.00    +0.018 A 
ATOM     18  C   UNL     1      -4.106  -4.013   1.136  0.00  0.00    +0.005 A 
ATOM     19  C   UNL     1      -4.350  -2.909   1.892  0.00  0.00    +0.048 A 
ENDBRANCH   1  11
TORSDOF 2
