REMARK  Name = ZINC40384917
REMARK  7 active torsions:
REMARK  status: ('A' for Active; 'I' for Inactive)
REMARK    1  A    between atoms: C_1  and  C_2
REMARK    2  A    between atoms: C_2  and  O_3
REMARK    3  A    between atoms: O_3  and  C_4
REMARK    4  A    between atoms: C_4  and  C_6
REMARK    5  A    between atoms: C_13  and  C_15
REMARK    6  A    between atoms: N_28  and  C_31
REMARK    7  A    between atoms: C_31  and  C_32
REMARK                            x       y       z     vdW  Elec       q    Type
REMARK                         _______ _______ _______ _____ _____    ______ ____
ROOT
ATOM      1  C   UNL     1       2.491  -5.760  -5.668  0.00  0.00    +0.098 C 
ATOM      2  C   UNL     1       2.901  -4.538  -6.489  0.00  0.00    +0.051 C 
ATOM      3  C   UNL     1       1.669  -3.874  -7.048  0.00  0.00    -0.026 A 
ATOM      4  C   UNL     1       1.707  -2.524  -7.351  0.00  0.00    +0.005 A 
ATOM      5  C   UNL     1       0.587  -1.895  -7.860  0.00  0.00    +0.000 A 
ATOM      6  C   UNL     1      -0.577  -2.613  -8.068  0.00  0.00    +0.002 A 
ATOM      7  C   UNL     1      -0.620  -3.960  -7.770  0.00  0.00    +0.023 A 
ATOM      8  C   UNL     1       0.508  -4.596  -7.260  0.00  0.00    +0.033 A 
ATOM      9  N   UNL     1       0.436  -5.970  -6.978  0.00  0.00    -0.329 N 
ATOM     10  C   UNL     1       1.620  -6.684  -6.526  0.00  0.00    +0.069 C 
ATOM     11  C   UNL     1       1.303  -7.940  -5.731  0.00  0.00    -0.055 C 
ATOM     12  N   UNL     1       0.150  -8.655  -6.277  0.00  0.00    +0.385 N 
ATOM     13  C   UNL     1      -1.031  -7.783  -6.199  0.00  0.00    -0.059 C 
ATOM     14  C   UNL     1      -0.851  -6.636  -7.190  0.00  0.00    +0.087 C 
ATOM     15  H   UNL     1       0.328  -8.898  -7.240  0.00  0.00    -0.081 HD
ENDROOT
BRANCH   1  22
ATOM     16  C   UNL     1       4.232  -5.677  -2.015  0.00  0.00    +0.115 C 
ATOM     17  C   UNL     1       3.566  -5.016  -0.806  0.00  0.00    +0.018 C 
ATOM     18  C   UNL     1       2.044  -5.099  -0.951  0.00  0.00    +0.020 C 
ATOM     19  C   UNL     1       1.614  -4.344  -2.212  0.00  0.00    +0.108 C 
ATOM     20  N   UNL     1       2.360  -4.878  -3.360  0.00  0.00    -0.300 N 
ATOM     21  C   UNL     1       3.826  -4.929  -3.289  0.00  0.00    +0.122 C 
ATOM     22  C   UNL     1       1.711  -5.313  -4.459  0.00  0.00    +0.221 C 
ATOM     23  O   UNL     1       0.498  -5.345  -4.474  0.00  0.00    -0.275 OA
BRANCH  16  24
ATOM     24  C   UNL     1       5.730  -5.623  -1.855  0.00  0.00    +0.312 C 
ATOM     25  O   UNL     1       6.404  -5.048  -2.676  0.00  0.00    -0.250 OA
BRANCH  24  26
ATOM     26  O   UNL     1       6.314  -6.214  -0.801  0.00  0.00    -0.465 OA
BRANCH  26  28
ATOM     27  C   UNL     1       8.218  -6.852   0.544  0.00  0.00    +0.048 C 
ATOM     28  C   UNL     1       7.737  -6.124  -0.714  0.00  0.00    +0.229 C 
ENDBRANCH  26  28
ENDBRANCH  24  26
ENDBRANCH  16  24
ENDBRANCH   1  22
BRANCH  12  29
ATOM     29  C   UNL     1      -0.087  -9.876  -5.495  0.00  0.00    -0.043 C 
BRANCH  29  30
ATOM     30  C   UNL     1      -1.196 -10.673  -6.132  0.00  0.00    -0.064 A 
ATOM     31  C   UNL     1      -2.509 -10.450  -5.760  0.00  0.00    +0.004 A 
ATOM     32  C   UNL     1      -3.526 -11.180  -6.343  0.00  0.00    +0.038 A 
ATOM     33  C   UNL     1      -3.231 -12.136  -7.301  0.00  0.00    +0.123 A 
ATOM     34  C   UNL     1      -1.916 -12.358  -7.673  0.00  0.00    +0.038 A 
ATOM     35  C   UNL     1      -0.900 -11.623  -7.092  0.00  0.00    +0.004 A 
ATOM     36  F   UNL     1      -4.225 -12.850  -7.872  0.00  0.00    -0.205 F 
ENDBRANCH  29  30
ENDBRANCH  12  29
TORSDOF 6
