REMARK  Name = ZINC19907530
REMARK  6 active torsions:
REMARK  status: ('A' for Active; 'I' for Inactive)
REMARK    1  A    between atoms: C_1  and  C_2
REMARK    2  A    between atoms: C_7  and  N_12
REMARK    3  A    between atoms: C_9  and  C_11
REMARK    4  A    between atoms: C_13  and  N_23
REMARK    5  A    between atoms: N_23  and  C_24
REMARK    6  A    between atoms: C_27  and  N_30
REMARK                            x       y       z     vdW  Elec       q    Type
REMARK                         _______ _______ _______ _____ _____    ______ ____
ROOT
ATOM      1  N   UNL     1      -2.009   1.861   1.009  0.00  0.00    -0.272 N 
ATOM      2  C   UNL     1      -1.284   1.642  -0.252  0.00  0.00    +0.189 C 
ATOM      3  C   UNL     1      -2.178   0.766  -1.087  0.00  0.00    -0.024 C 
ATOM      4  C   UNL     1      -3.278   0.523  -0.374  0.00  0.00    +0.017 C 
ATOM      5  C   UNL     1      -3.178   1.198   0.922  0.00  0.00    +0.245 C 
ATOM      6  O   UNL     1      -4.026   1.163   1.793  0.00  0.00    -0.270 OA
ATOM      7  C   UNL     1      -4.429  -0.324  -0.867  0.00  0.00    +0.040 C 
ATOM      8  C   UNL     1      -4.310  -0.470  -2.388  0.00  0.00    +0.005 C 
ATOM      9  C   UNL     1      -2.889  -0.913  -2.748  0.00  0.00    +0.005 C 
ATOM     10  C   UNL     1      -1.915   0.239  -2.474  0.00  0.00    +0.035 C 
ENDROOT
BRANCH   1  16
ATOM     11  C   UNL     1      -3.034   5.760   3.871  0.00  0.00    +0.008 C 
ATOM     12  C   UNL     1      -2.046   4.622   3.606  0.00  0.00    -0.009 C 
ATOM     13  C   UNL     1      -1.954   3.728   4.845  0.00  0.00    +0.003 C 
ATOM     14  C   UNL     1      -0.966   2.590   4.580  0.00  0.00    +0.002 C 
ATOM     15  C   UNL     1      -1.451   1.761   3.388  0.00  0.00    +0.023 C 
ATOM     16  C   UNL     1      -1.544   2.655   2.150  0.00  0.00    +0.082 C 
ATOM     17  C   UNL     1      -2.531   3.793   2.415  0.00  0.00    +0.009 C 
ATOM     18  C   UNL     1      -2.624   4.686   1.176  0.00  0.00    +0.009 C 
ENDBRANCH   1  16
BRANCH   2  19
ATOM     19  N   UNL     1      -0.011   0.966   0.007  0.00  0.00    -0.322 N 
ATOM     20  H   UNL     1      -0.000  -0.098   0.288  0.00  0.00    +0.148 HD
BRANCH  19  21
ATOM     21  C   UNL     1       1.189   1.671  -0.102  0.00  0.00    +0.029 A 
ATOM     22  C   UNL     1       1.173   3.045  -0.312  0.00  0.00    +0.025 A 
ATOM     23  C   UNL     1       2.362   3.740  -0.414  0.00  0.00    +0.034 A 
ATOM     24  C   UNL     1       3.568   3.069  -0.320  0.00  0.00    +0.126 A 
ATOM     25  C   UNL     1       3.587   1.701  -0.117  0.00  0.00    +0.034 A 
ATOM     26  C   UNL     1       2.402   1.000  -0.008  0.00  0.00    +0.025 A 
BRANCH  24  27
ATOM     27  N   UNL     1       4.840   3.816  -0.437  0.00  0.00    +0.056 N 
ATOM     28  O   UNL     1       5.902   3.227  -0.354  0.00  0.00    -0.126 OA
ATOM     29  O   UNL     1       4.824   5.021  -0.615  0.00  0.00    -0.126 OA
ENDBRANCH  24  27
ENDBRANCH  19  21
ENDBRANCH   2  19
TORSDOF 4
