REMARK  Name = ZINC38577289
REMARK  5 active torsions:
REMARK  status: ('A' for Active; 'I' for Inactive)
REMARK    1  A    between atoms: C_1  and  C_2
REMARK    2  A    between atoms: C_5  and  C_9
REMARK    3  A    between atoms: C_6  and  O_8
REMARK    4  A    between atoms: C_11  and  C_15
REMARK    5  A    between atoms: N_17  and  C_18
REMARK                            x       y       z     vdW  Elec       q    Type
REMARK                         _______ _______ _______ _____ _____    ______ ____
ROOT
ATOM      1  C   UNL     1      -1.142  -7.207   0.947  0.00  0.00    +0.245 C 
ATOM      2  O   UNL     1      -2.078  -7.334   0.185  0.00  0.00    -0.273 OA
ATOM      3  N   UNL     1      -1.201  -7.745   2.181  0.00  0.00    -0.286 N 
ATOM      4  H   UNL     1      -0.453  -7.644   2.791  0.00  0.00    +0.151 HD
ENDROOT
BRANCH   3   5
ATOM      5  C   UNL     1      -2.395  -8.481   2.604  0.00  0.00    +0.224 C 
ATOM      6  N   UNL     1      -2.372  -8.741   4.050  0.00  0.00    -0.316 N 
ATOM      7  C   UNL     1      -2.353 -10.073   4.465  0.00  0.00    +0.043 A 
ATOM      8  C   UNL     1      -2.329 -10.513   5.800  0.00  0.00    +0.027 A 
ATOM      9  C   UNL     1      -2.311 -11.854   6.108  0.00  0.00    +0.040 A 
ATOM     10  C   UNL     1      -2.316 -12.816   5.113  0.00  0.00    +0.125 A 
ATOM     11  C   UNL     1      -2.339 -12.410   3.788  0.00  0.00    +0.055 A 
ATOM     12  C   UNL     1      -2.357 -11.068   3.482  0.00  0.00    +0.035 A 
ATOM     13  S   UNL     1      -2.389 -10.191   1.933  0.00  0.00    -0.082 S 
ATOM     14  F   UNL     1      -2.298 -14.130   5.428  0.00  0.00    -0.205 F 
ATOM     15  H   UNL     1      -2.370  -8.013   4.691  0.00  0.00    +0.149 HD
ENDBRANCH   3   5
BRANCH   1  18
ATOM     16  C   UNL     1       0.058  -4.259  -0.033  0.00  0.00    +0.095 C 
ATOM     17  C   UNL     1       0.069  -5.037   1.067  0.00  0.00    +0.041 C 
ATOM     18  C   UNL     1       0.086  -6.450   0.512  0.00  0.00    +0.238 C 
ATOM     19  N   UNL     1       0.083  -6.239  -0.945  0.00  0.00    -0.170 NA
ATOM     20  N   UNL     1       0.062  -5.025  -1.156  0.00  0.00    -0.153 NA
BRANCH  16  25
ATOM     21  C   UNL     1      -0.018   1.503   0.010  0.00  0.00    +0.044 C 
ATOM     22  C   UNL     1       0.002  -0.004   0.002  0.00  0.00    -0.047 A 
ATOM     23  C   UNL     1       0.006  -0.686  -1.202  0.00  0.00    +0.004 A 
ATOM     24  C   UNL     1       0.024  -2.066  -1.219  0.00  0.00    +0.014 A 
ATOM     25  C   UNL     1       0.039  -2.776  -0.021  0.00  0.00    +0.043 A 
ATOM     26  C   UNL     1       0.036  -2.084   1.194  0.00  0.00    +0.126 A 
ATOM     27  C   UNL     1       0.023  -0.698   1.197  0.00  0.00    +0.049 A 
BRANCH  26  28
ATOM     28  O   UNL     1       0.051  -2.767   2.368  0.00  0.00    -0.506 OA
ATOM     29  H   UNL     1       0.939  -2.954   2.704  0.00  0.00    +0.292 HD
ENDBRANCH  26  28
ENDBRANCH  16  25
ENDBRANCH   1  18
TORSDOF 4
