REMARK  Name = ZINC45416000
REMARK  6 active torsions:
REMARK  status: ('A' for Active; 'I' for Inactive)
REMARK    1  A    between atoms: C_3  and  C_8
REMARK    2  A    between atoms: C_8  and  N_9
REMARK    3  A    between atoms: N_12  and  C_15
REMARK    4  A    between atoms: C_15  and  C_16
REMARK    5  A    between atoms: N_18  and  C_19
REMARK    6  A    between atoms: N_18  and  C_27
REMARK                            x       y       z     vdW  Elec       q    Type
REMARK                         _______ _______ _______ _____ _____    ______ ____
ROOT
ATOM      1  C   UNL     1       6.370   2.651   4.902  0.00  0.00    +0.019 C 
ENDROOT
BRANCH   1   5
ATOM      2  N   UNL     1       4.067   2.487   1.382  0.00  0.00    -0.302 NA
ATOM      3  C   UNL     1       4.427   1.217   2.028  0.00  0.00    +0.066 C 
ATOM      4  C   UNL     1       4.831   1.484   3.480  0.00  0.00    -0.063 C 
ATOM      5  N   UNL     1       5.972   2.409   3.509  0.00  0.00    +0.387 N 
ATOM      6  C   UNL     1       5.589   3.681   2.882  0.00  0.00    -0.063 C 
ATOM      7  C   UNL     1       5.192   3.432   1.425  0.00  0.00    +0.066 C 
ATOM      8  H   UNL     1       6.745   2.004   3.004  0.00  0.00    -0.081 HD
BRANCH   2   9
ATOM      9  C   UNL     1       3.619   2.266   0.001  0.00  0.00    +0.119 C 
BRANCH   9  12
ATOM     10  C   UNL     1      -0.070   1.464   0.057  0.00  0.00    +0.002 A 
ATOM     11  C   UNL     1       1.118   2.170   0.049  0.00  0.00    +0.005 A 
ATOM     12  C   UNL     1       2.324   1.495   0.010  0.00  0.00    -0.032 A 
ATOM     13  C   UNL     1       2.342   0.113  -0.020  0.00  0.00    +0.025 A 
ATOM     14  C   UNL     1       1.153  -0.594  -0.011  0.00  0.00    +0.041 A 
ATOM     15  C   UNL     1      -0.053   0.082   0.028  0.00  0.00    +0.020 A 
ATOM     16 CL   UNL     1       1.175  -2.330  -0.049  0.00  0.00    -0.084 Cl
ENDBRANCH   9  12
ENDBRANCH   2   9
ENDBRANCH   1   5
BRANCH   1  17
ATOM     17  C   UNL     1       7.615   3.500   4.929  0.00  0.00    +0.200 C 
ATOM     18  O   UNL     1       8.184   3.774   3.893  0.00  0.00    -0.278 OA
ATOM     19  N   UNL     1       8.096   3.955   6.103  0.00  0.00    -0.295 N 
BRANCH  19  20
ATOM     20  C   UNL     1       9.238   4.872   6.120  0.00  0.00    +0.099 C 
ATOM     21  C   UNL     1       8.899   6.139   5.318  0.00  0.00    +0.046 C 
ATOM     22  C   UNL     1      10.186   6.960   5.060  0.00  0.00    +0.168 C 
ATOM     23  S   UNL     1      11.495   5.668   5.055  0.00  0.00    -0.029 S 
ATOM     24  O   UNL     1      12.390   5.914   6.131  0.00  0.00    -0.174 OA
ATOM     25  O   UNL     1      12.007   5.533   3.737  0.00  0.00    -0.174 OA
ATOM     26  C   UNL     1      10.468   4.191   5.455  0.00  0.00    +0.188 C 
ENDBRANCH  19  20
BRANCH  19  27
ATOM     27  C   UNL     1       7.476   3.532   7.361  0.00  0.00    +0.076 C 
ATOM     28  C   UNL     1       6.897   4.755   8.102  0.00  0.00    +0.022 C 
ATOM     29  C   UNL     1       7.169   4.457   9.597  0.00  0.00    +0.002 C 
ATOM     30  C   UNL     1       8.565   3.788   9.564  0.00  0.00    +0.002 C 
ATOM     31  C   UNL     1       8.537   2.917   8.291  0.00  0.00    +0.022 C 
ENDBRANCH  19  27
ENDBRANCH   1  17
TORSDOF 6
