REMARK  Name = ZINC60373094
REMARK  8 active torsions:
REMARK  status: ('A' for Active; 'I' for Inactive)
REMARK    1  A    between atoms: C_1  and  C_2
REMARK    2  A    between atoms: C_2  and  C_3
REMARK    3  A    between atoms: C_2  and  C_4
REMARK    4  A    between atoms: C_4  and  C_6
REMARK    5  A    between atoms: C_4  and  S_25
REMARK    6  A    between atoms: N_11  and  C_14
REMARK    7  A    between atoms: C_14  and  C_15
REMARK    8  A    between atoms: S_25  and  C_26
REMARK                            x       y       z     vdW  Elec       q    Type
REMARK                         _______ _______ _______ _____ _____    ______ ____
ROOT
ATOM      1  C   UNL     1      -1.866  -0.345  -1.570  0.00  0.00    +0.229 C 
ATOM      2  O   UNL     1      -1.573  -1.101  -2.472  0.00  0.00    -0.274 OA
ATOM      3  N   UNL     1      -2.558   0.781  -1.832  0.00  0.00    -0.298 N 
ATOM      4  C   UNL     1      -2.825   1.767  -0.774  0.00  0.00    +0.123 C 
ATOM      5  C   UNL     1      -4.325   2.082  -0.768  0.00  0.00    +0.104 C 
ATOM      6  N   UNL     1      -4.742   2.490  -2.116  0.00  0.00    -0.294 NA
ATOM      7  C   UNL     1      -4.557   1.399  -3.083  0.00  0.00    +0.104 C 
ATOM      8  C   UNL     1      -3.062   1.060  -3.186  0.00  0.00    +0.123 C 
ENDROOT
BRANCH   1   9
ATOM      9  C   UNL     1      -1.457  -0.665  -0.156  0.00  0.00    +0.140 C 
BRANCH   9  11
ATOM     10  C   UNL     1       0.278  -0.284   1.602  0.00  0.00    +0.009 C 
ATOM     11  C   UNL     1      -0.144   0.051   0.170  0.00  0.00    +0.005 C 
ATOM     12  C   UNL     1       0.943  -0.409  -0.803  0.00  0.00    +0.009 C 
ENDBRANCH   9  11
BRANCH   9  13
ATOM     13  S   UNL     1      -1.227  -2.457   0.016  0.00  0.00    -0.112 S 
BRANCH  13  14
ATOM     14  C   UNL     1      -2.863  -3.106  -0.059  0.00  0.00    +0.009 A 
ATOM     15  C   UNL     1      -3.942  -2.253  -0.257  0.00  0.00    +0.015 A 
ATOM     16  C   UNL     1      -5.223  -2.765  -0.316  0.00  0.00    +0.001 A 
ATOM     17  C   UNL     1      -5.433  -4.125  -0.177  0.00  0.00    +0.000 A 
ATOM     18  C   UNL     1      -4.362  -4.976   0.021  0.00  0.00    +0.001 A 
ATOM     19  C   UNL     1      -3.077  -4.472   0.074  0.00  0.00    +0.015 A 
ENDBRANCH  13  14
ENDBRANCH   9  13
ENDBRANCH   1   9
BRANCH   6  20
ATOM     20  C   UNL     1      -6.132   2.964  -2.116  0.00  0.00    +0.138 C 
BRANCH  20  21
ATOM     21  C   UNL     1      -6.446   3.598  -3.446  0.00  0.00    +0.037 A 
ATOM     22  C   UNL     1      -7.389   3.041  -4.284  0.00  0.00    +0.093 A 
ATOM     23  C   UNL     1      -7.666   3.643  -5.512  0.00  0.00    +0.259 A 
ATOM     24  O   UNL     1      -8.500   3.154  -6.258  0.00  0.00    -0.267 OA
ATOM     25  N   UNL     1      -7.005   4.781  -5.878  0.00  0.00    -0.264 N 
ATOM     26  C   UNL     1      -7.167   5.486  -7.046  0.00  0.00    +0.104 A 
ATOM     27  C   UNL     1      -6.458   6.588  -7.289  0.00  0.00    +0.067 A 
ATOM     28  S   UNL     1      -5.462   6.715  -5.812  0.00  0.00    -0.059 S 
ATOM     29  C   UNL     1      -6.086   5.266  -4.986  0.00  0.00    +0.158 A 
ATOM     30  N   UNL     1      -5.824   4.709  -3.830  0.00  0.00    -0.338 N 
ATOM     31  H   UNL     1      -5.162   5.112  -3.246  0.00  0.00    +0.168 HD
ENDBRANCH  20  21
ENDBRANCH   6  20
TORSDOF 6
