REMARK  Name = ZINC12710920
REMARK  4 active torsions:
REMARK  status: ('A' for Active; 'I' for Inactive)
REMARK    1  A    between atoms: C_4  and  C_7
REMARK    2  A    between atoms: C_11  and  N_13
REMARK    3  A    between atoms: C_16  and  C_19
REMARK    4  A    between atoms: C_25  and  C_27
REMARK                            x       y       z     vdW  Elec       q    Type
REMARK                         _______ _______ _______ _____ _____    ______ ____
ROOT
ATOM      1  N   UNL     1       4.698   5.577  -0.013  0.00  0.00    -0.315 N 
ATOM      2  C   UNL     1       5.448   6.127  -1.149  0.00  0.00    +0.107 C 
ATOM      3  C   UNL     1       5.514   7.651  -1.028  0.00  0.00    +0.032 C 
ATOM      4  C   UNL     1       4.093   8.219  -1.008  0.00  0.00    +0.078 C 
ATOM      5  C   UNL     1       3.318   7.593   0.155  0.00  0.00    +0.032 C 
ATOM      6  C   UNL     1       3.315   6.071  -0.001  0.00  0.00    +0.107 C 
ENDROOT
BRANCH   1  11
ATOM      7  C   UNL     1       3.631   2.165  -0.024  0.00  0.00    +0.162 A 
ATOM      8  N   UNL     1       4.774   1.494  -0.036  0.00  0.00    -0.232 NA
ATOM      9  C   UNL     1       5.938   2.130  -0.041  0.00  0.00    +0.050 A 
ATOM     10  C   UNL     1       5.950   3.510  -0.034  0.00  0.00    +0.014 A 
ATOM     11  C   UNL     1       4.730   4.191  -0.021  0.00  0.00    +0.129 A 
ATOM     12  N   UNL     1       3.601   3.490  -0.022  0.00  0.00    -0.212 NA
ATOM     13  C   UNL     1       7.374   4.013  -0.042  0.00  0.00    +0.041 C 
ATOM     14  C   UNL     1       8.232   2.801   0.382  0.00  0.00    +0.011 C 
ATOM     15  C   UNL     1       7.356   1.607  -0.055  0.00  0.00    +0.056 C 
BRANCH   7  19
ATOM     16  C   UNL     1      -0.034   0.011  -0.008  0.00  0.00    +0.000 A 
ATOM     17  C   UNL     1      -0.048   1.394   0.000  0.00  0.00    +0.001 A 
ATOM     18  C   UNL     1       1.139   2.098  -0.005  0.00  0.00    +0.011 A 
ATOM     19  C   UNL     1       2.353   1.414  -0.019  0.00  0.00    +0.019 A 
ATOM     20  C   UNL     1       2.361   0.020  -0.026  0.00  0.00    +0.011 A 
ATOM     21  C   UNL     1       1.168  -0.674  -0.021  0.00  0.00    +0.001 A 
ENDBRANCH   7  19
ENDBRANCH   1  11
BRANCH   4  22
ATOM     22  C   UNL     1       4.150   9.714  -0.829  0.00  0.00    +0.219 C 
ATOM     23  O   UNL     1       4.056  10.196   0.280  0.00  0.00    -0.275 OA
ATOM     24  N   UNL     1       4.305  10.516  -1.901  0.00  0.00    -0.290 N 
ATOM     25  C   UNL     1       4.331  10.075  -3.308  0.00  0.00    +0.108 C 
ATOM     26  C   UNL     1       5.120  11.178  -4.055  0.00  0.00    +0.021 C 
ATOM     27  C   UNL     1       4.640  12.457  -3.319  0.00  0.00    +0.033 C 
ATOM     28  C   UNL     1       4.469  11.976  -1.862  0.00  0.00    +0.162 C 
BRANCH  28  29
ATOM     29  C   UNL     1       3.249  12.613  -1.249  0.00  0.00    +0.231 C 
ATOM     30  O   UNL     1       2.325  11.921  -0.877  0.00  0.00    -0.274 OA
ATOM     31  N   UNL     1       3.184  13.953  -1.114  0.00  0.00    -0.328 N 
ATOM     32  H   UNL     1       3.922  14.507  -1.411  0.00  0.00    +0.145 HD
ATOM     33  H   UNL     1       2.398  14.363  -0.719  0.00  0.00    +0.145 HD
ENDBRANCH  28  29
ENDBRANCH   4  22
TORSDOF 4
