REMARK  Name = ZINC39887289
REMARK  7 active torsions:
REMARK  status: ('A' for Active; 'I' for Inactive)
REMARK    1  A    between atoms: C_1  and  C_2
REMARK    2  A    between atoms: C_5  and  C_7
REMARK    3  A    between atoms: C_12  and  C_25
REMARK    4  A    between atoms: N_14  and  C_15
REMARK    5  A    between atoms: C_18  and  C_21
REMARK    6  A    between atoms: C_21  and  C_22
REMARK    7  A    between atoms: C_21  and  C_23
REMARK                            x       y       z     vdW  Elec       q    Type
REMARK                         _______ _______ _______ _____ _____    ______ ____
ROOT
ATOM      1  C   UNL     1       1.761  -3.492   0.019  0.00  0.00    +0.234 C 
ATOM      2  N   UNL     1       1.225  -4.552   0.875  0.00  0.00    -0.286 N 
ATOM      3  C   UNL     1       1.335  -4.473   2.216  0.00  0.00    +0.258 C 
ATOM      4  O   UNL     1       0.849  -5.338   2.922  0.00  0.00    -0.269 OA
ATOM      5  C   UNL     1       2.042  -3.341   2.819  0.00  0.00    +0.142 C 
ATOM      6  C   UNL     1       2.854  -2.547   1.992  0.00  0.00    +0.103 C 
ATOM      7  N   UNL     1       2.928  -2.880   0.663  0.00  0.00    -0.267 N 
ATOM      8  S   UNL     1       3.747  -1.173   2.639  0.00  0.00    -0.033 SA
ATOM      9  H   UNL     1       0.787  -5.319   0.473  0.00  0.00    +0.151 HD
ENDROOT
BRANCH   1  14
ATOM     10  C   UNL     1      -0.427   0.974  -0.822  0.00  0.00    +0.086 C 
ATOM     11  C   UNL     1      -0.249  -0.500  -0.566  0.00  0.00    +0.102 A 
ATOM     12  C   UNL     1      -1.239  -1.405  -0.454  0.00  0.00    +0.045 A 
ATOM     13  C   UNL     1      -0.626  -2.656  -0.219  0.00  0.00    +0.048 A 
ATOM     14  C   UNL     1       0.702  -2.442  -0.201  0.00  0.00    +0.144 A 
ATOM     15  O   UNL     1       0.924  -1.136  -0.418  0.00  0.00    -0.461 OA
ENDBRANCH   1  14
BRANCH   7  16
ATOM     16  C   UNL     1       4.097  -2.638  -0.066  0.00  0.00    +0.037 A 
ATOM     17  C   UNL     1       4.101  -1.691  -1.081  0.00  0.00    +0.024 A 
ATOM     18  C   UNL     1       5.257  -1.454  -1.799  0.00  0.00    +0.006 A 
ATOM     19  C   UNL     1       6.410  -2.160  -1.507  0.00  0.00    -0.045 A 
ATOM     20  C   UNL     1       6.410  -3.104  -0.496  0.00  0.00    +0.006 A 
ATOM     21  C   UNL     1       5.258  -3.341   0.229  0.00  0.00    +0.024 A 
BRANCH  19  22
ATOM     22  C   UNL     1       7.670  -1.900  -2.292  0.00  0.00    +0.013 C 
ATOM     23  C   UNL     1       8.774  -1.427  -1.344  0.00  0.00    +0.012 C 
ATOM     24  C   UNL     1       8.112  -3.189  -2.988  0.00  0.00    +0.012 C 
ENDBRANCH  19  22
ENDBRANCH   7  16
BRANCH   5  25
ATOM     25  C   UNL     1       1.908  -3.050   4.215  0.00  0.00    +0.107 C 
ATOM     26  N   UNL     1       1.802  -2.819   5.322  0.00  0.00    -0.191 NA
ENDBRANCH   5  25
TORSDOF 4
