REMARK  Name = ZINC48360918
REMARK  5 active torsions:
REMARK  status: ('A' for Active; 'I' for Inactive)
REMARK    1  A    between atoms: C_1  and  O_2
REMARK    2  A    between atoms: O_2  and  C_3
REMARK    3  A    between atoms: C_3  and  C_5
REMARK    4  A    between atoms: C_3  and  C_23
REMARK    5  A    between atoms: C_16  and  C_18
REMARK                            x       y       z     vdW  Elec       q    Type
REMARK                         _______ _______ _______ _____ _____    ______ ____
ROOT
ATOM      1  C   UNL     1       2.227  -0.338   0.954  0.00  0.00    -0.018 A 
ATOM      2  C   UNL     1       2.559  -0.637  -0.354  0.00  0.00    +0.010 A 
ATOM      3  C   UNL     1       3.868  -0.917  -0.695  0.00  0.00    +0.046 A 
ATOM      4  C   UNL     1       4.857  -0.887   0.280  0.00  0.00    +0.125 A 
ATOM      5  C   UNL     1       4.520  -0.554   1.583  0.00  0.00    +0.012 A 
ATOM      6  C   UNL     1       3.212  -0.293   1.926  0.00  0.00    +0.015 A 
ATOM      7  C   UNL     1       5.628  -0.425   2.609  0.00  0.00    +0.147 C 
ATOM      8  N   UNL     1       6.236  -1.744   2.814  0.00  0.00    -0.289 N 
ATOM      9  C   UNL     1       7.222  -2.260   1.864  0.00  0.00    +0.149 C 
ATOM     10  C   UNL     1       6.607  -2.462   0.487  0.00  0.00    +0.248 C 
ATOM     11  O   UNL     1       6.136  -1.213  -0.032  0.00  0.00    -0.490 OA
ATOM     12  C   UNL     1       5.885  -2.484   3.885  0.00  0.00    +0.268 C 
ATOM     13  O   UNL     1       6.370  -3.587   4.046  0.00  0.00    -0.268 OA
ENDROOT
BRANCH  12  14
ATOM     14  C   UNL     1       4.914  -1.955   4.860  0.00  0.00    +0.156 A 
ATOM     15  C   UNL     1       4.627  -2.591   6.056  0.00  0.00    +0.101 A 
ATOM     16  S   UNL     1       3.487  -1.560   6.732  0.00  0.00    +0.029 S 
ATOM     17  N   UNL     1       3.412  -0.437   5.571  0.00  0.00    -0.110 NA
ATOM     18  N   UNL     1       4.244  -0.826   4.671  0.00  0.00    -0.136 NA
ENDBRANCH  12  14
BRANCH   1  19
ATOM     19  C   UNL     1       0.793  -0.055   1.321  0.00  0.00    +0.151 C 
BRANCH  19  20
ATOM     20  C   UNL     1       0.068  -1.373   1.599  0.00  0.00    +0.022 C 
ATOM     21  C   UNL     1       0.109  -2.252   0.348  0.00  0.00    +0.006 C 
ATOM     22  C   UNL     1      -0.616  -3.570   0.626  0.00  0.00    +0.000 C 
ATOM     23  C   UNL     1      -2.071  -3.283   0.999  0.00  0.00    +0.000 C 
ATOM     24  C   UNL     1      -2.113  -2.404   2.250  0.00  0.00    +0.000 C 
ATOM     25  C   UNL     1      -1.388  -1.086   1.972  0.00  0.00    +0.006 C 
ENDBRANCH  19  20
BRANCH  19  27
ATOM     26  C   UNL     1       0.245   2.048   0.310  0.00  0.00    +0.194 C 
ATOM     27  O   UNL     1       0.149   0.624   0.241  0.00  0.00    -0.375 OA
ENDBRANCH  19  27
ENDBRANCH   1  19
TORSDOF 4
