REMARK  Name = ZINC19743305
REMARK  7 active torsions:
REMARK  status: ('A' for Active; 'I' for Inactive)
REMARK    1  A    between atoms: C_1  and  C_2
REMARK    2  A    between atoms: N_5  and  C_15
REMARK    3  A    between atoms: C_15  and  C_16
REMARK    4  A    between atoms: C_16  and  C_17
REMARK    5  A    between atoms: C_22  and  C_25
REMARK    6  A    between atoms: C_25  and  C_27
REMARK    7  A    between atoms: C_25  and  N_28
REMARK                            x       y       z     vdW  Elec       q    Type
REMARK                         _______ _______ _______ _____ _____    ______ ____
ROOT
ATOM      1  C   UNL     1      -2.290   1.599  -0.892  0.00  0.00    +0.077 C 
ENDROOT
BRANCH   1   2
ATOM      2  C   UNL     1      -3.118   2.135  -2.032  0.00  0.00    +0.214 C 
ATOM      3  O   UNL     1      -2.588   2.762  -2.924  0.00  0.00    -0.276 OA
ATOM      4  N   UNL     1      -4.448   1.916  -2.060  0.00  0.00    -0.302 N 
ATOM      5  C   UNL     1      -5.104   1.152  -0.990  0.00  0.00    +0.108 C 
ATOM      6  C   UNL     1      -6.260   1.993  -0.428  0.00  0.00    +0.024 C 
ATOM      7  C   UNL     1      -7.191   2.399  -1.572  0.00  0.00    +0.009 C 
ATOM      8  C   UNL     1      -6.421   3.253  -2.581  0.00  0.00    +0.024 C 
ATOM      9  C   UNL     1      -5.268   2.431  -3.165  0.00  0.00    +0.108 C 
BRANCH   7  10
ATOM     10  C   UNL     1      -8.365   3.205  -1.012  0.00  0.00    +0.057 C 
ATOM     11  C   UNL     1      -9.298   3.609  -2.156  0.00  0.00    +0.024 C 
BRANCH  10  12
ATOM     12  N   UNL     1      -9.105   2.385  -0.044  0.00  0.00    -0.295 NA
ATOM     13  C   UNL     1      -9.657   1.183  -0.684  0.00  0.00    +0.113 C 
ATOM     14  C   UNL     1     -10.367   0.329   0.370  0.00  0.00    +0.175 C 
ATOM     15  O   UNL     1     -11.377   1.114   1.010  0.00  0.00    -0.377 OA
ATOM     16  C   UNL     1     -10.874   2.293   1.645  0.00  0.00    +0.175 C 
ATOM     17  C   UNL     1     -10.169   3.166   0.604  0.00  0.00    +0.113 C 
ENDBRANCH  10  12
ENDBRANCH   7  10
ENDBRANCH   1   2
BRANCH   1  18
ATOM     18  C   UNL     1      -0.825   1.985  -1.101  0.00  0.00    -0.069 C 
BRANCH  18  22
ATOM     19  C   UNL     1       3.418   2.573   1.218  0.00  0.00    +0.050 C 
ATOM     20  C   UNL     1       2.091   1.814   1.284  0.00  0.00    +0.154 C 
ATOM     21  C   UNL     1       1.323   2.042   0.000  0.00  0.00    -0.034 C 
ATOM     22  N   UNL     1      -0.018   1.463   0.010  0.00  0.00    +0.385 N 
ATOM     23  C   UNL     1       0.002  -0.004   0.002  0.00  0.00    -0.039 C 
ATOM     24  C   UNL     1       0.165  -0.498   1.427  0.00  0.00    -0.021 A 
ATOM     25  C   UNL     1      -0.872  -1.159   2.054  0.00  0.00    +0.025 A 
ATOM     26  C   UNL     1      -0.705  -1.621   3.348  0.00  0.00    +0.041 A 
ATOM     27  C   UNL     1       0.495  -1.423   4.007  0.00  0.00    +0.023 A 
ATOM     28  C   UNL     1       1.530  -0.755   3.380  0.00  0.00    +0.047 A 
ATOM     29  C   UNL     1       1.360  -0.284   2.086  0.00  0.00    +0.122 A 
ATOM     30  O   UNL     1       2.355   0.419   1.477  0.00  0.00    -0.491 OA
ATOM     31 CL   UNL     1      -2.005  -2.451   4.146  0.00  0.00    -0.084 Cl
ATOM     32  H   UNL     1      -0.483   1.771   0.958  0.00  0.00    -0.081 HD
ENDBRANCH  18  22
ENDBRANCH   1  18
TORSDOF 5
