REMARK  Name = ZINC39293810
REMARK  5 active torsions:
REMARK  status: ('A' for Active; 'I' for Inactive)
REMARK    1  A    between atoms: C_1  and  N_2
REMARK    2  A    between atoms: N_4  and  C_5
REMARK    3  A    between atoms: C_13  and  O_28
REMARK    4  A    between atoms: C_24  and  O_25
REMARK    5  A    between atoms: O_25  and  C_26
REMARK                            x       y       z     vdW  Elec       q    Type
REMARK                         _______ _______ _______ _____ _____    ______ ____
ROOT
ATOM      1  C   UNL     1       1.268   1.033   0.596  0.00  0.00    +0.128 C 
ATOM      2  N   UNL     1       0.614  -0.235   0.262  0.00  0.00    -0.319 N 
ATOM      3  C   UNL     1       0.503  -0.624  -1.043  0.00  0.00    +0.194 C 
ATOM      4  N   UNL     1      -0.186  -1.708  -1.353  0.00  0.00    -0.142 NA
ATOM      5  N   UNL     1       1.105   0.108  -2.027  0.00  0.00    -0.298 N 
ATOM      6  C   UNL     1       1.768  -0.571  -3.143  0.00  0.00    +0.109 C 
ATOM      7  C   UNL     1       2.979   0.246  -3.610  0.00  0.00    +0.038 C 
ATOM      8  C   UNL     1       3.942   0.384  -2.438  0.00  0.00    +0.056 C 
ATOM      9  C   UNL     1       3.933  -0.856  -1.601  0.00  0.00    -0.013 C 
ATOM     10  C   UNL     1       4.952  -1.619  -1.394  0.00  0.00    +0.001 C 
ATOM     11  C   UNL     1       6.313  -1.369  -1.961  0.00  0.00    +0.141 C 
ATOM     12  C   UNL     1       6.271  -0.387  -3.115  0.00  0.00    +0.081 C 
ATOM     13  C   UNL     1       5.352   0.783  -2.871  0.00  0.00    +0.191 C 
ATOM     14  O   UNL     1       5.814   1.584  -1.760  0.00  0.00    -0.484 OA
ATOM     15  C   UNL     1       4.744   2.183  -1.190  0.00  0.00    +0.167 A 
ATOM     16  C   UNL     1       3.554   1.563  -1.585  0.00  0.00    +0.016 A 
ATOM     17  C   UNL     1       2.316   2.067  -1.249  0.00  0.00    -0.022 A 
ATOM     18  C   UNL     1       2.272   3.106  -0.337  0.00  0.00    +0.009 A 
ATOM     19  C   UNL     1       3.440   3.678   0.134  0.00  0.00    +0.050 A 
ATOM     20  C   UNL     1       4.695   3.252  -0.290  0.00  0.00    +0.162 A 
ATOM     21  C   UNL     1       1.083   1.574  -1.969  0.00  0.00    +0.143 C 
ATOM     22  H   UNL     1       0.258  -0.797   0.968  0.00  0.00    +0.148 HD
ENDROOT
BRANCH   4  23
ATOM     23  C   UNL     1      -0.219  -2.146  -2.635  0.00  0.00    +0.208 C 
ATOM     24  N   UNL     1      -0.246  -2.513  -3.710  0.00  0.00    -0.169 NA
ENDBRANCH   4  23
BRANCH  20  25
ATOM     25  O   UNL     1       5.831   3.852   0.155  0.00  0.00    -0.491 OA
ATOM     26  C   UNL     1       5.675   4.936   1.074  0.00  0.00    +0.277 C 
ENDBRANCH  20  25
BRANCH  11  27
ATOM     27  O   UNL     1       7.155  -0.842  -0.933  0.00  0.00    -0.388 OA
ATOM     28  H   UNL     1       7.262  -1.429  -0.172  0.00  0.00    +0.210 HD
ENDBRANCH  11  27
TORSDOF 3
