REMARK  Name = ZINC26420423
REMARK  2 active torsions:
REMARK  status: ('A' for Active; 'I' for Inactive)
REMARK    1  A    between atoms: C_3  and  C_14
REMARK    2  A    between atoms: C_6  and  C_7
REMARK                            x       y       z     vdW  Elec       q    Type
REMARK                         _______ _______ _______ _____ _____    ______ ____
ROOT
ATOM      1  C   UNL     1      -2.522  -0.346   0.001  0.00  0.00    +0.010 A 
ATOM      2  C   UNL     1      -3.725  -1.024   0.003  0.00  0.00    +0.004 A 
ATOM      3  C   UNL     1      -4.917  -0.322   0.007  0.00  0.00    -0.044 A 
ATOM      4  C   UNL     1      -4.911   1.061   0.015  0.00  0.00    +0.004 A 
ATOM      5  C   UNL     1      -3.714   1.749   0.018  0.00  0.00    +0.010 A 
ATOM      6  C   UNL     1      -2.510   1.047   0.014  0.00  0.00    +0.002 A 
ENDROOT
BRANCH   6   7
ATOM      7  C   UNL     1      -1.221   1.780   0.017  0.00  0.00    +0.091 A 
ATOM      8  C   UNL     1      -0.013   1.076   0.008  0.00  0.00    +0.035 A 
ATOM      9  C   UNL     1       1.163   1.805   0.001  0.00  0.00    +0.073 A 
ATOM     10  C   UNL     1       1.071   3.196   0.009  0.00  0.00    +0.265 A 
ATOM     11  N   UNL     1      -0.117   3.779   0.022  0.00  0.00    -0.243 N 
ATOM     12  N   UNL     1      -1.210   3.106   0.029  0.00  0.00    -0.171 NA
ATOM     13  O   UNL     1       2.199   3.951   0.001  0.00  0.00    -0.266 OA
ATOM     14  H   UNL     1      -0.148   4.879   0.028  0.00  0.00    +0.192 HD
ENDBRANCH   6   7
BRANCH   3  15
ATOM     15  C   UNL     1      -6.226  -1.067   0.004  0.00  0.00    +0.019 C 
ATOM     16  C   UNL     1      -6.313  -1.953   1.248  0.00  0.00    +0.008 C 
ATOM     17  C   UNL     1      -7.643  -2.709   1.245  0.00  0.00    +0.001 C 
ATOM     18  C   UNL     1      -7.730  -3.582  -0.009  0.00  0.00    +0.000 C 
ATOM     19  C   UNL     1      -7.644  -2.696  -1.254  0.00  0.00    +0.001 C 
ATOM     20  C   UNL     1      -6.314  -1.939  -1.250  0.00  0.00    +0.008 C 
ENDBRANCH   3  15
TORSDOF 2
