REMARK  Name = ZINC66362220
REMARK  6 active torsions:
REMARK  status: ('A' for Active; 'I' for Inactive)
REMARK    1  A    between atoms: C_1  and  C_2
REMARK    2  A    between atoms: C_5  and  N_8
REMARK    3  A    between atoms: N_8  and  C_9
REMARK    4  A    between atoms: N_12  and  C_13
REMARK    5  A    between atoms: C_19  and  O_21
REMARK    6  A    between atoms: O_21  and  C_22
REMARK                            x       y       z     vdW  Elec       q    Type
REMARK                         _______ _______ _______ _____ _____    ______ ____
ROOT
ATOM      1  N   UNL     1      -1.358  -2.098   2.449  0.00  0.00    -0.286 N 
ATOM      2  C   UNL     1      -1.414  -0.664   2.746  0.00  0.00    +0.134 C 
ATOM      3  C   UNL     1      -1.954  -2.981   3.275  0.00  0.00    +0.302 C 
ATOM      4  O   UNL     1      -1.908  -4.170   3.029  0.00  0.00    -0.253 OA
ATOM      5  N   UNL     1      -2.601  -2.545   4.374  0.00  0.00    -0.296 N 
ATOM      6  H   UNL     1      -2.638  -1.595   4.571  0.00  0.00    +0.151 HD
ENDROOT
BRANCH   5   7
ATOM      7  C   UNL     1      -3.249  -3.504   5.272  0.00  0.00    +0.077 C 
ATOM      8  C   UNL     1      -2.220  -4.044   6.269  0.00  0.00    +0.041 C 
ATOM      9  C   UNL     1      -2.893  -5.072   7.184  0.00  0.00    +0.113 C 
ATOM     10  N   UNL     1      -4.070  -4.452   7.807  0.00  0.00    -0.267 N 
ATOM     11  C   UNL     1      -5.078  -3.823   6.943  0.00  0.00    +0.113 C 
ATOM     12  C   UNL     1      -4.381  -2.808   6.031  0.00  0.00    +0.041 C 
ATOM     13  C   UNL     1      -4.223  -4.462   9.146  0.00  0.00    +0.403 C 
ATOM     14  O   UNL     1      -3.382  -4.986   9.850  0.00  0.00    -0.226 OA
BRANCH  13  15
ATOM     15  O   UNL     1      -5.306  -3.890   9.704  0.00  0.00    -0.454 OA
ATOM     16  C   UNL     1      -5.403  -3.937  11.129  0.00  0.00    +0.282 C 
ENDBRANCH  13  15
ENDBRANCH   5   7
BRANCH   1  21
ATOM     17  C   UNL     1      -3.356  -0.290  -1.240  0.00  0.00    +0.007 C 
ATOM     18  C   UNL     1      -2.211  -1.215  -0.825  0.00  0.00    -0.014 C 
ATOM     19  C   UNL     1      -2.776  -2.412  -0.057  0.00  0.00    +0.005 C 
ATOM     20  C   UNL     1      -1.631  -3.338   0.359  0.00  0.00    +0.023 C 
ATOM     21  C   UNL     1      -0.655  -2.572   1.255  0.00  0.00    +0.077 C 
ATOM     22  C   UNL     1      -0.090  -1.375   0.487  0.00  0.00    +0.023 C 
ATOM     23  C   UNL     1      -1.235  -0.449   0.071  0.00  0.00    +0.005 C 
ENDBRANCH   1  21
TORSDOF 3
