REMARK  Name = ZINC66818706
REMARK  2 active torsions:
REMARK  status: ('A' for Active; 'I' for Inactive)
REMARK    1  A    between atoms: C_3  and  C_11
REMARK    2  A    between atoms: C_20  and  N_23
REMARK                            x       y       z     vdW  Elec       q    Type
REMARK                         _______ _______ _______ _____ _____    ______ ____
ROOT
ATOM      1  C   UNL     1       3.670   2.195  -0.023  0.00  0.00    +0.109 C 
ATOM      2  C   UNL     1       4.147   2.402  -1.476  0.00  0.00    +0.029 C 
ATOM      3  C   UNL     1       4.718   3.845  -1.451  0.00  0.00    +0.021 C 
ATOM      4  C   UNL     1       3.751   4.545  -0.464  0.00  0.00    +0.107 C 
ATOM      5  N   UNL     1       3.456   3.526   0.564  0.00  0.00    -0.308 N 
ATOM      6  C   UNL     1       3.045   3.780   1.867  0.00  0.00    +0.122 A 
ATOM      7  C   UNL     1       2.906   2.725   2.764  0.00  0.00    +0.046 A 
ATOM      8  C   UNL     1       2.496   2.992   4.058  0.00  0.00    +0.037 A 
ATOM      9  C   UNL     1       2.237   4.310   4.412  0.00  0.00    +0.144 A 
ATOM     10  C   UNL     1       2.396   5.307   3.471  0.00  0.00    +0.145 A 
ATOM     11  N   UNL     1       2.793   5.023   2.245  0.00  0.00    -0.238 NA
ENDROOT
BRANCH   1  14
ATOM     12  C   UNL     1      -0.017   1.378   0.010  0.00  0.00    +0.004 A 
ATOM     13  C   UNL     1       1.170   2.088   0.002  0.00  0.00    +0.009 A 
ATOM     14  C   UNL     1       2.378   1.418  -0.014  0.00  0.00    +0.018 A 
ATOM     15  C   UNL     1       2.404   0.031  -0.023  0.00  0.00    +0.167 A 
ATOM     16  C   UNL     1       1.212  -0.683  -0.013  0.00  0.00    +0.162 A 
ATOM     17  C   UNL     1       0.002  -0.004   0.002  0.00  0.00    +0.049 A 
ATOM     18  O   UNL     1       1.214  -2.044  -0.013  0.00  0.00    -0.485 OA
ATOM     19  C   UNL     1       2.434  -2.685  -0.404  0.00  0.00    +0.270 C 
ATOM     20  C   UNL     1       3.594  -1.997   0.328  0.00  0.00    +0.270 C 
ATOM     21  O   UNL     1       3.602  -0.615  -0.043  0.00  0.00    -0.485 OA
ENDBRANCH   1  14
BRANCH   9  22
ATOM     22  N   UNL     1       1.796   4.641   5.786  0.00  0.00    +0.058 N 
ATOM     23  O   UNL     1       1.659   3.763   6.605  0.00  0.00    -0.126 OA
ATOM     24  O   UNL     1       1.573   5.791   6.088  0.00  0.00    -0.126 OA
ENDBRANCH   9  22
TORSDOF 2
