REMARK  Name = ZINC09395457
REMARK  8 active torsions:
REMARK  status: ('A' for Active; 'I' for Inactive)
REMARK    1  A    between atoms: C_1  and  C_2
REMARK    2  A    between atoms: C_2  and  C_3
REMARK    3  A    between atoms: C_3  and  N_4
REMARK    4  A    between atoms: C_17  and  S_18
REMARK    5  A    between atoms: S_18  and  C_19
REMARK    6  A    between atoms: C_19  and  C_20
REMARK    7  A    between atoms: N_22  and  C_23
REMARK    8  A    between atoms: C_23  and  C_30
REMARK                            x       y       z     vdW  Elec       q    Type
REMARK                         _______ _______ _______ _____ _____    ______ ____
ROOT
ATOM      1  N   UNL     1      -1.249   3.485   0.032  0.00  0.00    -0.277 N 
ATOM      2  C   UNL     1      -1.288   2.137   0.020  0.00  0.00    +0.263 A 
ATOM      3  O   UNL     1      -2.352   1.548   0.021  0.00  0.00    -0.267 OA
ATOM      4  C   UNL     1      -0.017   1.390   0.010  0.00  0.00    +0.064 A 
ATOM      5  C   UNL     1       0.002  -0.004   0.002  0.00  0.00    +0.015 A 
ATOM      6  C   UNL     1       1.210  -0.669  -0.013  0.00  0.00    +0.001 A 
ATOM      7  C   UNL     1       2.400   0.042  -0.021  0.00  0.00    +0.002 A 
ATOM      8  C   UNL     1       2.394   1.423  -0.013  0.00  0.00    +0.027 A 
ATOM      9  C   UNL     1       1.189   2.107   0.002  0.00  0.00    +0.064 A 
ATOM     10  N   UNL     1       1.154   3.500   0.009  0.00  0.00    -0.256 N 
ATOM     11  C   UNL     1      -0.041   4.166   0.024  0.00  0.00    +0.240 A 
ATOM     12  N   UNL     1       0.217   5.455   0.028  0.00  0.00    -0.109 NA
ATOM     13  N   UNL     1       1.607   5.620   0.016  0.00  0.00    -0.120 NA
ATOM     14  C   UNL     1       2.158   4.431   0.005  0.00  0.00    +0.198 A 
ENDROOT
BRANCH   1  15
ATOM     15  C   UNL     1      -2.503   4.242   0.048  0.00  0.00    +0.128 C 
BRANCH  15  17
ATOM     16  C   UNL     1      -4.263   5.304  -1.373  0.00  0.00    +0.005 C 
ATOM     17  C   UNL     1      -2.954   4.513  -1.389  0.00  0.00    +0.018 C 
ENDBRANCH  15  17
ENDBRANCH   1  15
BRANCH  14  18
ATOM     18  S   UNL     1       3.886   4.091  -0.014  0.00  0.00    -0.076 S 
BRANCH  18  19
ATOM     19  C   UNL     1       4.657   5.733  -0.012  0.00  0.00    +0.173 C 
BRANCH  19  20
ATOM     20  C   UNL     1       6.157   5.584  -0.028  0.00  0.00    +0.224 C 
ATOM     21  O   UNL     1       6.656   4.479  -0.039  0.00  0.00    -0.275 OA
ATOM     22  N   UNL     1       6.943   6.678  -0.029  0.00  0.00    -0.308 N 
ATOM     23  H   UNL     1       6.543   7.562  -0.020  0.00  0.00    +0.149 HD
BRANCH  22  24
ATOM     24  C   UNL     1       8.400   6.534  -0.044  0.00  0.00    +0.052 C 
ATOM     25  C   UNL     1       8.819   5.674   1.148  0.00  0.00    +0.049 C 
ATOM     26  C   UNL     1      10.258   6.046   1.602  0.00  0.00    +0.168 C 
ATOM     27  S   UNL     1      10.179   7.880   1.400  0.00  0.00    -0.029 S 
ATOM     28  O   UNL     1      11.456   8.362   1.003  0.00  0.00    -0.174 OA
ATOM     29  O   UNL     1       9.534   8.449   2.531  0.00  0.00    -0.174 OA
ATOM     30  C   UNL     1       9.036   7.938  -0.042  0.00  0.00    +0.191 C 
ATOM     31  C   UNL     1       8.807   5.813  -1.331  0.00  0.00    +0.033 C 
ENDBRANCH  22  24
ENDBRANCH  19  20
ENDBRANCH  18  19
ENDBRANCH  14  18
TORSDOF 6
