REMARK  Name = ZINC65298185
REMARK  6 active torsions:
REMARK  status: ('A' for Active; 'I' for Inactive)
REMARK    1  A    between atoms: C_1  and  C_2
REMARK    2  A    between atoms: C_11  and  C_23
REMARK    3  A    between atoms: C_14  and  C_16
REMARK    4  A    between atoms: C_27  and  O_30
REMARK    5  A    between atoms: C_28  and  O_29
REMARK    6  A    between atoms: O_30  and  C_31
REMARK                            x       y       z     vdW  Elec       q    Type
REMARK                         _______ _______ _______ _____ _____    ______ ____
ROOT
ATOM      1  C   UNL     1      -0.018   1.503   0.010  0.00  0.00    +0.109 C 
ATOM      2  C   UNL     1       0.002  -0.004   0.002  0.00  0.00    +0.212 C 
ATOM      3  O   UNL     1       1.060  -0.596  -0.011  0.00  0.00    -0.276 OA
ATOM      4  N   UNL     1      -1.156  -0.694   0.009  0.00  0.00    -0.302 N 
ATOM      5  C   UNL     1      -2.446   0.009   0.019  0.00  0.00    +0.108 C 
ATOM      6  C   UNL     1      -3.284  -0.514   1.190  0.00  0.00    +0.029 C 
ATOM      7  C   UNL     1      -3.402  -2.038   1.087  0.00  0.00    +0.032 C 
ATOM      8  C   UNL     1      -2.005  -2.660   1.178  0.00  0.00    +0.029 C 
ATOM      9  C   UNL     1      -1.153  -2.163   0.001  0.00  0.00    +0.108 C 
ATOM     10  N   UNL     1      -4.223  -2.532   2.202  0.00  0.00    +0.401 N 
ATOM     11  C   UNL     1      -4.466  -3.972   2.013  0.00  0.00    -0.028 C 
ATOM     12  C   UNL     1      -5.394  -4.147   0.807  0.00  0.00    +0.044 C 
ATOM     13  C   UNL     1      -4.883  -3.317  -0.338  0.00  0.00    +0.040 C 
ATOM     14  N   UNL     1      -4.010  -2.393  -0.191  0.00  0.00    -0.300 NA
ATOM     15  H   UNL     1      -3.735  -2.383   3.072  0.00  0.00    -0.081 HD
ATOM     16  H   UNL     1      -5.103  -2.040   2.217  0.00  0.00    -0.081 HD
ENDROOT
BRANCH  13  17
ATOM     17  C   UNL     1      -5.411  -3.580  -1.691  0.00  0.00    -0.004 A 
ATOM     18  C   UNL     1      -6.369  -4.577  -1.889  0.00  0.00    +0.011 A 
ATOM     19  C   UNL     1      -6.858  -4.818  -3.155  0.00  0.00    +0.020 A 
ATOM     20  C   UNL     1      -6.403  -4.072  -4.230  0.00  0.00    +0.041 A 
ATOM     21  C   UNL     1      -5.453  -3.082  -4.041  0.00  0.00    +0.020 A 
ATOM     22  C   UNL     1      -4.960  -2.828  -2.778  0.00  0.00    +0.011 A 
ATOM     23 CL   UNL     1      -7.024  -4.381  -5.821  0.00  0.00    -0.084 Cl
ENDBRANCH  13  17
BRANCH  11  24
ATOM     24  C   UNL     1      -5.118  -4.543   3.245  0.00  0.00    -0.016 A 
ATOM     25  C   UNL     1      -5.857  -3.724   4.080  0.00  0.00    +0.006 A 
ATOM     26  C   UNL     1      -6.456  -4.244   5.211  0.00  0.00    +0.004 A 
ATOM     27  C   UNL     1      -6.321  -5.587   5.513  0.00  0.00    +0.049 A 
ATOM     28  C   UNL     1      -5.582  -6.413   4.682  0.00  0.00    +0.161 A 
ATOM     29  C   UNL     1      -4.984  -5.890   3.539  0.00  0.00    +0.160 A 
BRANCH  29  30
ATOM     30  O   UNL     1      -4.263  -6.698   2.717  0.00  0.00    -0.503 OA
ATOM     31  H   UNL     1      -3.325  -6.757   2.946  0.00  0.00    +0.292 HD
ENDBRANCH  29  30
BRANCH  28  32
ATOM     32  O   UNL     1      -5.448  -7.733   4.978  0.00  0.00    -0.491 OA
ATOM     33  C   UNL     1      -6.095  -8.201   6.163  0.00  0.00    +0.277 C 
ENDBRANCH  28  32
ENDBRANCH  11  24
TORSDOF 4
