REMARK  Name = ZINC04503231
REMARK  4 active torsions:
REMARK  status: ('A' for Active; 'I' for Inactive)
REMARK    1  A    between atoms: C_1  and  C_2
REMARK    2  A    between atoms: C_6  and  C_7
REMARK    3  A    between atoms: C_10  and  C_20
REMARK    4  A    between atoms: C_10  and  O_24
REMARK                            x       y       z     vdW  Elec       q    Type
REMARK                         _______ _______ _______ _____ _____    ______ ____
ROOT
ATOM      1  C   UNL     1      -1.222   2.183   0.106  0.00  0.00    +0.272 C 
ATOM      2  O   UNL     1      -2.299   1.617   0.116  0.00  0.00    -0.268 OA
ATOM      3  N   UNL     1      -0.084   1.464   0.053  0.00  0.00    -0.148 N 
ATOM      4  C   UNL     1       0.002  -0.004   0.002  0.00  0.00    +0.259 C 
ATOM      5  C   UNL     1       1.519  -0.269  -0.142  0.00  0.00    +0.096 C 
ATOM      6  C   UNL     1       1.779  -0.883  -1.494  0.00  0.00    +0.014 C 
ATOM      7  C   UNL     1       3.123  -1.459  -1.754  0.00  0.00    +0.001 C 
ATOM      8  C   UNL     1       4.321  -0.752  -1.196  0.00  0.00    +0.000 C 
ATOM      9  C   UNL     1       4.285   0.744  -1.210  0.00  0.00    +0.006 C 
ATOM     10  C   UNL     1       3.612   1.362  -0.003  0.00  0.00    +0.053 C 
ATOM     11  C   UNL     1       2.126   1.117  -0.048  0.00  0.00    +0.045 C 
ATOM     12  N   UNL     1       1.207   1.988   0.030  0.00  0.00    -0.183 NA
ENDROOT
BRANCH   1  18
ATOM     13  C   UNL     1      -3.763   4.236   0.227  0.00  0.00    +0.048 C 
ATOM     14  C   UNL     1      -2.297   4.588   0.208  0.00  0.00    -0.001 A 
ATOM     15  C   UNL     1      -1.761   5.818   0.239  0.00  0.00    +0.199 A 
ATOM     16  O   UNL     1      -0.424   5.716   0.201  0.00  0.00    -0.470 OA
ATOM     17  C   UNL     1      -0.044   4.435   0.150  0.00  0.00    +0.208 A 
ATOM     18  C   UNL     1      -1.163   3.655   0.153  0.00  0.00    +0.079 A 
ENDBRANCH   1  18
BRANCH   4  19
ATOM     19  C   UNL     1      -0.758  -0.547  -1.210  0.00  0.00    +0.438 C 
ATOM     20  F   UNL     1      -0.229   0.010  -2.379  0.00  0.00    -0.166 F 
ATOM     21  F   UNL     1      -0.627  -1.939  -1.256  0.00  0.00    -0.166 F 
ATOM     22  F   UNL     1      -2.111  -0.209  -1.102  0.00  0.00    -0.166 F 
ENDBRANCH   4  19
BRANCH   4  23
ATOM     23  O   UNL     1      -0.501  -0.580   1.209  0.00  0.00    -0.363 OA
ATOM     24  H   UNL     1      -1.432  -0.384   1.381  0.00  0.00    +0.212 HD
ENDBRANCH   4  23
TORSDOF 3
