REMARK  Name = ZINC43304089
REMARK  7 active torsions:
REMARK  status: ('A' for Active; 'I' for Inactive)
REMARK    1  A    between atoms: C_1  and  C_2
REMARK    2  A    between atoms: C_2  and  N_3
REMARK    3  A    between atoms: N_6  and  C_9
REMARK    4  A    between atoms: C_9  and  C_11
REMARK    5  A    between atoms: C_9  and  C_12
REMARK    6  A    between atoms: C_16  and  C_23
REMARK    7  A    between atoms: C_19  and  C_22
REMARK                            x       y       z     vdW  Elec       q    Type
REMARK                         _______ _______ _______ _____ _____    ______ ____
ROOT
ATOM      1  C   UNL     1       4.098  -2.544   3.678  0.00  0.00    +0.016 C 
ATOM      2  C   UNL     1       3.722  -4.021   3.553  0.00  0.00    -0.004 C 
ENDROOT
BRANCH   1   3
ATOM      3  C   UNL     1       5.547  -2.426   4.076  0.00  0.00    +0.202 C 
ATOM      4  O   UNL     1       6.405  -2.337   3.223  0.00  0.00    -0.277 OA
ATOM      5  N   UNL     1       5.890  -2.421   5.379  0.00  0.00    -0.302 N 
ATOM      6  C   UNL     1       4.857  -2.411   6.425  0.00  0.00    +0.111 C 
ATOM      7  C   UNL     1       5.117  -3.575   7.386  0.00  0.00    +0.004 C 
ATOM      8  C   UNL     1       6.550  -3.482   7.917  0.00  0.00    +0.009 C 
ATOM      9  C   UNL     1       7.535  -3.590   6.751  0.00  0.00    +0.004 C 
ATOM     10  C   UNL     1       7.303  -2.432   5.782  0.00  0.00    +0.111 C 
ATOM     11  C   UNL     1       8.967  -3.531   7.286  0.00  0.00    +0.009 C 
ATOM     12  C   UNL     1       4.931  -4.900   6.646  0.00  0.00    +0.009 C 
ENDBRANCH   1   3
BRANCH   1  16
ATOM     13  N   UNL     1       2.605   0.069   0.734  0.00  0.00    -0.306 NA
ATOM     14  C   UNL     1       3.996   0.250   1.173  0.00  0.00    +0.066 C 
ATOM     15  C   UNL     1       4.196  -0.444   2.522  0.00  0.00    -0.062 C 
ATOM     16  N   UNL     1       3.889  -1.874   2.387  0.00  0.00    +0.389 N 
ATOM     17  C   UNL     1       2.490  -2.040   1.971  0.00  0.00    -0.062 C 
ATOM     18  C   UNL     1       2.276  -1.359   0.618  0.00  0.00    +0.066 C 
ATOM     19  H   UNL     1       4.497  -2.284   1.694  0.00  0.00    -0.081 HD
BRANCH  13  21
ATOM     20  C   UNL     1       2.470   2.280  -0.310  0.00  0.00    +0.020 C 
ATOM     21  C   UNL     1       2.358   0.771  -0.533  0.00  0.00    +0.081 C 
ENDBRANCH  13  21
ENDBRANCH   1  16
TORSDOF 3
