REMARK  Name = ZINC67017544
REMARK  7 active torsions:
REMARK  status: ('A' for Active; 'I' for Inactive)
REMARK    1  A    between atoms: C_1  and  C_2
REMARK    2  A    between atoms: C_2  and  C_4
REMARK    3  A    between atoms: C_2  and  N_15
REMARK    4  A    between atoms: C_8  and  S_10
REMARK    5  A    between atoms: S_10  and  N_13
REMARK    6  A    between atoms: N_13  and  C_14
REMARK    7  A    between atoms: N_18  and  C_19
REMARK                            x       y       z     vdW  Elec       q    Type
REMARK                         _______ _______ _______ _____ _____    ______ ____
ROOT
ATOM      1  C   UNL     1      -0.013   1.505   0.026  0.00  0.00    +0.033 C 
ATOM      2  C   UNL     1      -0.002  -0.025   0.007  0.00  0.00    +0.102 C 
ENDROOT
BRANCH   2   3
ATOM      3  C   UNL     1       0.720  -0.537   1.227  0.00  0.00    -0.026 A 
ATOM      4  C   UNL     1       2.103  -0.556   1.254  0.00  0.00    +0.005 A 
ATOM      5  C   UNL     1       2.765  -1.025   2.373  0.00  0.00    +0.002 A 
ATOM      6  C   UNL     1       2.045  -1.476   3.464  0.00  0.00    +0.028 A 
ATOM      7  C   UNL     1       0.664  -1.456   3.437  0.00  0.00    +0.106 A 
ATOM      8  C   UNL     1       0.001  -0.982   2.320  0.00  0.00    +0.034 A 
BRANCH   7   9
ATOM      9  S   UNL     1      -0.253  -2.030   4.827  0.00  0.00    +0.058 S 
ATOM     10  O   UNL     1      -1.531  -2.416   4.340  0.00  0.00    -0.153 OA
ATOM     11  O   UNL     1       0.596  -2.926   5.532  0.00  0.00    -0.153 OA
BRANCH   9  12
ATOM     12  N   UNL     1      -0.499  -0.730   5.823  0.00  0.00    -0.193 NA
ATOM     13  C   UNL     1      -1.322   0.394   5.370  0.00  0.00    +0.127 C 
ATOM     14  H   UNL     1      -0.098  -0.713   6.706  0.00  0.00    +0.148 HD
ENDBRANCH   9  12
ENDBRANCH   7   9
ENDBRANCH   2   3
BRANCH   2  15
ATOM     15  N   UNL     1       0.684  -0.493  -1.199  0.00  0.00    -0.293 N 
ATOM     16  C   UNL     1       0.006  -0.612  -2.357  0.00  0.00    +0.304 C 
ATOM     17  O   UNL     1      -1.177  -0.331  -2.401  0.00  0.00    -0.252 OA
ATOM     18  N   UNL     1       0.637  -1.043  -3.467  0.00  0.00    -0.268 N 
ATOM     19  H   UNL     1       1.628  -0.717  -1.165  0.00  0.00    +0.151 HD
ATOM     20  H   UNL     1       1.596  -1.189  -3.454  0.00  0.00    +0.156 HD
BRANCH  18  21
ATOM     21  C   UNL     1      -0.091  -1.280  -4.640  0.00  0.00    +0.053 A 
ATOM     22  C   UNL     1      -1.445  -1.579  -4.569  0.00  0.00    +0.025 A 
ATOM     23  C   UNL     1      -2.161  -1.812  -5.727  0.00  0.00    +0.002 A 
ATOM     24  C   UNL     1      -1.530  -1.748  -6.957  0.00  0.00    +0.002 A 
ATOM     25  C   UNL     1      -0.182  -1.451  -7.031  0.00  0.00    +0.022 A 
ATOM     26  C   UNL     1       0.539  -1.210  -5.876  0.00  0.00    +0.062 A 
ATOM     27 CL   UNL     1       2.230  -0.829  -5.971  0.00  0.00    -0.082 Cl
ENDBRANCH  18  21
ENDBRANCH   2  15
TORSDOF 5
