REMARK  Name = ZINC56913057
REMARK  6 active torsions:
REMARK  status: ('A' for Active; 'I' for Inactive)
REMARK    1  A    between atoms: C_1  and  C_2
REMARK    2  A    between atoms: C_5  and  N_9
REMARK    3  A    between atoms: C_7  and  C_8
REMARK    4  A    between atoms: C_10  and  N_26
REMARK    5  A    between atoms: C_17  and  C_19
REMARK    6  A    between atoms: C_20  and  C_21
REMARK                            x       y       z     vdW  Elec       q    Type
REMARK                         _______ _______ _______ _____ _____    ______ ____
ROOT
ATOM      1  N   UNL     1       0.059  -4.172  -0.021  0.00  0.00    -0.215 N 
ATOM      2  C   UNL     1      -0.561  -4.977  -0.925  0.00  0.00    +0.146 A 
ATOM      3  C   UNL     1      -0.294  -6.266  -0.576  0.00  0.00    +0.037 A 
ATOM      4  C   UNL     1       0.508  -6.244   0.567  0.00  0.00    +0.087 A 
ATOM      5  N   UNL     1       0.724  -4.994   0.897  0.00  0.00    -0.168 NA
ATOM      6  C   UNL     1       0.814  -7.665   0.967  0.00  0.00    +0.166 C 
ATOM      7  N   UNL     1       0.154  -8.553   0.004  0.00  0.00    -0.288 N 
ATOM      8  C   UNL     1      -0.541  -7.700  -0.966  0.00  0.00    +0.149 C 
ATOM      9  C   UNL     1       0.183  -9.900   0.008  0.00  0.00    +0.240 C 
ATOM     10  O   UNL     1      -0.410 -10.525  -0.853  0.00  0.00    -0.271 OA
ENDROOT
BRANCH   1  15
ATOM     11  C   UNL     1      -0.018   1.503   0.010  0.00  0.00    +0.044 C 
ATOM     12  C   UNL     1       0.002  -0.004   0.002  0.00  0.00    -0.047 A 
ATOM     13  C   UNL     1       0.006  -0.688  -1.200  0.00  0.00    +0.006 A 
ATOM     14  C   UNL     1       0.025  -2.068  -1.211  0.00  0.00    +0.028 A 
ATOM     15  C   UNL     1       0.040  -2.771  -0.013  0.00  0.00    +0.068 A 
ATOM     16  C   UNL     1       0.037  -2.082   1.192  0.00  0.00    +0.031 A 
ATOM     17  C   UNL     1       0.023  -0.700   1.196  0.00  0.00    -0.046 A 
ATOM     18  C   UNL     1       0.025   0.048   2.504  0.00  0.00    +0.044 C 
ENDBRANCH   1  15
BRANCH   2  19
ATOM     19  N   UNL     1      -1.332  -4.558  -2.013  0.00  0.00    -0.308 N 
ATOM     20  C   UNL     1      -1.260  -5.061  -3.281  0.00  0.00    +0.092 A 
ATOM     21  C   UNL     1      -2.156  -4.406  -4.046  0.00  0.00    +0.019 A 
ATOM     22  C   UNL     1      -2.807  -3.465  -3.223  0.00  0.00    +0.019 A 
ATOM     23  C   UNL     1      -2.288  -3.583  -1.984  0.00  0.00    +0.092 A 
ENDBRANCH   2  19
BRANCH   9  24
ATOM     24  C   UNL     1       0.901 -10.590   1.014  0.00  0.00    +0.071 C 
ATOM     25  C   UNL     1       0.930 -11.946   1.019  0.00  0.00    +0.051 C 
BRANCH  25  26
ATOM     26  C   UNL     1       1.648 -12.635   2.026  0.00  0.00    +0.128 A 
ATOM     27  C   UNL     1       1.766 -14.004   2.147  0.00  0.00    +0.049 A 
ATOM     28  C   UNL     1       2.562 -14.238   3.279  0.00  0.00    +0.042 A 
ATOM     29  C   UNL     1       2.891 -13.031   3.792  0.00  0.00    +0.195 A 
ATOM     30  O   UNL     1       2.345 -12.070   3.034  0.00  0.00    -0.464 OA
ENDBRANCH  25  26
ENDBRANCH   9  24
TORSDOF 4
