REMARK  Name = ZINC39635796
REMARK  7 active torsions:
REMARK  status: ('A' for Active; 'I' for Inactive)
REMARK    1  A    between atoms: C_1  and  C_2
REMARK    2  A    between atoms: C_2  and  O_3
REMARK    3  A    between atoms: O_3  and  C_4
REMARK    4  A    between atoms: C_7  and  C_10
REMARK    5  A    between atoms: C_14  and  C_23
REMARK    6  A    between atoms: N_25  and  C_26
REMARK    7  A    between atoms: C_32  and  C_34
REMARK                            x       y       z     vdW  Elec       q    Type
REMARK                         _______ _______ _______ _____ _____    ______ ____
ROOT
ATOM      1  C   UNL     1      -1.996  -6.070  -0.014  0.00  0.00    +0.247 C 
ATOM      2  O   UNL     1      -1.029  -6.798  -0.132  0.00  0.00    -0.270 OA
ATOM      3  N   UNL     1      -3.230  -6.601   0.093  0.00  0.00    -0.296 N 
ATOM      4  C   UNL     1      -4.527  -5.885   0.115  0.00  0.00    +0.121 C 
ATOM      5  C   UNL     1      -5.477  -6.773  -0.720  0.00  0.00    +0.100 C 
ATOM      6  C   UNL     1      -4.862  -8.180  -0.651  0.00  0.00    -0.004 C 
ATOM      7  C   UNL     1      -3.596  -8.033   0.207  0.00  0.00    +0.115 C 
ATOM      8  C   UNL     1      -4.490  -8.665  -2.049  0.00  0.00    -0.010 C 
ATOM      9  C   UNL     1      -3.933 -10.088  -1.960  0.00  0.00    -0.082 C 
ATOM     10  N   UNL     1      -4.942 -10.974  -1.365  0.00  0.00    +0.379 N 
ATOM     11  C   UNL     1      -5.225 -10.556   0.013  0.00  0.00    -0.082 C 
ATOM     12  C   UNL     1      -5.837  -9.152   0.007  0.00  0.00    -0.010 C 
ATOM     13  H   UNL     1      -5.790 -10.929  -1.910  0.00  0.00    -0.086 HD
ATOM     14  H   UNL     1      -4.596 -11.921  -1.363  0.00  0.00    -0.086 HD
ENDROOT
BRANCH   1  18
ATOM     15  C   UNL     1      -1.482  -1.855   0.066  0.00  0.00    +0.121 A 
ATOM     16  C   UNL     1      -2.599  -2.429   0.663  0.00  0.00    +0.046 A 
ATOM     17  C   UNL     1      -2.769  -3.795   0.639  0.00  0.00    +0.016 A 
ATOM     18  C   UNL     1      -1.817  -4.605   0.014  0.00  0.00    +0.037 A 
ATOM     19  C   UNL     1      -0.696  -4.024  -0.585  0.00  0.00    +0.016 A 
ATOM     20  C   UNL     1      -0.536  -2.657  -0.561  0.00  0.00    +0.046 A 
BRANCH  15  21
ATOM     21  O   UNL     1      -1.318  -0.508   0.092  0.00  0.00    -0.492 OA
BRANCH  21  23
ATOM     22  C   UNL     1      -1.973   1.742   0.680  0.00  0.00    +0.048 C 
ATOM     23  C   UNL     1      -2.328   0.256   0.754  0.00  0.00    +0.225 C 
ENDBRANCH  21  23
ENDBRANCH  15  21
ENDBRANCH   1  18
BRANCH   5  24
ATOM     24  C   UNL     1      -5.527  -6.289  -2.147  0.00  0.00    +0.218 C 
ATOM     25  O   UNL     1      -4.534  -5.826  -2.665  0.00  0.00    -0.275 OA
ATOM     26  N   UNL     1      -6.676  -6.372  -2.847  0.00  0.00    -0.312 N 
ATOM     27  H   UNL     1      -7.471  -6.743  -2.432  0.00  0.00    +0.149 HD
BRANCH  26  28
ATOM     28  C   UNL     1      -6.725  -5.903  -4.233  0.00  0.00    +0.076 C 
ATOM     29  C   UNL     1      -6.993  -4.396  -4.253  0.00  0.00    +0.022 C 
ATOM     30  C   UNL     1      -8.331  -4.108  -3.569  0.00  0.00    +0.002 C 
ATOM     31  C   UNL     1      -9.452  -4.835  -4.315  0.00  0.00    +0.000 C 
ATOM     32  C   UNL     1      -9.184  -6.342  -4.296  0.00  0.00    +0.005 C 
ATOM     33  C   UNL     1      -7.845  -6.630  -4.979  0.00  0.00    +0.006 C 
ATOM     34  C   UNL     1      -7.577  -8.136  -4.960  0.00  0.00    +0.009 C 
ENDBRANCH  26  28
ENDBRANCH   5  24
TORSDOF 5
