REMARK  Name = ZINC65361360
REMARK  7 active torsions:
REMARK  status: ('A' for Active; 'I' for Inactive)
REMARK    1  A    between atoms: C_1  and  C_2
REMARK    2  A    between atoms: N_5  and  C_8
REMARK    3  A    between atoms: C_8  and  C_9
REMARK    4  A    between atoms: C_8  and  C_10
REMARK    5  A    between atoms: C_10  and  N_11
REMARK    6  A    between atoms: N_14  and  C_15
REMARK    7  A    between atoms: C_17  and  N_22
REMARK                            x       y       z     vdW  Elec       q    Type
REMARK                         _______ _______ _______ _____ _____    ______ ____
ROOT
ATOM      1  N   UNL     1       1.973  -3.960   2.396  0.00  0.00    -0.301 N 
ATOM      2  C   UNL     1       2.616  -4.127   3.568  0.00  0.00    +0.304 C 
ATOM      3  O   UNL     1       3.729  -4.617   3.588  0.00  0.00    -0.253 OA
ATOM      4  N   UNL     1       2.025  -3.751   4.720  0.00  0.00    -0.268 N 
ATOM      5  H   UNL     1       1.086  -3.570   2.380  0.00  0.00    +0.150 HD
ATOM      6  H   UNL     1       1.169  -3.295   4.699  0.00  0.00    +0.156 HD
ENDROOT
BRANCH   4   7
ATOM      7  C   UNL     1       2.647  -4.019   5.946  0.00  0.00    +0.055 A 
ATOM      8  C   UNL     1       4.030  -4.001   6.041  0.00  0.00    +0.048 A 
ATOM      9  C   UNL     1       4.643  -4.267   7.257  0.00  0.00    +0.038 A 
ATOM     10  C   UNL     1       3.869  -4.550   8.376  0.00  0.00    +0.025 A 
ATOM     11  C   UNL     1       2.491  -4.567   8.279  0.00  0.00    +0.023 A 
ATOM     12  C   UNL     1       1.878  -4.298   7.069  0.00  0.00    +0.062 A 
ATOM     13 CL   UNL     1       0.146  -4.313   6.953  0.00  0.00    -0.082 Cl
BRANCH   9  14
ATOM     14  N   UNL     1       6.039  -4.250   7.357  0.00  0.00    -0.271 N 
ATOM     15  C   UNL     1       6.941  -3.840   6.275  0.00  0.00    +0.114 C 
ATOM     16  C   UNL     1       8.301  -3.565   6.955  0.00  0.00    +0.029 C 
ATOM     17  C   UNL     1       8.211  -4.457   8.214  0.00  0.00    +0.098 C 
ATOM     18  C   UNL     1       6.725  -4.602   8.458  0.00  0.00    +0.220 C 
ATOM     19  O   UNL     1       6.225  -4.982   9.496  0.00  0.00    -0.275 OA
ENDBRANCH   9  14
ENDBRANCH   4   7
BRANCH   1  20
ATOM     20  C   UNL     1       2.616  -4.369   1.144  0.00  0.00    +0.090 C 
BRANCH  20  21
ATOM     21  C   UNL     1       1.737  -3.957  -0.039  0.00  0.00    -0.054 C 
ATOM     22  C   UNL     1       2.460  -4.277  -1.348  0.00  0.00    -0.012 C 
BRANCH  21  27
ATOM     23  C   UNL     1       1.161   1.660  -0.840  0.00  0.00    +0.007 C 
ATOM     24  C   UNL     1       1.492   0.179  -1.034  0.00  0.00    -0.018 C 
ATOM     25  C   UNL     1       2.464  -0.276   0.058  0.00  0.00    -0.016 C 
ATOM     26  C   UNL     1       2.729  -1.775  -0.096  0.00  0.00    -0.078 C 
ATOM     27  N   UNL     1       1.467  -2.514   0.031  0.00  0.00    +0.382 N 
ATOM     28  C   UNL     1       0.556  -2.135  -1.056  0.00  0.00    -0.078 C 
ATOM     29  C   UNL     1       0.208  -0.649  -0.939  0.00  0.00    -0.016 C 
ATOM     30  H   UNL     1       1.039  -2.297   0.919  0.00  0.00    -0.081 HD
ENDBRANCH  21  27
ENDBRANCH  20  21
ENDBRANCH   1  20
TORSDOF 5
