REMARK  Name = ZINC59829862
REMARK  10 active torsions:
REMARK  status: ('A' for Active; 'I' for Inactive)
REMARK    1  A    between atoms: C_1  and  C_2
REMARK    2  A    between atoms: C_3  and  C_11
REMARK    3  A    between atoms: C_4  and  C_10
REMARK    4  A    between atoms: N_5  and  C_7
REMARK    5  A    between atoms: C_7  and  C_8
REMARK    6  A    between atoms: N_12  and  N_13
REMARK    7  A    between atoms: C_17  and  S_20
REMARK    8  A    between atoms: N_18  and  N_19
REMARK    9  A    between atoms: S_20  and  C_21
REMARK   10  A    between atoms: C_21  and  C_22
REMARK                            x       y       z     vdW  Elec       q    Type
REMARK                         _______ _______ _______ _____ _____    ______ ____
ROOT
ATOM      1  N   UNL     1      -0.036   1.333  -4.151  0.00  0.00    -0.204 N 
ATOM      2  C   UNL     1      -0.057   2.690  -4.438  0.00  0.00    +0.254 A 
ATOM      3  N   UNL     1      -0.060   3.664  -3.561  0.00  0.00    -0.109 NA
ATOM      4  N   UNL     1      -0.082   4.878  -4.261  0.00  0.00    -0.119 NA
ATOM      5  C   UNL     1      -0.092   4.605  -5.544  0.00  0.00    +0.210 A 
ATOM      6  N   UNL     1      -0.070   3.247  -5.687  0.00  0.00    -0.211 N 
ATOM      7  H   UNL     1      -0.031   0.684  -4.872  0.00  0.00    +0.177 HD
ENDROOT
BRANCH   6   8
ATOM      8  N   UNL     1      -0.067   2.564  -6.870  0.00  0.00    -0.294 N 
ATOM      9  H   UNL     1      -1.008   2.371  -7.179  0.00  0.00    +0.163 HD
ATOM     10  H   UNL     1       0.449   3.067  -7.577  0.00  0.00    +0.163 HD
ENDBRANCH   6   8
BRANCH   1  12
ATOM     11  C   UNL     1      -0.005  -0.369  -2.549  0.00  0.00    +0.141 C 
ATOM     12  N   UNL     1      -0.024   0.900  -2.818  0.00  0.00    -0.187 NA
BRANCH  11  15
ATOM     13  C   UNL     1      -0.018   1.503   0.010  0.00  0.00    +0.068 C 
ATOM     14  C   UNL     1       0.002  -0.004   0.002  0.00  0.00    +0.069 A 
ATOM     15  C   UNL     1       0.008  -0.826  -1.145  0.00  0.00    +0.038 A 
ATOM     16  C   UNL     1       0.029  -2.134  -0.712  0.00  0.00    +0.045 A 
ATOM     17  N   UNL     1       0.035  -2.111   0.636  0.00  0.00    -0.264 N 
ATOM     18  N   UNL     1       0.023  -0.776   1.055  0.00  0.00    -0.175 NA
ATOM     19  C   UNL     1       0.041  -3.363  -1.584  0.00  0.00    +0.066 C 
BRANCH  17  20
ATOM     20  C   UNL     1       0.056  -3.285   1.513  0.00  0.00    +0.170 C 
BRANCH  20  21
ATOM     21  C   UNL     1       1.484  -3.667   1.807  0.00  0.00    -0.012 C 
ATOM     22  C   UNL     1       1.892  -3.771   3.048  0.00  0.00    +0.006 C 
ENDBRANCH  20  21
ENDBRANCH  17  20
ENDBRANCH  11  15
ENDBRANCH   1  12
BRANCH   5  23
ATOM     23  S   UNL     1      -0.121   5.784  -6.853  0.00  0.00    -0.080 S 
BRANCH  23  24
ATOM     24  C   UNL     1      -0.132   7.386  -6.000  0.00  0.00    +0.112 C 
BRANCH  24  25
ATOM     25  C   UNL     1      -0.157   8.496  -7.019  0.00  0.00    -0.036 A 
ATOM     26  C   UNL     1       1.029   9.017  -7.502  0.00  0.00    +0.004 A 
ATOM     27  C   UNL     1       1.007  10.036  -8.436  0.00  0.00    +0.001 A 
ATOM     28  C   UNL     1      -0.201  10.535  -8.887  0.00  0.00    +0.015 A 
ATOM     29  C   UNL     1      -1.388  10.014  -8.403  0.00  0.00    +0.018 A 
ATOM     30  C   UNL     1      -1.365   8.991  -7.473  0.00  0.00    +0.019 A 
ATOM     31 BR   UNL     1      -3.041  10.696  -9.019  0.00  0.00    -0.050 Br
ENDBRANCH  24  25
ENDBRANCH  23  24
ENDBRANCH   5  23
TORSDOF 8
