REMARK  Name = ZINC08051495
REMARK  7 active torsions:
REMARK  status: ('A' for Active; 'I' for Inactive)
REMARK    1  A    between atoms: C_1  and  N_2
REMARK    2  A    between atoms: N_2  and  C_3
REMARK    3  A    between atoms: N_2  and  C_12
REMARK    4  A    between atoms: C_3  and  C_4
REMARK    5  A    between atoms: C_15  and  S_21
REMARK    6  A    between atoms: C_17  and  N_18
REMARK    7  A    between atoms: S_21  and  N_24
REMARK                            x       y       z     vdW  Elec       q    Type
REMARK                         _______ _______ _______ _____ _____    ______ ____
ROOT
ATOM      1  C   UNL     1      -1.225   1.755   0.017  0.00  0.00    +0.060 A 
ATOM      2  C   UNL     1      -0.013   1.076   0.008  0.00  0.00    +0.027 A 
ATOM      3  C   UNL     1       1.173   1.783   0.000  0.00  0.00    +0.030 A 
ATOM      4  C   UNL     1       1.155   3.166   0.007  0.00  0.00    +0.107 A 
ATOM      5  C   UNL     1      -0.049   3.845   0.023  0.00  0.00    +0.063 A 
ATOM      6  C   UNL     1      -1.239   3.144   0.030  0.00  0.00    +0.149 A 
ENDROOT
BRANCH   6   7
ATOM      7  N   UNL     1      -2.528   3.871   0.046  0.00  0.00    +0.058 N 
ATOM      8  O   UNL     1      -2.539   5.089   0.053  0.00  0.00    -0.126 OA
ATOM      9  O   UNL     1      -3.576   3.252   0.052  0.00  0.00    -0.126 OA
ENDBRANCH   6   7
BRANCH   4  10
ATOM     10  S   UNL     1       2.671   4.065  -0.002  0.00  0.00    +0.056 S 
ATOM     11  O   UNL     1       2.390   5.340   0.558  0.00  0.00    -0.153 OA
ATOM     12  O   UNL     1       3.660   3.198   0.535  0.00  0.00    -0.153 OA
BRANCH  10  13
ATOM     13  N   UNL     1       3.077   4.322  -1.587  0.00  0.00    -0.204 NA
ATOM     14  H   UNL     1       2.504   3.990  -2.295  0.00  0.00    +0.144 HD
ATOM     15  H   UNL     1       3.889   4.806  -1.807  0.00  0.00    +0.144 HD
ENDBRANCH  10  13
ENDBRANCH   4  10
BRANCH   1  17
ATOM     16  C   UNL     1      -2.578   0.263  -1.216  0.00  0.00    +0.129 C 
ATOM     17  N   UNL     1      -2.426   1.042   0.019  0.00  0.00    -0.327 N 
BRANCH  17  18
ATOM     18  C   UNL     1      -2.523   0.178   1.203  0.00  0.00    +0.141 C 
BRANCH  18  19
ATOM     19  C   UNL     1      -3.919  -0.383   1.302  0.00  0.00    -0.012 A 
ATOM     20  C   UNL     1      -4.159  -1.703   0.966  0.00  0.00    +0.008 A 
ATOM     21  C   UNL     1      -5.438  -2.218   1.057  0.00  0.00    +0.020 A 
ATOM     22  C   UNL     1      -6.479  -1.413   1.484  0.00  0.00    +0.042 A 
ATOM     23  C   UNL     1      -6.240  -0.093   1.819  0.00  0.00    +0.040 A 
ATOM     24  C   UNL     1      -4.958   0.421   1.733  0.00  0.00    +0.047 A 
ATOM     25 CL   UNL     1      -4.656   2.076   2.161  0.00  0.00    -0.083 Cl
ATOM     26 CL   UNL     1      -8.086  -2.060   1.597  0.00  0.00    -0.083 Cl
ENDBRANCH  18  19
ENDBRANCH  17  18
ENDBRANCH   1  17
TORSDOF 6
