REMARK  Name = ZINC15930214
REMARK  6 active torsions:
REMARK  status: ('A' for Active; 'I' for Inactive)
REMARK    1  A    between atoms: C_1  and  C_2
REMARK    2  A    between atoms: C_5  and  N_8
REMARK    3  A    between atoms: C_12  and  N_13
REMARK    4  A    between atoms: N_13  and  C_14
REMARK    5  A    between atoms: C_17  and  O_21
REMARK    6  A    between atoms: C_19  and  C_20
REMARK                            x       y       z     vdW  Elec       q    Type
REMARK                         _______ _______ _______ _____ _____    ______ ____
ROOT
ATOM      1  N   UNL     1       5.473   0.749   2.550  0.00  0.00    -0.190 N 
ATOM      2  C   UNL     1       4.153   0.998   2.434  0.00  0.00    +0.265 C 
ATOM      3  O   UNL     1       3.576   0.833   1.375  0.00  0.00    -0.269 OA
ATOM      4  C   UNL     1       3.428   1.483   3.621  0.00  0.00    +0.113 C 
ATOM      5  C   UNL     1       2.075   1.766   3.576  0.00  0.00    +0.090 C 
ATOM      6  C   UNL     1       4.207   1.648   4.862  0.00  0.00    +0.258 C 
ATOM      7  O   UNL     1       3.677   2.040   5.884  0.00  0.00    -0.270 OA
ATOM      8  N   UNL     1       5.523   1.353   4.832  0.00  0.00    -0.235 N 
ATOM      9  C   UNL     1       6.119   0.921   3.712  0.00  0.00    +0.320 C 
ATOM     10  O   UNL     1       7.308   0.672   3.752  0.00  0.00    -0.251 OA
ATOM     11  H   UNL     1       6.050   1.456   5.640  0.00  0.00    +0.159 HD
ENDROOT
BRANCH   1  16
ATOM     12  C   UNL     1       8.356  -1.101  -1.975  0.00  0.00    +0.044 C 
ATOM     13  C   UNL     1       7.590  -0.611  -0.773  0.00  0.00    -0.050 A 
ATOM     14  C   UNL     1       7.413  -1.440   0.319  0.00  0.00    +0.005 A 
ATOM     15  C   UNL     1       6.712  -0.993   1.421  0.00  0.00    +0.024 A 
ATOM     16  C   UNL     1       6.185   0.291   1.433  0.00  0.00    +0.046 A 
ATOM     17  C   UNL     1       6.358   1.120   0.332  0.00  0.00    +0.024 A 
ATOM     18  C   UNL     1       7.066   0.669  -0.765  0.00  0.00    +0.005 A 
ENDBRANCH   1  16
BRANCH   5  19
ATOM     19  N   UNL     1       1.363   1.482   2.466  0.00  0.00    -0.319 N 
ATOM     20  H   UNL     1       1.814   1.154   1.672  0.00  0.00    +0.152 HD
BRANCH  19  21
ATOM     21  C   UNL     1      -0.024   1.660   2.459  0.00  0.00    +0.034 A 
ATOM     22  C   UNL     1      -0.670   2.130   3.596  0.00  0.00    +0.027 A 
ATOM     23  C   UNL     1      -2.039   2.305   3.588  0.00  0.00    +0.047 A 
ATOM     24  C   UNL     1      -2.771   2.014   2.446  0.00  0.00    +0.117 A 
ATOM     25  C   UNL     1      -2.126   1.550   1.308  0.00  0.00    +0.050 A 
ATOM     26  C   UNL     1      -0.757   1.368   1.316  0.00  0.00    -0.026 A 
ATOM     27  C   UNL     1      -0.058   0.859   0.082  0.00  0.00    +0.046 C 
BRANCH  24  28
ATOM     28  O   UNL     1      -4.119   2.188   2.439  0.00  0.00    -0.507 OA
ATOM     29  H   UNL     1      -4.400   3.068   2.156  0.00  0.00    +0.292 HD
ENDBRANCH  24  28
ENDBRANCH  19  21
ENDBRANCH   5  19
TORSDOF 4
