REMARK  Name = ZINC40124834
REMARK  9 active torsions:
REMARK  status: ('A' for Active; 'I' for Inactive)
REMARK    1  A    between atoms: C_1  and  C_2
REMARK    2  A    between atoms: C_2  and  C_3
REMARK    3  A    between atoms: C_2  and  C_4
REMARK    4  A    between atoms: C_2  and  C_5
REMARK    5  A    between atoms: C_8  and  C_11
REMARK    6  A    between atoms: C_13  and  C_19
REMARK    7  A    between atoms: C_19  and  C_21
REMARK    8  A    between atoms: C_27  and  O_30
REMARK    9  A    between atoms: O_30  and  C_31
REMARK                            x       y       z     vdW  Elec       q    Type
REMARK                         _______ _______ _______ _____ _____    ______ ____
ROOT
ATOM      1  C   UNL     1       2.714  -1.863  -4.745  0.00  0.00    +0.142 C 
ATOM      2  C   UNL     1       3.687  -2.966  -4.399  0.00  0.00    +0.079 C 
ATOM      3  C   UNL     1       4.915  -2.533  -4.765  0.00  0.00    +0.249 C 
ATOM      4  C   UNL     1       4.800  -1.180  -5.345  0.00  0.00    +0.285 C 
ATOM      5  O   UNL     1       5.729  -0.521  -5.769  0.00  0.00    -0.267 OA
ATOM      6  N   UNL     1       3.513  -0.783  -5.337  0.00  0.00    -0.298 N 
ATOM      7  O   UNL     1       6.067  -3.229  -4.623  0.00  0.00    -0.282 OA
ATOM      8  H   UNL     1       3.173   0.065  -5.663  0.00  0.00    +0.150 HD
ENDROOT
BRANCH   1  12
ATOM      9  C   UNL     1       0.750  -0.476  -1.215  0.00  0.00    -0.042 A 
ATOM     10  C   UNL     1       0.064  -1.259  -2.125  0.00  0.00    +0.004 A 
ATOM     11  C   UNL     1       0.700  -1.708  -3.268  0.00  0.00    +0.006 A 
ATOM     12  C   UNL     1       2.021  -1.373  -3.500  0.00  0.00    -0.023 A 
ATOM     13  C   UNL     1       2.706  -0.590  -2.590  0.00  0.00    +0.006 A 
ATOM     14  C   UNL     1       2.069  -0.138  -1.450  0.00  0.00    +0.004 A 
BRANCH   9  16
ATOM     15  C   UNL     1       0.054   1.543   0.046  0.00  0.00    +0.015 C 
ATOM     16  C   UNL     1       0.057   0.013   0.031  0.00  0.00    -0.013 C 
ATOM     17  C   UNL     1       0.797  -0.508   1.264  0.00  0.00    +0.015 C 
ATOM     18  C   UNL     1      -1.385  -0.500   0.047  0.00  0.00    +0.015 C 
ENDBRANCH   9  16
ENDBRANCH   1  12
BRANCH   2  19
ATOM     19  C   UNL     1       3.362  -4.257  -3.782  0.00  0.00    +0.230 C 
ATOM     20  O   UNL     1       3.773  -4.520  -2.666  0.00  0.00    -0.283 OA
BRANCH  19  21
ATOM     21  C   UNL     1       2.542  -5.234  -4.511  0.00  0.00    +0.176 A 
ATOM     22  C   UNL     1       2.096  -6.417  -4.005  0.00  0.00    +0.062 A 
ATOM     23  C   UNL     1       1.328  -7.050  -5.075  0.00  0.00    +0.025 A 
ATOM     24  C   UNL     1       0.626  -8.255  -5.188  0.00  0.00    +0.012 A 
ATOM     25  C   UNL     1      -0.006  -8.565  -6.358  0.00  0.00    +0.004 A 
ATOM     26  C   UNL     1       0.042  -7.693  -7.438  0.00  0.00    +0.049 A 
ATOM     27  C   UNL     1       0.731  -6.497  -7.349  0.00  0.00    +0.163 A 
ATOM     28  C   UNL     1       1.383  -6.161  -6.163  0.00  0.00    +0.177 A 
ATOM     29  O   UNL     1       2.111  -5.092  -5.782  0.00  0.00    -0.448 OA
BRANCH  27  30
ATOM     30  O   UNL     1       0.772  -5.653  -8.414  0.00  0.00    -0.491 OA
ATOM     31  C   UNL     1       0.081  -6.064  -9.595  0.00  0.00    +0.277 C 
ENDBRANCH  27  30
ENDBRANCH  19  21
ENDBRANCH   2  19
TORSDOF 5
