REMARK  Name = ZINC41930552
REMARK  4 active torsions:
REMARK  status: ('A' for Active; 'I' for Inactive)
REMARK    1  A    between atoms: C_1  and  C_2
REMARK    2  A    between atoms: C_4  and  C_14
REMARK    3  A    between atoms: N_16  and  C_17
REMARK    4  A    between atoms: C_19  and  N_24
REMARK                            x       y       z     vdW  Elec       q    Type
REMARK                         _______ _______ _______ _____ _____    ______ ____
ROOT
ATOM      1  C   UNL     1       0.143   0.035  -2.654  0.00  0.00    +0.262 C 
ATOM      2  O   UNL     1      -0.301  -0.764  -3.451  0.00  0.00    -0.271 OA
ATOM      3  N   UNL     1       0.111   1.353  -2.933  0.00  0.00    -0.281 N 
ATOM      4  H   UNL     1       0.500   1.990  -2.314  0.00  0.00    +0.155 HD
ENDROOT
BRANCH   1   7
ATOM      5  C   UNL     1       1.848  -2.356  -2.525  0.00  0.00    +0.056 C 
ATOM      6  C   UNL     1       2.069  -1.146  -1.616  0.00  0.00    +0.220 C 
ATOM      7  C   UNL     1       0.730  -0.445  -1.352  0.00  0.00    +0.299 C 
ATOM      8  O   UNL     1       0.970   0.671  -0.489  0.00  0.00    -0.472 OA
ATOM      9  C   UNL     1       1.762   0.446   0.596  0.00  0.00    +0.163 A 
ATOM     10  C   UNL     1       1.746   1.349   1.649  0.00  0.00    +0.049 A 
ATOM     11  C   UNL     1       2.546   1.136   2.755  0.00  0.00    +0.004 A 
ATOM     12  C   UNL     1       3.365   0.023   2.815  0.00  0.00    +0.004 A 
ATOM     13  C   UNL     1       3.384  -0.881   1.770  0.00  0.00    +0.049 A 
ATOM     14  C   UNL     1       2.581  -0.674   0.658  0.00  0.00    +0.163 A 
ATOM     15  O   UNL     1       2.606  -1.577  -0.360  0.00  0.00    -0.481 OA
ENDBRANCH   1   7
BRANCH   3  16
ATOM     16  C   UNL     1      -0.484   1.804  -4.117  0.00  0.00    +0.054 A 
ATOM     17  C   UNL     1      -1.160   0.912  -4.938  0.00  0.00    +0.048 A 
ATOM     18  C   UNL     1      -1.749   1.363  -6.111  0.00  0.00    +0.038 A 
ATOM     19  C   UNL     1      -1.661   2.704  -6.460  0.00  0.00    +0.025 A 
ATOM     20  C   UNL     1      -0.988   3.591  -5.641  0.00  0.00    +0.023 A 
ATOM     21  C   UNL     1      -0.404   3.146  -4.469  0.00  0.00    +0.062 A 
ATOM     22 CL   UNL     1       0.435   4.264  -3.440  0.00  0.00    -0.082 Cl
BRANCH  18  23
ATOM     23  N   UNL     1      -2.431   0.466  -6.941  0.00  0.00    -0.271 N 
ATOM     24  C   UNL     1      -2.614  -0.960  -6.647  0.00  0.00    +0.114 C 
ATOM     25  C   UNL     1      -3.756  -1.430  -7.575  0.00  0.00    +0.029 C 
ATOM     26  C   UNL     1      -3.658  -0.412  -8.735  0.00  0.00    +0.098 C 
ATOM     27  C   UNL     1      -3.008   0.801  -8.108  0.00  0.00    +0.220 C 
ATOM     28  O   UNL     1      -3.005   1.915  -8.589  0.00  0.00    -0.275 OA
ENDBRANCH  18  23
ENDBRANCH   3  16
TORSDOF 3
