REMARK  Name = ZINC41701541
REMARK  11 active torsions:
REMARK  status: ('A' for Active; 'I' for Inactive)
REMARK    1  A    between atoms: C_1  and  C_2
REMARK    2  A    between atoms: C_2  and  C_3
REMARK    3  A    between atoms: C_2  and  C_4
REMARK    4  A    between atoms: C_2  and  O_5
REMARK    5  A    between atoms: O_5  and  C_6
REMARK    6  A    between atoms: C_12  and  C_15
REMARK    7  A    between atoms: C_15  and  N_16
REMARK    8  A    between atoms: N_16  and  C_17
REMARK    9  A    between atoms: C_17  and  C_18
REMARK   10  A    between atoms: C_18  and  C_19
REMARK   11  A    between atoms: C_22  and  N_25
REMARK                            x       y       z     vdW  Elec       q    Type
REMARK                         _______ _______ _______ _____ _____    ______ ____
ROOT
ATOM      1  C   UNL     1       5.661   0.873  -4.261  0.00  0.00    -0.078 C 
ENDROOT
BRANCH   1   8
ATOM      2  C   UNL     1       1.952  -0.085  -1.337  0.00  0.00    +0.403 C 
ATOM      3  O   UNL     1       2.488   0.619  -0.503  0.00  0.00    -0.226 OA
ATOM      4  N   UNL     1       2.641  -0.485  -2.424  0.00  0.00    -0.267 N 
ATOM      5  C   UNL     1       2.005  -1.331  -3.443  0.00  0.00    +0.111 C 
ATOM      6  C   UNL     1       2.172  -0.664  -4.812  0.00  0.00    +0.019 C 
ATOM      7  C   UNL     1       3.656  -0.387  -5.062  0.00  0.00    +0.005 C 
ATOM      8  C   UNL     1       4.186   0.570  -3.991  0.00  0.00    -0.011 C 
ATOM      9  C   UNL     1       4.040  -0.078  -2.616  0.00  0.00    +0.112 C 
BRANCH   2  10
ATOM     10  O   UNL     1       0.671  -0.465  -1.174  0.00  0.00    -0.445 OA
BRANCH  10  12
ATOM     11  C   UNL     1      -0.019   1.526   0.010  0.00  0.00    +0.055 C 
ATOM     12  C   UNL     1       0.002  -0.004   0.002  0.00  0.00    +0.107 C 
ATOM     13  C   UNL     1       0.742  -0.511   1.242  0.00  0.00    +0.055 C 
ATOM     14  C   UNL     1      -1.433  -0.534   0.013  0.00  0.00    +0.055 C 
ENDBRANCH  10  12
ENDBRANCH   2  10
ENDBRANCH   1   8
BRANCH   1  15
ATOM     15  N   UNL     1       6.136   1.882  -3.305  0.00  0.00    +0.379 N 
ATOM     16  H   UNL     1       5.595   2.727  -3.410  0.00  0.00    -0.086 HD
ATOM     17  H   UNL     1       6.032   1.530  -2.365  0.00  0.00    -0.086 HD
BRANCH  15  18
ATOM     18  C   UNL     1       7.553   2.173  -3.565  0.00  0.00    -0.078 C 
BRANCH  18  19
ATOM     19  C   UNL     1       8.048   3.224  -2.569  0.00  0.00    +0.016 C 
BRANCH  19  20
ATOM     20  C   UNL     1       9.501   3.522  -2.836  0.00  0.00    -0.049 A 
ATOM     21  C   UNL     1      10.485   2.786  -2.203  0.00  0.00    +0.006 A 
ATOM     22  C   UNL     1      11.818   3.060  -2.447  0.00  0.00    +0.033 A 
ATOM     23  C   UNL     1      12.166   4.070  -3.324  0.00  0.00    +0.126 A 
ATOM     24  C   UNL     1      11.182   4.805  -3.958  0.00  0.00    +0.033 A 
ATOM     25  C   UNL     1       9.850   4.529  -3.717  0.00  0.00    +0.006 A 
BRANCH  23  26
ATOM     26  N   UNL     1      13.594   4.364  -3.585  0.00  0.00    +0.056 N 
ATOM     27  O   UNL     1      14.454   3.721  -3.031  0.00  0.00    -0.126 OA
ATOM     28  O   UNL     1      13.899   5.247  -4.353  0.00  0.00    -0.126 OA
ENDBRANCH  23  26
ENDBRANCH  19  20
ENDBRANCH  18  19
ENDBRANCH  15  18
ENDBRANCH   1  15
TORSDOF 8
