REMARK  Name = ZINC35323973
REMARK  8 active torsions:
REMARK  status: ('A' for Active; 'I' for Inactive)
REMARK    1  A    between atoms: C_1  and  C_2
REMARK    2  A    between atoms: C_2  and  O_3
REMARK    3  A    between atoms: O_3  and  C_4
REMARK    4  A    between atoms: C_4  and  C_6
REMARK    5  A    between atoms: C_6  and  C_7
REMARK    6  A    between atoms: C_14  and  N_28
REMARK    7  A    between atoms: C_15  and  C_26
REMARK    8  A    between atoms: C_16  and  C_18
REMARK                            x       y       z     vdW  Elec       q    Type
REMARK                         _______ _______ _______ _____ _____    ______ ____
ROOT
ATOM      1  C   UNL     1       1.496  -3.885   2.424  0.00  0.00    +0.055 A 
ATOM      2  C   UNL     1       2.370  -4.656   1.759  0.00  0.00    +0.050 A 
ATOM      3  C   UNL     1       1.995  -6.005   1.943  0.00  0.00    +0.245 A 
ATOM      4  N   UNL     1       0.933  -6.028   2.695  0.00  0.00    -0.135 NA
ATOM      5  N   UNL     1       0.598  -4.704   3.019  0.00  0.00    -0.277 N 
ATOM      6  H   UNL     1      -0.149  -4.424   3.571  0.00  0.00    +0.189 HD
ATOM      7  O   UNL     1       2.691  -7.030   1.384  0.00  0.00    -0.421 OA
ATOM      8  C   UNL     1       3.590  -6.722   0.428  0.00  0.00    +0.201 C 
ATOM      9  C   UNL     1       4.033  -5.474   0.169  0.00  0.00    +0.098 C 
ATOM     10  C   UNL     1       3.569  -4.261   0.935  0.00  0.00    +0.104 C 
ENDROOT
BRANCH  10  11
ATOM     11  C   UNL     1       4.673  -3.779   1.841  0.00  0.00    +0.002 A 
ATOM     12  C   UNL     1       5.201  -4.626   2.798  0.00  0.00    +0.046 A 
ATOM     13  C   UNL     1       6.214  -4.183   3.630  0.00  0.00    +0.020 A 
ATOM     14  C   UNL     1       6.698  -2.894   3.504  0.00  0.00    +0.003 A 
ATOM     15  C   UNL     1       6.170  -2.047   2.547  0.00  0.00    +0.020 A 
ATOM     16  C   UNL     1       5.161  -2.491   1.711  0.00  0.00    +0.046 A 
ATOM     17 CL   UNL     1       4.504  -1.430   0.504  0.00  0.00    -0.083 Cl
ATOM     18 CL   UNL     1       4.593  -6.244   2.957  0.00  0.00    -0.083 Cl
ENDBRANCH  10  11
BRANCH   8  19
ATOM     19  N   UNL     1       4.090  -7.748  -0.334  0.00  0.00    -0.328 N 
ATOM     20  H   UNL     1       3.795  -8.658  -0.176  0.00  0.00    +0.145 HD
ATOM     21  H   UNL     1       4.739  -7.563  -1.031  0.00  0.00    +0.145 HD
ENDBRANCH   8  19
BRANCH   9  22
ATOM     22  C   UNL     1       4.989  -5.293  -0.882  0.00  0.00    +0.101 C 
ATOM     23  N   UNL     1       5.747  -5.150  -1.716  0.00  0.00    -0.191 NA
ENDBRANCH   9  22
BRANCH   1  24
ATOM     24  C   UNL     1       1.516  -2.381   2.500  0.00  0.00    +0.175 C 
BRANCH  24  25
ATOM     25  C   UNL     1       0.801  -1.808   1.304  0.00  0.00    +0.313 C 
ATOM     26  O   UNL     1       0.324  -2.546   0.475  0.00  0.00    -0.250 OA
BRANCH  25  27
ATOM     27  O   UNL     1       0.693  -0.477   1.160  0.00  0.00    -0.465 OA
BRANCH  27  29
ATOM     28  C   UNL     1      -0.019   1.526   0.010  0.00  0.00    +0.048 C 
ATOM     29  C   UNL     1       0.002  -0.004   0.002  0.00  0.00    +0.229 C 
ENDBRANCH  27  29
ENDBRANCH  25  27
ENDBRANCH  24  25
ENDBRANCH   1  24
TORSDOF 7
