REMARK  Name = ZINC32808961
REMARK  11 active torsions:
REMARK  status: ('A' for Active; 'I' for Inactive)
REMARK    1  A    between atoms: C_1  and  C_2
REMARK    2  A    between atoms: C_2  and  C_4
REMARK    3  A    between atoms: C_2  and  N_14
REMARK    4  A    between atoms: C_7  and  S_10
REMARK    5  A    between atoms: S_10  and  C_13
REMARK    6  A    between atoms: C_15  and  C_17
REMARK    7  A    between atoms: C_17  and  C_19
REMARK    8  A    between atoms: C_17  and  N_22
REMARK    9  A    between atoms: C_19  and  C_20
REMARK   10  A    between atoms: C_19  and  C_21
REMARK   11  A    between atoms: N_25  and  C_26
REMARK                            x       y       z     vdW  Elec       q    Type
REMARK                         _______ _______ _______ _____ _____    ______ ____
ROOT
ATOM      1  N   UNL     1       0.926  -0.675   1.389  0.00  0.00    -0.307 N 
ATOM      2  C   UNL     1       0.290  -0.497   2.564  0.00  0.00    +0.234 C 
ATOM      3  O   UNL     1      -0.797   0.040   2.590  0.00  0.00    -0.274 OA
ATOM      4  H   UNL     1       1.826  -1.038   1.375  0.00  0.00    +0.149 HD
ENDROOT
BRANCH   1   6
ATOM      5  C   UNL     1       0.463   1.168  -0.150  0.00  0.00    +0.033 C 
ATOM      6  C   UNL     1       0.259  -0.322   0.134  0.00  0.00    +0.100 C 
BRANCH   6   7
ATOM      7  C   UNL     1       0.846  -1.133  -0.993  0.00  0.00    -0.027 A 
ATOM      8  C   UNL     1       2.207  -1.369  -1.038  0.00  0.00    +0.007 A 
ATOM      9  C   UNL     1       2.745  -2.112  -2.072  0.00  0.00    +0.027 A 
ATOM     10  C   UNL     1       1.922  -2.621  -3.059  0.00  0.00    +0.088 A 
ATOM     11  C   UNL     1       0.561  -2.386  -3.013  0.00  0.00    +0.027 A 
ATOM     12  C   UNL     1       0.022  -1.645  -1.977  0.00  0.00    +0.007 A 
BRANCH  10  13
ATOM     13  S   UNL     1       2.608  -3.568  -4.377  0.00  0.00    -0.006 S 
ATOM     14  O   UNL     1       1.699  -3.400  -5.456  0.00  0.00    -0.170 OA
ATOM     15  O   UNL     1       3.952  -3.118  -4.486  0.00  0.00    -0.170 OA
ATOM     16  C   UNL     1       2.570  -5.283  -3.788  0.00  0.00    +0.200 C 
ENDBRANCH  10  13
ENDBRANCH   6   7
ENDBRANCH   1   6
BRANCH   2  17
ATOM     17  C   UNL     1       0.930  -0.964   3.846  0.00  0.00    +0.163 C 
BRANCH  17  18
ATOM     18  N   UNL     1      -0.113  -1.321   4.811  0.00  0.00    -0.288 N 
ATOM     19  C   UNL     1       0.151  -2.205   5.793  0.00  0.00    +0.304 C 
ATOM     20  O   UNL     1       1.256  -2.707   5.878  0.00  0.00    -0.252 OA
ATOM     21  N   UNL     1      -0.808  -2.533   6.681  0.00  0.00    -0.269 N 
ATOM     22  H   UNL     1      -0.994  -0.921   4.743  0.00  0.00    +0.151 HD
ATOM     23  H   UNL     1      -1.707  -2.184   6.574  0.00  0.00    +0.156 HD
BRANCH  21  24
ATOM     24  C   UNL     1      -0.508  -3.377   7.755  0.00  0.00    +0.035 A 
ATOM     25  C   UNL     1      -1.115  -3.177   8.988  0.00  0.00    +0.023 A 
ATOM     26  C   UNL     1      -0.817  -4.013  10.047  0.00  0.00    +0.002 A 
ATOM     27  C   UNL     1       0.085  -5.048   9.880  0.00  0.00    +0.000 A 
ATOM     28  C   UNL     1       0.691  -5.250   8.654  0.00  0.00    +0.002 A 
ATOM     29  C   UNL     1       0.393  -4.421   7.590  0.00  0.00    +0.023 A 
ENDBRANCH  21  24
ENDBRANCH  17  18
BRANCH  17  30
ATOM     30  C   UNL     1       1.796   0.158   4.422  0.00  0.00    +0.012 C 
ATOM     31  C   UNL     1       2.506  -0.342   5.683  0.00  0.00    +0.009 C 
ATOM     32  C   UNL     1       2.837   0.583   3.385  0.00  0.00    +0.009 C 
ENDBRANCH  17  30
ENDBRANCH   2  17
TORSDOF 7
