REMARK  Name = ZINC02643447
REMARK  9 active torsions:
REMARK  status: ('A' for Active; 'I' for Inactive)
REMARK    1  A    between atoms: C_1  and  C_2
REMARK    2  A    between atoms: C_2  and  C_3
REMARK    3  A    between atoms: C_2  and  C_4
REMARK    4  A    between atoms: C_4  and  O_5
REMARK    5  A    between atoms: O_5  and  C_6
REMARK    6  A    between atoms: C_9  and  C_14
REMARK    7  A    between atoms: C_11  and  O_12
REMARK    8  A    between atoms: O_12  and  C_13
REMARK    9  A    between atoms: N_25  and  C_26
REMARK                            x       y       z     vdW  Elec       q    Type
REMARK                         _______ _______ _______ _____ _____    ______ ____
ROOT
ATOM      1  C   UNL     1      -6.514  -4.681  -0.136  0.00  0.00    +0.198 C 
ATOM      2  N   UNL     1      -6.443  -5.865  -1.000  0.00  0.00    -0.321 N 
ATOM      3  C   UNL     1      -6.338  -5.685  -2.375  0.00  0.00    +0.041 A 
ATOM      4  C   UNL     1      -5.703  -6.612  -3.185  0.00  0.00    +0.024 A 
ATOM      5  C   UNL     1      -5.632  -6.395  -4.548  0.00  0.00    +0.002 A 
ATOM      6  C   UNL     1      -6.192  -5.258  -5.110  0.00  0.00    +0.001 A 
ATOM      7  C   UNL     1      -6.824  -4.323  -4.317  0.00  0.00    +0.015 A 
ATOM      8  C   UNL     1      -6.898  -4.527  -2.941  0.00  0.00    +0.058 A 
ATOM      9  C   UNL     1      -7.541  -3.546  -2.049  0.00  0.00    +0.254 C 
ATOM     10  O   UNL     1      -8.178  -2.619  -2.513  0.00  0.00    -0.270 OA
ATOM     11  N   UNL     1      -7.416  -3.686  -0.717  0.00  0.00    -0.244 N 
ATOM     12  H   UNL     1      -6.469  -6.757  -0.620  0.00  0.00    +0.148 HD
ENDROOT
BRANCH  11  13
ATOM     13  C   UNL     1      -8.166  -2.860   0.129  0.00  0.00    +0.042 A 
ATOM     14  C   UNL     1      -8.041  -1.480   0.042  0.00  0.00    +0.027 A 
ATOM     15  C   UNL     1      -8.779  -0.664   0.877  0.00  0.00    +0.051 A 
ATOM     16  C   UNL     1      -9.648  -1.221   1.805  0.00  0.00    +0.162 A 
ATOM     17  C   UNL     1      -9.777  -2.602   1.893  0.00  0.00    +0.164 A 
ATOM     18  C   UNL     1      -9.038  -3.420   1.052  0.00  0.00    +0.073 A 
ATOM     19  O   UNL     1     -10.629  -3.166   2.792  0.00  0.00    -0.485 OA
ATOM     20  C   UNL     1     -11.077  -2.331   3.866  0.00  0.00    +0.270 C 
ATOM     21  C   UNL     1     -11.499  -0.977   3.279  0.00  0.00    +0.270 C 
ATOM     22  O   UNL     1     -10.364  -0.401   2.623  0.00  0.00    -0.485 OA
ENDBRANCH  11  13
BRANCH   1  26
ATOM     23  C   UNL     1      -2.611  -2.981   0.270  0.00  0.00    +0.162 A 
ATOM     24  C   UNL     1      -3.734  -2.172   0.344  0.00  0.00    +0.050 A 
ATOM     25  C   UNL     1      -4.994  -2.724   0.212  0.00  0.00    +0.011 A 
ATOM     26  C   UNL     1      -5.138  -4.084   0.006  0.00  0.00    -0.005 A 
ATOM     27  C   UNL     1      -4.023  -4.897  -0.068  0.00  0.00    +0.056 A 
ATOM     28  C   UNL     1      -2.756  -4.349   0.057  0.00  0.00    +0.162 A 
BRANCH  28  29
ATOM     29  O   UNL     1      -1.657  -5.146  -0.022  0.00  0.00    -0.491 OA
ATOM     30  C   UNL     1      -1.882  -6.540  -0.241  0.00  0.00    +0.277 C 
ENDBRANCH  28  29
BRANCH  23  31
ATOM     31  O   UNL     1      -1.371  -2.439   0.399  0.00  0.00    -0.488 OA
BRANCH  31  32
ATOM     32  C   UNL     1      -1.298  -1.028   0.615  0.00  0.00    +0.232 C 
BRANCH  32  34
ATOM     33  C   UNL     1       0.251   0.919   0.842  0.00  0.00    +0.010 C 
ATOM     34  C   UNL     1       0.167  -0.605   0.735  0.00  0.00    +0.020 C 
ATOM     35  C   UNL     1       0.780  -1.238   1.986  0.00  0.00    +0.010 C 
ENDBRANCH  32  34
ENDBRANCH  31  32
ENDBRANCH  23  31
ENDBRANCH   1  26
TORSDOF 6
