REMARK  Name = ZINC63571504
REMARK  6 active torsions:
REMARK  status: ('A' for Active; 'I' for Inactive)
REMARK    1  A    between atoms: C_1  and  C_2
REMARK    2  A    between atoms: C_2  and  O_3
REMARK    3  A    between atoms: O_3  and  C_4
REMARK    4  A    between atoms: C_7  and  N_10
REMARK    5  A    between atoms: C_26  and  C_28
REMARK    6  A    between atoms: C_31  and  C_34
REMARK                            x       y       z     vdW  Elec       q    Type
REMARK                         _______ _______ _______ _____ _____    ______ ____
ROOT
ATOM      1  N   UNL     1       0.676  -6.600   1.546  0.00  0.00    -0.269 N 
ATOM      2  C   UNL     1       1.557  -6.838   2.538  0.00  0.00    +0.307 C 
ATOM      3  O   UNL     1       2.067  -5.909   3.134  0.00  0.00    -0.252 OA
ATOM      4  N   UNL     1       1.873  -8.106   2.869  0.00  0.00    -0.276 N 
ATOM      5  C   UNL     1       1.352  -9.217   2.066  0.00  0.00    +0.114 C 
ATOM      6  C   UNL     1       0.547 -10.169   2.970  0.00  0.00    +0.052 C 
ATOM      7  C   UNL     1       1.372 -10.386   4.213  0.00  0.00    -0.035 C 
ATOM      8  C   UNL     1       1.766 -11.498   4.823  0.00  0.00    -0.001 A 
ATOM      9  C   UNL     1       1.453 -12.914   4.576  0.00  0.00    +0.010 A 
ATOM     10  C   UNL     1       2.057 -13.814   5.396  0.00  0.00    +0.001 A 
ATOM     11  C   UNL     1       2.931 -13.450   6.426  0.00  0.00    +0.002 A 
ATOM     12  C   UNL     1       3.268 -12.172   6.730  0.00  0.00    +0.026 A 
ATOM     13  C   UNL     1       2.689 -11.135   5.941  0.00  0.00    +0.043 A 
ATOM     14  N   UNL     1       2.817  -9.844   6.025  0.00  0.00    -0.375 N 
ATOM     15  C   UNL     1       1.949  -9.229   5.020  0.00  0.00    +0.131 C 
ATOM     16  C   UNL     1       2.741  -8.361   4.029  0.00  0.00    +0.134 C 
ATOM     17  H   UNL     1       0.219  -7.340   1.115  0.00  0.00    +0.156 HD
ATOM     18  H   UNL     1       3.389  -9.369   6.648  0.00  0.00    +0.160 HD
ENDROOT
BRANCH  16  19
ATOM     19  C   UNL     1       3.984  -9.090   3.587  0.00  0.00    -0.025 A 
ATOM     20  C   UNL     1       3.877 -10.220   2.798  0.00  0.00    +0.006 A 
ATOM     21  C   UNL     1       5.017 -10.889   2.392  0.00  0.00    +0.004 A 
ATOM     22  C   UNL     1       6.263 -10.427   2.774  0.00  0.00    -0.050 A 
ATOM     23  C   UNL     1       6.369  -9.296   3.561  0.00  0.00    +0.004 A 
ATOM     24  C   UNL     1       5.230  -8.625   3.964  0.00  0.00    +0.006 A 
ATOM     25  C   UNL     1       7.505 -11.157   2.332  0.00  0.00    +0.044 C 
ENDBRANCH  16  19
BRANCH   1  29
ATOM     26  C   UNL     1      -0.084  -2.686   0.327  0.00  0.00    +0.121 A 
ATOM     27  C   UNL     1      -0.342  -3.742  -0.534  0.00  0.00    +0.047 A 
ATOM     28  C   UNL     1      -0.091  -5.039  -0.131  0.00  0.00    +0.027 A 
ATOM     29  C   UNL     1       0.421  -5.285   1.136  0.00  0.00    +0.035 A 
ATOM     30  C   UNL     1       0.680  -4.227   1.997  0.00  0.00    +0.027 A 
ATOM     31  C   UNL     1       0.432  -2.930   1.591  0.00  0.00    +0.047 A 
BRANCH  26  32
ATOM     32  O   UNL     1      -0.332  -1.409  -0.070  0.00  0.00    -0.492 OA
BRANCH  32  34
ATOM     33  C   UNL     1      -1.076   0.261  -1.651  0.00  0.00    +0.048 C 
ATOM     34  C   UNL     1      -0.864  -1.230  -1.385  0.00  0.00    +0.225 C 
ENDBRANCH  32  34
ENDBRANCH  26  32
ENDBRANCH   1  29
TORSDOF 4
