REMARK  Name = ZINC00909088
REMARK  8 active torsions:
REMARK  status: ('A' for Active; 'I' for Inactive)
REMARK    1  A    between atoms: C_1  and  O_2
REMARK    2  A    between atoms: O_2  and  C_3
REMARK    3  A    between atoms: C_6  and  C_9
REMARK    4  A    between atoms: C_9  and  C_11
REMARK    5  A    between atoms: C_13  and  C_25
REMARK    6  A    between atoms: C_19  and  C_20
REMARK    7  A    between atoms: C_19  and  O_24
REMARK    8  A    between atoms: C_28  and  O_31
REMARK                            x       y       z     vdW  Elec       q    Type
REMARK                         _______ _______ _______ _____ _____    ______ ____
ROOT
ATOM      1  C   UNL     1      -5.634  -3.577  -0.209  0.00  0.00    +0.144 C 
ATOM      2  C   UNL     1      -6.272  -4.583   0.755  0.00  0.00    +0.120 C 
ATOM      3  N   UNL     1      -7.637  -4.873   0.313  0.00  0.00    -0.292 N 
ATOM      4  C   UNL     1      -7.980  -4.803  -0.982  0.00  0.00    +0.302 C 
ATOM      5  O   UNL     1      -9.125  -5.064  -1.297  0.00  0.00    -0.253 OA
ATOM      6  N   UNL     1      -7.111  -4.458  -1.943  0.00  0.00    -0.264 N 
ATOM      7  C   UNL     1      -5.711  -4.142  -1.631  0.00  0.00    +0.243 C 
ATOM      8  H   UNL     1      -8.307  -5.120   0.969  0.00  0.00    +0.151 HD
ATOM      9  H   UNL     1      -7.412  -4.415  -2.864  0.00  0.00    +0.153 HD
ENDROOT
BRANCH   2  10
ATOM     10  C   UNL     1      -6.304  -3.998   2.144  0.00  0.00    -0.026 A 
ATOM     11  C   UNL     1      -7.403  -3.268   2.560  0.00  0.00    +0.009 A 
ATOM     12  C   UNL     1      -7.435  -2.731   3.832  0.00  0.00    +0.046 A 
ATOM     13  C   UNL     1      -6.364  -2.925   4.693  0.00  0.00    +0.117 A 
ATOM     14  C   UNL     1      -5.263  -3.658   4.273  0.00  0.00    +0.046 A 
ATOM     15  C   UNL     1      -5.239  -4.198   3.002  0.00  0.00    +0.009 A 
BRANCH  13  16
ATOM     16  O   UNL     1      -6.393  -2.397   5.945  0.00  0.00    -0.507 OA
ATOM     17  H   UNL     1      -6.779  -2.984   6.610  0.00  0.00    +0.292 HD
ENDBRANCH  13  16
ENDBRANCH   2  10
BRANCH   7  18
ATOM     18  C   UNL     1      -4.868  -5.415  -1.722  0.00  0.00    +0.436 C 
ATOM     19  F   UNL     1      -5.357  -6.364  -0.817  0.00  0.00    -0.166 F 
ATOM     20  F   UNL     1      -4.940  -5.930  -3.021  0.00  0.00    -0.166 F 
ATOM     21  F   UNL     1      -3.537  -5.117  -1.412  0.00  0.00    -0.166 F 
ENDBRANCH   7  18
BRANCH   1  22
ATOM     22  C   UNL     1      -6.380  -2.269  -0.143  0.00  0.00    +0.173 C 
ATOM     23  O   UNL     1      -7.580  -2.264   0.035  0.00  0.00    -0.292 OA
BRANCH  22  27
ATOM     24  C   UNL     1      -4.287   1.387  -0.575  0.00  0.00    +0.120 A 
ATOM     25  C   UNL     1      -5.662   1.396  -0.372  0.00  0.00    +0.046 A 
ATOM     26  C   UNL     1      -6.345   0.215  -0.232  0.00  0.00    +0.015 A 
ATOM     27  C   UNL     1      -5.654  -1.001  -0.293  0.00  0.00    +0.018 A 
ATOM     28  C   UNL     1      -4.269  -1.005  -0.497  0.00  0.00    +0.015 A 
ATOM     29  C   UNL     1      -3.596   0.181  -0.642  0.00  0.00    +0.046 A 
BRANCH  24  31
ATOM     30  C   UNL     1      -4.386   3.760  -0.634  0.00  0.00    +0.277 C 
ATOM     31  O   UNL     1      -3.616   2.558  -0.714  0.00  0.00    -0.495 OA
ENDBRANCH  24  31
ENDBRANCH  22  27
ENDBRANCH   1  22
BRANCH   7  32
ATOM     32  O   UNL     1      -5.217  -3.173  -2.558  0.00  0.00    -0.364 OA
ATOM     33  H   UNL     1      -5.236  -3.464  -3.480  0.00  0.00    +0.212 HD
ENDBRANCH   7  32
TORSDOF 7
