REMARK  Name = ZINC29864972
REMARK  4 active torsions:
REMARK  status: ('A' for Active; 'I' for Inactive)
REMARK    1  A    between atoms: N_13  and  C_17
REMARK    2  A    between atoms: C_17  and  C_18
REMARK    3  A    between atoms: C_18  and  S_19
REMARK    4  A    between atoms: S_19  and  C_22
REMARK                            x       y       z     vdW  Elec       q    Type
REMARK                         _______ _______ _______ _____ _____    ______ ____
ROOT
ATOM      1  C   UNL     1       2.920  -2.749   2.668  0.00  0.00    +0.001 A 
ATOM      2  C   UNL     1       3.267  -3.523   3.760  0.00  0.00    +0.004 A 
ATOM      3  C   UNL     1       2.774  -3.211   5.010  0.00  0.00    +0.046 A 
ATOM      4  C   UNL     1       1.929  -2.119   5.177  0.00  0.00    +0.126 A 
ATOM      5  C   UNL     1       1.586  -1.343   4.082  0.00  0.00    +0.027 A 
ATOM      6  C   UNL     1       2.083  -1.663   2.829  0.00  0.00    +0.010 A 
ATOM      7  C   UNL     1       0.681  -0.152   4.228  0.00  0.00    +0.144 C 
ATOM      8  C   UNL     1      -0.076  -0.208   5.551  0.00  0.00    +0.081 C 
ATOM      9  C   UNL     1       0.925  -0.541   6.666  0.00  0.00    +0.232 C 
ATOM     10  O   UNL     1       1.458  -1.844   6.421  0.00  0.00    -0.492 OA
ATOM     11  C   UNL     1      -0.289  -0.075   3.072  0.00  0.00    +0.251 C 
ATOM     12  O   UNL     1      -1.130  -0.892   2.764  0.00  0.00    -0.272 OA
ATOM     13  N   UNL     1      -0.020   1.094   2.454  0.00  0.00    -0.222 N 
ATOM     14  C   UNL     1       0.970   1.758   3.062  0.00  0.00    +0.310 C 
ATOM     15  O   UNL     1       1.388   2.837   2.692  0.00  0.00    -0.252 OA
ATOM     16  N   UNL     1       1.452   1.094   4.131  0.00  0.00    -0.281 N 
ATOM     17  H   UNL     1       2.244   1.310   4.864  0.00  0.00    +0.152 HD
ENDROOT
BRANCH  13  18
ATOM     18  C   UNL     1      -0.729   1.579   1.267  0.00  0.00    +0.141 C 
BRANCH  18  19
ATOM     19  C   UNL     1      -0.013   1.086   0.008  0.00  0.00    +0.191 C 
BRANCH  19  20
ATOM     20  S   UNL     1      -0.890   1.687  -1.462  0.00  0.00    -0.002 S 
ATOM     21  O   UNL     1      -2.163   1.063  -1.561  0.00  0.00    -0.169 OA
ATOM     22  O   UNL     1      -0.765   3.099  -1.563  0.00  0.00    -0.169 OA
BRANCH  20  23
ATOM     23  C   UNL     1       0.028   1.055  -2.827  0.00  0.00    +0.088 A 
ATOM     24  C   UNL     1       1.062   1.796  -3.367  0.00  0.00    +0.028 A 
ATOM     25  C   UNL     1       1.785   1.299  -4.434  0.00  0.00    +0.022 A 
ATOM     26  C   UNL     1       1.467   0.063  -4.969  0.00  0.00    +0.041 A 
ATOM     27  C   UNL     1       0.429  -0.676  -4.432  0.00  0.00    +0.022 A 
ATOM     28  C   UNL     1      -0.291  -0.180  -3.361  0.00  0.00    +0.028 A 
ATOM     29 CL   UNL     1       2.372  -0.560  -6.314  0.00  0.00    -0.084 Cl
ENDBRANCH  20  23
ENDBRANCH  19  20
ENDBRANCH  18  19
ENDBRANCH  13  18
TORSDOF 4
