REMARK  Name = ZINC13000125
REMARK  6 active torsions:
REMARK  status: ('A' for Active; 'I' for Inactive)
REMARK    1  A    between atoms: C_1  and  C_2
REMARK    2  A    between atoms: C_2  and  C_3
REMARK    3  A    between atoms: C_3  and  N_4
REMARK    4  A    between atoms: C_9  and  C_11
REMARK    5  A    between atoms: N_13  and  C_14
REMARK    6  A    between atoms: C_23  and  C_26
REMARK                            x       y       z     vdW  Elec       q    Type
REMARK                         _______ _______ _______ _____ _____    ______ ____
ROOT
ATOM      1  C   UNL     1      -6.126   1.823   6.060  0.00  0.00    +0.268 C 
ATOM      2  O   UNL     1      -6.727   1.917   5.008  0.00  0.00    -0.268 OA
ATOM      3  N   UNL     1      -4.814   1.515   6.061  0.00  0.00    -0.280 N 
ATOM      4  H   UNL     1      -4.351   1.364   6.900  0.00  0.00    +0.155 HD
ENDROOT
BRANCH   3   5
ATOM      5  C   UNL     1      -4.118   1.411   4.850  0.00  0.00    +0.036 A 
ATOM      6  C   UNL     1      -3.082   0.495   4.721  0.00  0.00    +0.027 A 
ATOM      7  C   UNL     1      -2.393   0.390   3.527  0.00  0.00    +0.049 A 
ATOM      8  C   UNL     1      -2.735   1.198   2.458  0.00  0.00    +0.143 A 
ATOM      9  C   UNL     1      -3.773   2.120   2.585  0.00  0.00    +0.077 A 
ATOM     10  C   UNL     1      -4.464   2.226   3.780  0.00  0.00    +0.050 A 
ATOM     11  N   UNL     1      -4.106   2.933   1.492  0.00  0.00    -0.279 N 
ATOM     12  C   UNL     1      -3.646   2.603   0.266  0.00  0.00    +0.258 C 
ATOM     13  O   UNL     1      -3.896   3.308  -0.689  0.00  0.00    -0.271 OA
ATOM     14  C   UNL     1      -2.821   1.354   0.088  0.00  0.00    +0.256 C 
ATOM     15  O   UNL     1      -2.066   1.104   1.276  0.00  0.00    -0.478 OA
ATOM     16  C   UNL     1      -1.866   1.538  -1.093  0.00  0.00    +0.062 C 
ATOM     17  H   UNL     1      -4.657   3.722   1.615  0.00  0.00    +0.155 HD
ENDBRANCH   3   5
BRANCH   1  23
ATOM     18  N   UNL     1      -6.749   2.129   9.611  0.00  0.00    -0.229 N 
ATOM     19  C   UNL     1      -8.056   2.440   9.709  0.00  0.00    +0.267 A 
ATOM     20  O   UNL     1      -8.567   2.609  10.803  0.00  0.00    -0.266 OA
ATOM     21  C   UNL     1      -8.830   2.570   8.534  0.00  0.00    +0.074 A 
ATOM     22  C   UNL     1      -8.211   2.370   7.336  0.00  0.00    +0.040 A 
ATOM     23  C   UNL     1      -6.833   2.047   7.339  0.00  0.00    +0.146 A 
ATOM     24  N   UNL     1      -6.182   1.939   8.476  0.00  0.00    -0.164 NA
BRANCH  18  25
ATOM     25  C   UNL     1      -5.955   1.998  10.836  0.00  0.00    +0.147 C 
BRANCH  25  27
ATOM     26  C   UNL     1      -5.179   0.413  12.604  0.00  0.00    +0.005 C 
ATOM     27  C   UNL     1      -6.008   0.550  11.325  0.00  0.00    +0.020 C 
ENDBRANCH  25  27
ENDBRANCH  18  25
ENDBRANCH   1  23
TORSDOF 4
