REMARK  Name = ZINC04973908
REMARK  5 active torsions:
REMARK  status: ('A' for Active; 'I' for Inactive)
REMARK    1  A    between atoms: C_3  and  O_22
REMARK    2  A    between atoms: C_6  and  N_7
REMARK    3  A    between atoms: N_7  and  S_8
REMARK    4  A    between atoms: S_8  and  C_11
REMARK    5  A    between atoms: C_15  and  N_17
REMARK                            x       y       z     vdW  Elec       q    Type
REMARK                         _______ _______ _______ _____ _____    ______ ____
ROOT
ATOM      1  S   UNL     1       0.081  -0.000   0.082  0.00  0.00    +0.072 S 
ATOM      2  O   UNL     1      -1.238  -0.465   0.337  0.00  0.00    -0.150 OA
ATOM      3  O   UNL     1       0.831  -0.421  -1.049  0.00  0.00    -0.150 OA
ENDROOT
BRANCH   1   4
ATOM      4  C   UNL     1       1.041  -0.405   1.502  0.00  0.00    +0.111 A 
ATOM      5  C   UNL     1       2.420  -0.436   1.418  0.00  0.00    +0.030 A 
ATOM      6  C   UNL     1       3.174  -0.749   2.533  0.00  0.00    +0.024 A 
ATOM      7  C   UNL     1       2.547  -1.042   3.732  0.00  0.00    +0.071 A 
ATOM      8  C   UNL     1       1.167  -1.016   3.814  0.00  0.00    +0.146 A 
ATOM      9  C   UNL     1       0.414  -0.698   2.699  0.00  0.00    +0.063 A 
ATOM     10 CL   UNL     1       3.494  -1.440   5.132  0.00  0.00    -0.081 Cl
BRANCH   8  11
ATOM     11  N   UNL     1       0.496  -1.329   5.096  0.00  0.00    +0.058 N 
ATOM     12  O   UNL     1      -0.720  -1.306   5.168  0.00  0.00    -0.126 OA
ATOM     13  O   UNL     1       1.159  -1.609   6.078  0.00  0.00    -0.126 OA
ENDBRANCH   8  11
ENDBRANCH   1   4
BRANCH   1  14
ATOM     14  N   UNL     1      -0.006   1.652   0.004  0.00  0.00    -0.216 N 
ATOM     15  H   UNL     1       0.381   2.123  -0.750  0.00  0.00    +0.174 HD
BRANCH  14  21
ATOM     16  C   UNL     1      -1.861   1.944   1.522  0.00  0.00    +0.028 A 
ATOM     17  C   UNL     1      -2.479   2.650   2.537  0.00  0.00    +0.048 A 
ATOM     18  C   UNL     1      -1.879   3.786   3.056  0.00  0.00    +0.131 A 
ATOM     19  C   UNL     1      -0.655   4.214   2.561  0.00  0.00    +0.061 A 
ATOM     20  C   UNL     1      -0.034   3.507   1.549  0.00  0.00    +0.043 A 
ATOM     21  C   UNL     1      -0.634   2.368   1.029  0.00  0.00    +0.049 A 
ATOM     22 BR   UNL     1       0.163   5.765   3.270  0.00  0.00    -0.046 Br
BRANCH  18  23
ATOM     23  O   UNL     1      -2.490   4.483   4.052  0.00  0.00    -0.506 OA
ATOM     24  H   UNL     1      -3.083   5.179   3.738  0.00  0.00    +0.292 HD
ENDBRANCH  18  23
ENDBRANCH  14  21
ENDBRANCH   1  14
TORSDOF 5
