REMARK  Name = ZINC35520074
REMARK  3 active torsions:
REMARK  status: ('A' for Active; 'I' for Inactive)
REMARK    1  A    between atoms: C_1  and  N_2
REMARK    2  A    between atoms: C_5  and  C_10
REMARK    3  A    between atoms: N_18  and  C_20
REMARK                            x       y       z     vdW  Elec       q    Type
REMARK                         _______ _______ _______ _____ _____    ______ ____
ROOT
ATOM      1  C   UNL     1      -0.018   1.461   0.010  0.00  0.00    +0.139 C 
ATOM      2  N   UNL     1       0.002  -0.004   0.002  0.00  0.00    -0.260 N 
ATOM      3  C   UNL     1      -1.193  -0.666   0.004  0.00  0.00    +0.042 C 
ATOM      4  C   UNL     1      -1.245  -2.013  -0.003  0.00  0.00    +0.058 C 
ATOM      5  C   UNL     1       0.068  -2.769  -0.014  0.00  0.00    +0.142 C 
ATOM      6  N   UNL     1       1.301  -1.964  -0.016  0.00  0.00    -0.288 N 
ATOM      7  C   UNL     1       1.191  -0.621  -0.013  0.00  0.00    +0.307 C 
ATOM      8  O   UNL     1       2.203   0.052  -0.018  0.00  0.00    -0.252 OA
ATOM      9  C   UNL     1      -2.585  -2.452   0.002  0.00  0.00    +0.247 C 
ATOM     10  O   UNL     1      -2.927  -3.620  -0.003  0.00  0.00    -0.270 OA
ATOM     11  N   UNL     1      -3.437  -1.411   0.012  0.00  0.00    -0.289 N 
ATOM     12  C   UNL     1      -2.626  -0.184   0.015  0.00  0.00    +0.159 C 
ATOM     13  H   UNL     1       2.172  -2.391  -0.023  0.00  0.00    +0.151 HD
ENDROOT
BRANCH   5  14
ATOM     14  C   UNL     1       0.100  -3.664   1.198  0.00  0.00    -0.023 A 
ATOM     15  C   UNL     1       0.423  -3.139   2.436  0.00  0.00    +0.006 A 
ATOM     16  C   UNL     1       0.452  -3.960   3.548  0.00  0.00    +0.000 A 
ATOM     17  C   UNL     1       0.157  -5.304   3.423  0.00  0.00    +0.000 A 
ATOM     18  C   UNL     1      -0.168  -5.829   2.186  0.00  0.00    +0.000 A 
ATOM     19  C   UNL     1      -0.201  -5.007   1.074  0.00  0.00    +0.006 A 
ENDBRANCH   5  14
BRANCH  11  20
ATOM     20  C   UNL     1      -4.900  -1.485   0.019  0.00  0.00    +0.077 C 
ATOM     21  C   UNL     1      -5.367  -2.238   1.267  0.00  0.00    +0.022 C 
ATOM     22  C   UNL     1      -6.894  -2.316   1.274  0.00  0.00    +0.002 C 
ATOM     23  C   UNL     1      -7.374  -3.055   0.023  0.00  0.00    +0.000 C 
ATOM     24  C   UNL     1      -6.907  -2.302  -1.224  0.00  0.00    +0.002 C 
ATOM     25  C   UNL     1      -5.379  -2.224  -1.232  0.00  0.00    +0.022 C 
ENDBRANCH  11  20
TORSDOF 2
