REMARK  Name = ZINC63479094
REMARK  5 active torsions:
REMARK  status: ('A' for Active; 'I' for Inactive)
REMARK    1  A    between atoms: C_1  and  C_2
REMARK    2  A    between atoms: C_2  and  O_3
REMARK    3  A    between atoms: O_3  and  C_4
REMARK    4  A    between atoms: C_9  and  N_12
REMARK    5  A    between atoms: C_13  and  C_15
REMARK                            x       y       z     vdW  Elec       q    Type
REMARK                         _______ _______ _______ _____ _____    ______ ____
ROOT
ATOM      1  N   UNL     1       1.161  -3.643  -6.387  0.00  0.00    -0.311 N 
ATOM      2  C   UNL     1       1.687  -4.696  -7.042  0.00  0.00    +0.230 C 
ATOM      3  O   UNL     1       2.581  -5.340  -6.535  0.00  0.00    -0.274 OA
ATOM      4  H   UNL     1       0.446  -3.127  -6.792  0.00  0.00    +0.149 HD
ENDROOT
BRANCH   2   5
ATOM      5  C   UNL     1       1.166  -5.073  -8.405  0.00  0.00    +0.160 C 
ATOM      6  C   UNL     1       1.257  -6.566  -8.626  0.00  0.00    +0.011 C 
ATOM      7  C   UNL     1       2.052  -6.950  -9.644  0.00  0.00    +0.049 C 
ATOM      8  C   UNL     1       2.728  -5.892 -10.409  0.00  0.00    +0.030 C 
ATOM      9  C   UNL     1       3.568  -6.236 -11.481  0.00  0.00    +0.010 A 
ATOM     10  C   UNL     1       4.227  -5.247 -12.229  0.00  0.00    +0.011 A 
ATOM     11  C   UNL     1       5.038  -5.606 -13.264  0.00  0.00    +0.001 A 
ATOM     12  C   UNL     1       5.222  -6.946 -13.590  0.00  0.00    +0.002 A 
ATOM     13  C   UNL     1       4.598  -7.932 -12.885  0.00  0.00    +0.024 A 
ATOM     14  C   UNL     1       3.754  -7.602 -11.811  0.00  0.00    +0.042 A 
ATOM     15  N   UNL     1       3.142  -8.570 -11.117  0.00  0.00    -0.281 N 
ATOM     16  C   UNL     1       2.336  -8.348 -10.098  0.00  0.00    +0.249 C 
ATOM     17  O   UNL     1       1.817  -9.291  -9.520  0.00  0.00    -0.270 OA
ATOM     18  S   UNL     1       2.266  -4.436  -9.729  0.00  0.00    -0.107 S 
ATOM     19  H   UNL     1       3.300  -9.490 -11.381  0.00  0.00    +0.155 HD
ENDBRANCH   2   5
BRANCH   1  25
ATOM     20  C   UNL     1       0.776  -1.798  -1.335  0.00  0.00    +0.403 C 
ATOM     21  O   UNL     1       0.312  -2.549  -0.500  0.00  0.00    -0.226 OA
ATOM     22  N   UNL     1       1.395  -2.298  -2.422  0.00  0.00    -0.267 N 
ATOM     23  C   UNL     1       1.966  -1.403  -3.437  0.00  0.00    +0.113 C 
ATOM     24  C   UNL     1       1.404  -1.790  -4.809  0.00  0.00    +0.041 C 
ATOM     25  C   UNL     1       1.667  -3.276  -5.062  0.00  0.00    +0.076 C 
ATOM     26  C   UNL     1       0.956  -4.111  -3.995  0.00  0.00    +0.041 C 
ATOM     27  C   UNL     1       1.517  -3.750  -2.611  0.00  0.00    +0.113 C 
BRANCH  20  28
ATOM     28  O   UNL     1       0.671  -0.465  -1.174  0.00  0.00    -0.451 OA
BRANCH  28  30
ATOM     29  C   UNL     1      -0.019   1.526   0.010  0.00  0.00    +0.048 C 
ATOM     30  C   UNL     1       0.002  -0.004   0.002  0.00  0.00    +0.230 C 
ENDBRANCH  28  30
ENDBRANCH  20  28
ENDBRANCH   1  25
TORSDOF 4
