REMARK  Name = ZINC14986724
REMARK  9 active torsions:
REMARK  status: ('A' for Active; 'I' for Inactive)
REMARK    1  A    between atoms: C_1  and  C_2
REMARK    2  A    between atoms: C_2  and  C_3
REMARK    3  A    between atoms: C_2  and  C_4
REMARK    4  A    between atoms: C_4  and  N_54
REMARK    5  A    between atoms: C_5  and  N_54
REMARK    6  A    between atoms: N_16  and  C_19
REMARK    7  A    between atoms: C_19  and  C_20
REMARK    8  A    between atoms: C_25  and  O_26
REMARK    9  A    between atoms: O_26  and  C_27
REMARK                            x       y       z     vdW  Elec       q    Type
REMARK                         _______ _______ _______ _____ _____    ______ ____
ROOT
ATOM      1  C   UNL     1       5.645   4.139  -0.412  0.00  0.00    -0.067 C 
ATOM      2  C   UNL     1       5.902   2.876   0.416  0.00  0.00    -0.011 C 
ATOM      3  C   UNL     1       4.966   1.756  -0.040  0.00  0.00    +0.035 C 
ATOM      4  C   UNL     1       3.531   2.276  -0.022  0.00  0.00    -0.023 A 
ATOM      5  C   UNL     1       3.278   3.601  -0.011  0.00  0.00    -0.006 A 
ATOM      6  S   UNL     1       1.510   3.732   0.009  0.00  0.00    -0.073 S 
ATOM      7  C   UNL     1       1.116   2.001   0.002  0.00  0.00    +0.116 A 
ATOM      8  C   UNL     1       2.375   1.380  -0.014  0.00  0.00    +0.076 A 
ATOM      9  C   UNL     1       2.359  -0.054  -0.022  0.00  0.00    +0.263 A 
ATOM     10  O   UNL     1       3.402  -0.685  -0.036  0.00  0.00    -0.267 OA
ATOM     11  N   UNL     1       1.173  -0.691  -0.013  0.00  0.00    -0.294 N 
ATOM     12  C   UNL     1       0.002  -0.004   0.002  0.00  0.00    +0.203 A 
ATOM     13  N   UNL     1      -0.016   1.302   0.009  0.00  0.00    -0.230 NA
ATOM     14  C   UNL     1       4.278   4.717  -0.017  0.00  0.00    +0.027 C 
ENDROOT
BRANCH   1  15
ATOM     15  N   UNL     1       6.701   5.129  -0.131  0.00  0.00    +0.381 N 
ATOM     16  H   UNL     1       6.449   5.664   0.709  0.00  0.00    -0.086 HD
ATOM     17  H   UNL     1       7.590   4.640   0.029  0.00  0.00    -0.086 HD
BRANCH  15  18
ATOM     18  C   UNL     1       6.853   6.054  -1.270  0.00  0.00    -0.079 C 
BRANCH  18  20
ATOM     19  C   UNL     1       8.203   7.953  -2.173  0.00  0.00    +0.005 C 
ATOM     20  C   UNL     1       7.953   7.068  -0.950  0.00  0.00    -0.034 C 
ATOM     21  C   UNL     1       7.516   7.939   0.230  0.00  0.00    +0.005 C 
ENDBRANCH  18  20
ENDBRANCH  15  18
ENDBRANCH   1  15
BRANCH  11  22
ATOM     22  C   UNL     1       1.146  -2.156  -0.020  0.00  0.00    +0.165 C 
BRANCH  22  23
ATOM     23  C   UNL     1       1.122  -2.651  -1.443  0.00  0.00    +0.014 A 
ATOM     24  C   UNL     1      -0.069  -3.053  -2.015  0.00  0.00    +0.009 A 
ATOM     25  C   UNL     1      -0.092  -3.507  -3.321  0.00  0.00    +0.001 A 
ATOM     26  C   UNL     1       1.078  -3.561  -4.057  0.00  0.00    +0.004 A 
ATOM     27  C   UNL     1       2.272  -3.160  -3.489  0.00  0.00    +0.046 A 
ATOM     28  C   UNL     1       2.296  -2.699  -2.181  0.00  0.00    +0.125 A 
BRANCH  28  29
ATOM     29  O   UNL     1       3.468  -2.299  -1.621  0.00  0.00    -0.495 OA
ATOM     30  C   UNL     1       4.637  -2.376  -2.440  0.00  0.00    +0.277 C 
ENDBRANCH  28  29
ENDBRANCH  22  23
ENDBRANCH  11  22
TORSDOF 6
