REMARK  Name = ZINC53580455
REMARK  4 active torsions:
REMARK  status: ('A' for Active; 'I' for Inactive)
REMARK    1  A    between atoms: C_1  and  C_2
REMARK    2  A    between atoms: C_2  and  C_4
REMARK    3  A    between atoms: C_2  and  N_10
REMARK    4  A    between atoms: C_13  and  N_16
REMARK                            x       y       z     vdW  Elec       q    Type
REMARK                         _______ _______ _______ _____ _____    ______ ____
ROOT
ATOM      1  N   UNL     1       0.713  -0.491   1.192  0.00  0.00    +0.385 N 
ATOM      2  C   UNL     1       0.818  -1.972   1.156  0.00  0.00    -0.076 C 
ATOM      3  C   UNL     1       2.014  -2.265   2.096  0.00  0.00    +0.002 C 
ATOM      4  C   UNL     1       2.984  -1.100   1.796  0.00  0.00    +0.053 C 
ATOM      5  C   UNL     1       2.103   0.013   1.197  0.00  0.00    -0.056 C 
ATOM      6  H   UNL     1       0.233  -0.196   2.029  0.00  0.00    -0.081 HD
ENDROOT
BRANCH   4   7
ATOM      7  N   UNL     1       3.621  -0.637   3.031  0.00  0.00    -0.328 N 
ATOM      8  C   UNL     1       4.775  -1.253   3.488  0.00  0.00    +0.125 A 
ATOM      9  C   UNL     1       5.342  -2.311   2.777  0.00  0.00    +0.083 A 
ATOM     10  C   UNL     1       6.494  -2.896   3.270  0.00  0.00    +0.136 A 
ATOM     11  N   UNL     1       7.022  -2.437   4.397  0.00  0.00    -0.203 NA
ATOM     12  C   UNL     1       6.461  -1.431   5.051  0.00  0.00    +0.216 A 
ATOM     13  N   UNL     1       5.361  -0.841   4.608  0.00  0.00    -0.200 NA
ATOM     14  N   UNL     1       7.043  -0.981   6.223  0.00  0.00    -0.327 N 
ATOM     15 CL   UNL     1       7.240  -4.216   2.425  0.00  0.00    -0.062 Cl
ATOM     16  H   UNL     1       3.235   0.100   3.529  0.00  0.00    +0.148 HD
ATOM     17  H   UNL     1       7.851  -1.401   6.557  0.00  0.00    +0.145 HD
ATOM     18  H   UNL     1       6.642  -0.245   6.712  0.00  0.00    +0.145 HD
ENDBRANCH   4   7
BRANCH   1  20
ATOM     19  C   UNL     1      -0.019   1.526   0.010  0.00  0.00    -0.008 C 
ATOM     20  C   UNL     1       0.002  -0.004   0.002  0.00  0.00    -0.041 C 
BRANCH  20  21
ATOM     21  C   UNL     1      -1.412  -0.526   0.013  0.00  0.00    -0.061 A 
ATOM     22  C   UNL     1      -2.123  -0.571   1.197  0.00  0.00    +0.002 A 
ATOM     23  C   UNL     1      -3.420  -1.049   1.207  0.00  0.00    +0.000 A 
ATOM     24  C   UNL     1      -4.006  -1.482   0.032  0.00  0.00    +0.000 A 
ATOM     25  C   UNL     1      -3.295  -1.436  -1.153  0.00  0.00    +0.000 A 
ATOM     26  C   UNL     1      -2.000  -0.954  -1.163  0.00  0.00    +0.002 A 
ENDBRANCH  20  21
ENDBRANCH   1  20
TORSDOF 3
