REMARK  Name = ZINC21661403
REMARK  6 active torsions:
REMARK  status: ('A' for Active; 'I' for Inactive)
REMARK    1  A    between atoms: C_1  and  C_2
REMARK    2  A    between atoms: C_2  and  C_3
REMARK    3  A    between atoms: C_3  and  C_5
REMARK    4  A    between atoms: C_3  and  S_15
REMARK    5  A    between atoms: N_7  and  C_8
REMARK    6  A    between atoms: S_15  and  C_16
REMARK                            x       y       z     vdW  Elec       q    Type
REMARK                         _______ _______ _______ _____ _____    ______ ____
ROOT
ATOM      1  C   UNL     1       1.282   1.832   0.050  0.00  0.00    +0.140 C 
ENDROOT
BRANCH   1   2
ATOM      2  C   UNL     1       0.008   1.029  -0.013  0.00  0.00    +0.231 C 
ATOM      3  O   UNL     1       0.056  -0.181  -0.074  0.00  0.00    -0.274 OA
ATOM      4  N   UNL     1      -1.185   1.657  -0.006  0.00  0.00    -0.282 N 
ATOM      5  H   UNL     1      -1.232   2.747   0.131  0.00  0.00    +0.155 HD
BRANCH   4   6
ATOM      6  C   UNL     1      -2.365   0.920  -0.175  0.00  0.00    +0.069 A 
ATOM      7  C   UNL     1      -2.457  -0.370   0.330  0.00  0.00    +0.026 A 
ATOM      8  C   UNL     1      -3.624  -1.092   0.167  0.00  0.00    +0.002 A 
ATOM      9  C   UNL     1      -4.696  -0.536  -0.507  0.00  0.00    +0.003 A 
ATOM     10  C   UNL     1      -4.606   0.747  -1.016  0.00  0.00    +0.040 A 
ATOM     11  C   UNL     1      -3.443   1.478  -0.852  0.00  0.00    +0.144 A 
ATOM     12  F   UNL     1      -3.356   2.731  -1.350  0.00  0.00    -0.204 F 
ENDBRANCH   4   6
ENDBRANCH   1   2
BRANCH   1  14
ATOM     13  C   UNL     1       2.835   3.067   1.568  0.00  0.00    +0.005 C 
ATOM     14  C   UNL     1       1.621   2.137   1.510  0.00  0.00    +0.020 C 
ENDBRANCH   1  14
BRANCH   1  15
ATOM     15  S   UNL     1       2.629   0.884  -0.699  0.00  0.00    -0.076 S 
BRANCH  15  16
ATOM     16  C   UNL     1       2.133   0.928  -2.389  0.00  0.00    +0.180 C 
ATOM     17  N   UNL     1       0.993   1.477  -2.657  0.00  0.00    -0.106 NA
ATOM     18  S   UNL     1       0.442   1.578  -4.218  0.00  0.00    +0.103 S 
ATOM     19  O   UNL     1      -0.479   0.511  -4.398  0.00  0.00    -0.146 OA
ATOM     20  O   UNL     1       0.091   2.937  -4.441  0.00  0.00    -0.146 OA
ATOM     21  C   UNL     1       1.833   1.230  -5.245  0.00  0.00    +0.134 A 
ATOM     22  C   UNL     1       1.803   1.511  -6.592  0.00  0.00    +0.031 A 
ATOM     23  C   UNL     1       2.908   1.230  -7.378  0.00  0.00    +0.002 A 
ATOM     24  C   UNL     1       4.037   0.669  -6.810  0.00  0.00    +0.002 A 
ATOM     25  C   UNL     1       4.070   0.387  -5.458  0.00  0.00    +0.025 A 
ATOM     26  C   UNL     1       2.963   0.665  -4.665  0.00  0.00    +0.060 A 
ATOM     27  N   UNL     1       2.985   0.386  -3.302  0.00  0.00    -0.291 N 
ATOM     28  H   UNL     1       3.758  -0.327  -2.979  0.00  0.00    +0.154 HD
ENDBRANCH  15  16
ENDBRANCH   1  15
TORSDOF 5
