REMARK  Name = ZINC29627582
REMARK  12 active torsions:
REMARK  status: ('A' for Active; 'I' for Inactive)
REMARK    1  A    between atoms: C_1  and  C_2
REMARK    2  A    between atoms: C_2  and  C_3
REMARK    3  A    between atoms: C_3  and  C_4
REMARK    4  A    between atoms: C_4  and  N_5
REMARK    5  A    between atoms: C_6  and  C_30
REMARK    6  A    between atoms: C_7  and  C_29
REMARK    7  A    between atoms: C_9  and  S_10
REMARK    8  A    between atoms: S_10  and  C_11
REMARK    9  A    between atoms: C_11  and  C_12
REMARK   10  A    between atoms: C_18  and  S_25
REMARK   11  A    between atoms: C_22  and  C_24
REMARK   12  A    between atoms: S_25  and  N_28
REMARK                            x       y       z     vdW  Elec       q    Type
REMARK                         _______ _______ _______ _____ _____    ______ ____
ROOT
ATOM      1  C   UNL     1      -2.280  -3.095   6.277  0.00  0.00    +0.230 C 
ATOM      2  O   UNL     1      -3.158  -2.718   5.529  0.00  0.00    -0.274 OA
ATOM      3  N   UNL     1      -2.577  -3.439   7.545  0.00  0.00    -0.267 N 
ATOM      4  C   UNL     1      -1.650  -3.881   8.495  0.00  0.00    +0.040 A 
ATOM      5  C   UNL     1      -0.272  -4.064   8.367  0.00  0.00    +0.026 A 
ATOM      6  C   UNL     1       0.472  -4.513   9.437  0.00  0.00    +0.030 A 
ATOM      7  C   UNL     1      -0.142  -4.786  10.646  0.00  0.00    +0.105 A 
ATOM      8  C   UNL     1      -1.506  -4.608  10.780  0.00  0.00    +0.034 A 
ATOM      9  C   UNL     1      -2.256  -4.157   9.710  0.00  0.00    -0.022 A 
ATOM     10  C   UNL     1      -3.737  -3.879   9.584  0.00  0.00    +0.059 C 
ATOM     11  C   UNL     1      -3.918  -3.398   8.135  0.00  0.00    +0.083 C 
ATOM     12  C   UNL     1      -4.465  -1.969   8.112  0.00  0.00    +0.029 C 
ENDROOT
BRANCH   7  13
ATOM     13  S   UNL     1       0.811  -5.362  12.011  0.00  0.00    +0.056 S 
ATOM     14  O   UNL     1      -0.083  -6.064  12.864  0.00  0.00    -0.153 OA
ATOM     15  O   UNL     1       1.977  -5.965  11.466  0.00  0.00    -0.153 OA
BRANCH  13  16
ATOM     16  N   UNL     1       1.318  -4.028  12.851  0.00  0.00    -0.204 NA
ATOM     17  H   UNL     1       1.463  -4.083  13.808  0.00  0.00    +0.144 HD
ATOM     18  H   UNL     1       1.470  -3.190  12.385  0.00  0.00    +0.144 HD
ENDBRANCH  13  16
ENDBRANCH   7  13
BRANCH   1  19
ATOM     19  C   UNL     1      -0.858  -3.180   5.786  0.00  0.00    +0.173 C 
BRANCH  19  20
ATOM     20  S   UNL     1      -0.784  -2.656   4.051  0.00  0.00    -0.080 S 
BRANCH  20  25
ATOM     21  N   UNL     1       1.471  -2.526   2.420  0.00  0.00    -0.324 N 
ATOM     22  C   UNL     1       2.821  -2.776   2.523  0.00  0.00    +0.037 A 
ATOM     23  C   UNL     1       3.046  -3.204   3.776  0.00  0.00    +0.034 A 
ATOM     24  N   UNL     1       1.875  -3.221   4.434  0.00  0.00    -0.338 N 
ATOM     25  C   UNL     1       0.921  -2.810   3.632  0.00  0.00    +0.148 A 
ATOM     26  C   UNL     1       4.384  -3.599   4.347  0.00  0.00    +0.065 C 
ATOM     27  C   UNL     1       3.851  -2.603   1.436  0.00  0.00    +0.065 C 
ATOM     28  H   UNL     1       1.754  -3.490   5.358  0.00  0.00    +0.168 HD
BRANCH  21  29
ATOM     29  C   UNL     1       0.763  -2.041   1.233  0.00  0.00    +0.124 C 
BRANCH  29  30
ATOM     30  C   UNL     1       0.742  -0.511   1.242  0.00  0.00    +0.021 C 
BRANCH  30  32
ATOM     31  C   UNL     1      -0.019   1.526   0.010  0.00  0.00    +0.004 C 
ATOM     32  C   UNL     1       0.002  -0.004   0.002  0.00  0.00    -0.002 C 
ENDBRANCH  30  32
ENDBRANCH  29  30
ENDBRANCH  21  29
ENDBRANCH  20  25
ENDBRANCH  19  20
ENDBRANCH   1  19
TORSDOF 8
