REMARK  Name = ZINC51636294
REMARK  6 active torsions:
REMARK  status: ('A' for Active; 'I' for Inactive)
REMARK    1  A    between atoms: C_1  and  C_2
REMARK    2  A    between atoms: C_2  and  C_3
REMARK    3  A    between atoms: C_2  and  N_4
REMARK    4  A    between atoms: C_8  and  N_12
REMARK    5  A    between atoms: N_12  and  C_13
REMARK    6  A    between atoms: C_17  and  C_19
REMARK                            x       y       z     vdW  Elec       q    Type
REMARK                         _______ _______ _______ _____ _____    ______ ____
ROOT
ATOM      1  N   UNL     1      -4.201  -1.124  -1.682  0.00  0.00    -0.333 N 
ATOM      2  H   UNL     1      -4.567  -0.229  -1.611  0.00  0.00    +0.147 HD
ENDROOT
BRANCH   1   7
ATOM      3  N   UNL     1      -1.372  -0.511   0.012  0.00  0.00    -0.238 N 
ATOM      4  C   UNL     1      -2.239  -0.234   0.994  0.00  0.00    +0.224 C 
ATOM      5  O   UNL     1      -2.003   0.449   1.967  0.00  0.00    -0.275 OA
ATOM      6  C   UNL     1      -3.560  -0.910   0.697  0.00  0.00    +0.128 C 
ATOM      7  C   UNL     1      -3.304  -1.632  -0.641  0.00  0.00    +0.166 C 
ATOM      8  C   UNL     1      -1.867  -1.285  -0.962  0.00  0.00    +0.243 C 
ATOM      9  O   UNL     1      -1.258  -1.651  -1.945  0.00  0.00    -0.273 OA
BRANCH   3  11
ATOM     10  C   UNL     1      -0.019   1.526   0.010  0.00  0.00    +0.028 C 
ATOM     11  C   UNL     1       0.002  -0.004   0.002  0.00  0.00    +0.078 C 
ATOM     12  C   UNL     1       0.742  -0.511   1.242  0.00  0.00    +0.028 C 
ENDBRANCH   3  11
ENDBRANCH   1   7
BRANCH   1  13
ATOM     13  C   UNL     1      -4.528  -1.929  -2.778  0.00  0.00    +0.029 A 
ATOM     14  C   UNL     1      -4.006  -3.214  -2.876  0.00  0.00    +0.026 A 
ATOM     15  C   UNL     1      -4.325  -4.015  -3.955  0.00  0.00    +0.041 A 
ATOM     16  C   UNL     1      -5.166  -3.543  -4.947  0.00  0.00    +0.141 A 
ATOM     17  C   UNL     1      -5.696  -2.252  -4.857  0.00  0.00    +0.089 A 
ATOM     18  C   UNL     1      -5.376  -1.447  -3.761  0.00  0.00    +0.044 A 
ATOM     19  F   UNL     1      -5.475  -4.329  -6.001  0.00  0.00    -0.204 F 
BRANCH  17  20
ATOM     20  C   UNL     1      -6.567  -1.760  -5.881  0.00  0.00    +0.102 C 
ATOM     21  N   UNL     1      -7.258  -1.369  -6.693  0.00  0.00    -0.191 NA
ENDBRANCH  17  20
ENDBRANCH   1  13
TORSDOF 4
