REMARK  Name = ZINC22918464
REMARK  9 active torsions:
REMARK  status: ('A' for Active; 'I' for Inactive)
REMARK    1  A    between atoms: C_1  and  C_2
REMARK    2  A    between atoms: C_2  and  C_3
REMARK    3  A    between atoms: C_3  and  N_4
REMARK    4  A    between atoms: N_7  and  C_10
REMARK    5  A    between atoms: C_10  and  N_11
REMARK    6  A    between atoms: N_14  and  C_25
REMARK    7  A    between atoms: C_15  and  C_17
REMARK    8  A    between atoms: C_22  and  O_23
REMARK    9  A    between atoms: O_23  and  C_24
REMARK                            x       y       z     vdW  Elec       q    Type
REMARK                         _______ _______ _______ _____ _____    ______ ____
ROOT
ATOM      1  N   UNL     1      -0.748   1.808  -3.508  0.00  0.00    -0.225 N 
ATOM      2  C   UNL     1      -1.823   1.407  -4.216  0.00  0.00    +0.184 A 
ATOM      3  S   UNL     1      -2.860   0.101  -3.828  0.00  0.00    -0.011 S 
ATOM      4  N   UNL     1      -1.936   2.222  -5.284  0.00  0.00    -0.271 N 
ATOM      5  C   UNL     1      -0.903   3.139  -5.240  0.00  0.00    +0.171 A 
ATOM      6  N   UNL     1      -0.184   2.901  -4.178  0.00  0.00    -0.149 NA
ENDROOT
BRANCH   4   7
ATOM      7  C   UNL     1      -2.926   2.147  -6.273  0.00  0.00    +0.051 A 
ATOM      8  C   UNL     1      -3.865   3.162  -6.395  0.00  0.00    +0.028 A 
ATOM      9  C   UNL     1      -4.837   3.088  -7.373  0.00  0.00    +0.022 A 
ATOM     10  C   UNL     1      -4.882   1.999  -8.226  0.00  0.00    +0.041 A 
ATOM     11  C   UNL     1      -3.950   0.983  -8.103  0.00  0.00    +0.022 A 
ATOM     12  C   UNL     1      -2.973   1.055  -7.130  0.00  0.00    +0.028 A 
ATOM     13 CL   UNL     1      -6.108   1.907  -9.451  0.00  0.00    -0.084 Cl
ENDBRANCH   4   7
BRANCH   5  14
ATOM     14  C   UNL     1      -0.656   4.211  -6.229  0.00  0.00    +0.061 A 
ATOM     15  C   UNL     1      -0.681   3.924  -7.593  0.00  0.00    +0.015 A 
ATOM     16  C   UNL     1      -0.450   4.928  -8.511  0.00  0.00    +0.001 A 
ATOM     17  C   UNL     1      -0.194   6.219  -8.084  0.00  0.00    +0.004 A 
ATOM     18  C   UNL     1      -0.167   6.515  -6.734  0.00  0.00    +0.046 A 
ATOM     19  C   UNL     1      -0.402   5.519  -5.800  0.00  0.00    +0.131 A 
BRANCH  19  20
ATOM     20  O   UNL     1      -0.381   5.809  -4.473  0.00  0.00    -0.494 OA
ATOM     21  C   UNL     1      -0.115   7.166  -4.111  0.00  0.00    +0.277 C 
ENDBRANCH  19  20
ENDBRANCH   5  14
BRANCH   1  22
ATOM     22  C   UNL     1      -0.256   1.206  -2.266  0.00  0.00    +0.232 C 
BRANCH  22  26
ATOM     23  N   UNL     1      -0.963   3.565   1.166  0.00  0.00    +0.381 N 
ATOM     24  C   UNL     1      -0.989   2.103   1.318  0.00  0.00    -0.063 C 
ATOM     25  C   UNL     1      -0.252   1.458   0.142  0.00  0.00    +0.067 C 
ATOM     26  N   UNL     1      -0.890   1.866  -1.117  0.00  0.00    -0.287 NA
ATOM     27  C   UNL     1      -0.862   3.327  -1.268  0.00  0.00    +0.067 C 
ATOM     28  C   UNL     1      -1.600   3.973  -0.093  0.00  0.00    -0.063 C 
ATOM     29  H   UNL     1       0.090   3.884   1.133  0.00  0.00    -0.082 HD
BRANCH  23  30
ATOM     30  C   UNL     1      -1.596   4.225   2.315  0.00  0.00    -0.079 C 
BRANCH  30  32
ATOM     31  C   UNL     1      -1.742   4.284   4.809  0.00  0.00    +0.002 C 
ATOM     32  C   UNL     1      -1.082   3.596   3.612  0.00  0.00    -0.022 C 
ENDBRANCH  30  32
ENDBRANCH  23  30
ENDBRANCH  22  26
ENDBRANCH   1  22
TORSDOF 7
