REMARK  Name = ZINC12589179
REMARK  4 active torsions:
REMARK  status: ('A' for Active; 'I' for Inactive)
REMARK    1  A    between atoms: C_1  and  C_2
REMARK    2  A    between atoms: C_3  and  C_8
REMARK    3  A    between atoms: N_18  and  C_21
REMARK    4  A    between atoms: C_21  and  C_22
REMARK                            x       y       z     vdW  Elec       q    Type
REMARK                         _______ _______ _______ _____ _____    ______ ____
ROOT
ATOM      1  C   UNL     1      -0.254   1.853  -2.378  0.00  0.00    +0.285 C 
ATOM      2  O   UNL     1      -0.969   2.286  -3.263  0.00  0.00    -0.267 OA
ATOM      3  N   UNL     1      -0.750   1.671  -1.139  0.00  0.00    -0.294 N 
ATOM      4  C   UNL     1       0.001   1.156   0.021  0.00  0.00    +0.109 C 
ATOM      5  C   UNL     1      -0.752   1.702   1.261  0.00  0.00    +0.036 C 
ATOM      6  C   UNL     1      -2.223   1.630   0.782  0.00  0.00    +0.064 C 
ATOM      7  C   UNL     1      -2.132   1.954  -0.718  0.00  0.00    +0.124 C 
ATOM      8  C   UNL     1      -3.059   2.679   1.505  0.00  0.00    +0.019 C 
ATOM      9  C   UNL     1      -3.310   2.196   2.940  0.00  0.00    +0.020 C 
ATOM     10  C   UNL     1      -4.192   0.949   2.891  0.00  0.00    +0.108 C 
ATOM     11  N   UNL     1      -3.643  -0.037   1.969  0.00  0.00    -0.301 N 
ATOM     12  C   UNL     1      -2.773   0.256   0.998  0.00  0.00    +0.223 C 
ATOM     13  O   UNL     1      -2.413  -0.633   0.256  0.00  0.00    -0.275 OA
ENDROOT
BRANCH   1  16
ATOM     14  C   UNL     1       0.644   2.030  -5.013  0.00  0.00    +0.089 C 
ATOM     15  C   UNL     1       1.593   1.605  -3.922  0.00  0.00    +0.141 C 
ATOM     16  C   UNL     1       1.145   1.529  -2.661  0.00  0.00    +0.220 C 
ATOM     17  O   UNL     1       1.961   1.152  -1.637  0.00  0.00    -0.481 OA
ATOM     18  C   UNL     1       3.184   0.500  -2.000  0.00  0.00    +0.270 C 
ATOM     19  C   UNL     1       3.814   1.284  -3.160  0.00  0.00    +0.269 C 
ATOM     20  O   UNL     1       2.873   1.315  -4.239  0.00  0.00    -0.489 OA
ENDBRANCH   1  16
BRANCH  11  21
ATOM     21  C   UNL     1      -4.070  -1.431   2.115  0.00  0.00    +0.111 C 
BRANCH  21  22
ATOM     22  C   UNL     1      -5.313  -1.677   1.258  0.00  0.00    +0.006 C 
ATOM     23  C   UNL     1      -6.632  -1.352   1.979  0.00  0.00    +0.005 C 
ATOM     24  C   UNL     1      -7.213  -2.612   1.314  0.00  0.00    +0.001 C 
ATOM     25  C   UNL     1      -5.772  -3.144   1.244  0.00  0.00    +0.005 C 
ENDBRANCH  21  22
ENDBRANCH  11  21
TORSDOF 3
