REMARK  Name = ZINC57122272
REMARK  5 active torsions:
REMARK  status: ('A' for Active; 'I' for Inactive)
REMARK    1  A    between atoms: C_1  and  N_2
REMARK    2  A    between atoms: C_5  and  S_8
REMARK    3  A    between atoms: S_8  and  N_11
REMARK    4  A    between atoms: N_11  and  C_12
REMARK    5  A    between atoms: C_14  and  N_19
REMARK                            x       y       z     vdW  Elec       q    Type
REMARK                         _______ _______ _______ _____ _____    ______ ____
ROOT
ATOM      1  C   UNL     1       1.794  -4.611   3.322  0.00  0.00    +0.111 A 
ATOM      2  C   UNL     1       2.995  -4.618   4.016  0.00  0.00    +0.053 A 
ATOM      3  C   UNL     1       3.288  -5.664   4.880  0.00  0.00    +0.042 A 
ATOM      4  C   UNL     1       2.379  -6.700   5.049  0.00  0.00    +0.026 A 
ATOM      5  C   UNL     1       1.183  -6.692   4.357  0.00  0.00    +0.042 A 
ATOM      6  C   UNL     1       0.884  -5.649   3.499  0.00  0.00    +0.148 A 
ATOM      7  F   UNL     1      -0.288  -5.640   2.828  0.00  0.00    -0.203 F 
ENDROOT
BRANCH   3   8
ATOM      8  N   UNL     1       4.500  -5.674   5.582  0.00  0.00    -0.234 N 
ATOM      9  C   UNL     1       4.951  -6.716   6.526  0.00  0.00    +0.158 C 
ATOM     10  C   UNL     1       6.458  -6.396   6.671  0.00  0.00    +0.253 C 
ATOM     11  O   UNL     1       6.502  -4.997   6.327  0.00  0.00    -0.448 OA
ATOM     12  C   UNL     1       5.466  -4.739   5.511  0.00  0.00    +0.407 C 
ATOM     13  O   UNL     1       5.405  -3.763   4.790  0.00  0.00    -0.226 OA
ENDBRANCH   3   8
BRANCH   1  14
ATOM     14  N   UNL     1       1.495  -3.559   2.450  0.00  0.00    -0.093 NA
BRANCH  14  15
ATOM     15  S   UNL     1       0.058  -3.549   1.628  0.00  0.00    +0.110 S 
ATOM     16  O   UNL     1      -0.966  -3.397   2.601  0.00  0.00    -0.147 OA
ATOM     17  O   UNL     1       0.096  -4.647   0.728  0.00  0.00    -0.147 OA
BRANCH  15  22
ATOM     18  C   UNL     1      -0.018   1.461   0.010  0.00  0.00    +0.151 C 
ATOM     19  N   UNL     1       0.002  -0.004   0.002  0.00  0.00    -0.324 N 
ATOM     20  C   UNL     1       0.009  -0.800  -1.090  0.00  0.00    +0.176 A 
ATOM     21  N   UNL     1       0.027  -2.045  -0.701  0.00  0.00    -0.329 N 
ATOM     22  C   UNL     1       0.034  -2.090   0.640  0.00  0.00    +0.214 A 
ATOM     23  C   UNL     1       0.024  -0.822   1.099  0.00  0.00    +0.154 A 
ATOM     24 CL   UNL     1       0.032  -0.324   2.762  0.00  0.00    -0.060 Cl
ATOM     25  H   UNL     1       0.036  -2.817  -1.288  0.00  0.00    +0.168 HD
ENDBRANCH  15  22
ENDBRANCH  14  15
ENDBRANCH   1  14
TORSDOF 4
