REMARK  Name = ZINC00411195
REMARK  5 active torsions:
REMARK  status: ('A' for Active; 'I' for Inactive)
REMARK    1  A    between atoms: C_1  and  C_2
REMARK    2  A    between atoms: C_3  and  C_21
REMARK    3  A    between atoms: C_7  and  N_11
REMARK    4  A    between atoms: N_11  and  C_12
REMARK    5  A    between atoms: C_18  and  C_20
REMARK                            x       y       z     vdW  Elec       q    Type
REMARK                         _______ _______ _______ _____ _____    ______ ____
ROOT
ATOM      1  C   UNL     1      -1.054   6.197   0.085  0.00  0.00    +0.045 C 
ATOM      2  C   UNL     1       0.141   5.279   0.065  0.00  0.00    -0.028 A 
ATOM      3  C   UNL     1       1.366   5.755   0.336  0.00  0.00    -0.008 A 
ATOM      4  S   UNL     1       2.413   4.319   0.188  0.00  0.00    -0.074 S 
ATOM      5  C   UNL     1       1.177   3.119  -0.233  0.00  0.00    +0.114 A 
ATOM      6  C   UNL     1      -0.019   3.870  -0.248  0.00  0.00    +0.051 A 
ATOM      7  C   UNL     1      -1.195   3.136  -0.564  0.00  0.00    +0.131 A 
ATOM      8  N   UNL     1      -1.099   1.842  -0.822  0.00  0.00    -0.220 NA
ATOM      9  C   UNL     1       0.056   1.202  -0.785  0.00  0.00    +0.224 A 
ATOM     10  N   UNL     1       1.181   1.827  -0.498  0.00  0.00    -0.228 NA
ATOM     11  C   UNL     1       1.763   7.167   0.683  0.00  0.00    +0.052 C 
ENDROOT
BRANCH   7  12
ATOM     12  N   UNL     1      -2.425   3.769  -0.608  0.00  0.00    -0.325 N 
ATOM     13  H   UNL     1      -2.478   4.732  -0.506  0.00  0.00    +0.148 HD
BRANCH  12  14
ATOM     14  C   UNL     1      -3.646   2.985  -0.808  0.00  0.00    +0.075 C 
ATOM     15  C   UNL     1      -3.871   2.765  -2.305  0.00  0.00    +0.022 C 
ATOM     16  C   UNL     1      -4.014   4.118  -3.004  0.00  0.00    +0.002 C 
ATOM     17  C   UNL     1      -5.207   4.873  -2.415  0.00  0.00    +0.000 C 
ATOM     18  C   UNL     1      -4.982   5.093  -0.917  0.00  0.00    +0.005 C 
ATOM     19  C   UNL     1      -4.839   3.740  -0.219  0.00  0.00    +0.006 C 
ATOM     20  C   UNL     1      -4.614   3.960   1.279  0.00  0.00    +0.009 C 
ENDBRANCH  12  14
ENDBRANCH   7  12
TORSDOF 2
