REMARK  Name = ZINC63137105
REMARK  9 active torsions:
REMARK  status: ('A' for Active; 'I' for Inactive)
REMARK    1  A    between atoms: C_1  and  C_2
REMARK    2  A    between atoms: C_6  and  C_8
REMARK    3  A    between atoms: N_27  and  C_30
REMARK    4  A    between atoms: C_30  and  C_31
REMARK    5  A    between atoms: C_31  and  C_32
REMARK    6  A    between atoms: C_32  and  O_33
REMARK    7  A    between atoms: O_33  and  C_34
REMARK    8  A    between atoms: C_34  and  C_35
REMARK    9  A    between atoms: C_34  and  C_36
REMARK                            x       y       z     vdW  Elec       q    Type
REMARK                         _______ _______ _______ _____ _____    ______ ____
ROOT
ATOM      1  C   UNL     1       0.054  -2.845   2.489  0.00  0.00    +0.133 C 
ATOM      2  C   UNL     1      -1.367  -3.305   2.813  0.00  0.00    +0.131 C 
ATOM      3  C   UNL     1      -1.646  -4.483   1.883  0.00  0.00    -0.034 C 
ATOM      4  C   UNL     1      -2.680  -4.138   1.128  0.00  0.00    -0.001 A 
ATOM      5  C   UNL     1      -3.413  -4.864   0.078  0.00  0.00    +0.010 A 
ATOM      6  C   UNL     1      -4.441  -4.196  -0.507  0.00  0.00    +0.001 A 
ATOM      7  C   UNL     1      -4.810  -2.894  -0.158  0.00  0.00    +0.002 A 
ATOM      8  C   UNL     1      -4.194  -2.151   0.796  0.00  0.00    +0.026 A 
ATOM      9  C   UNL     1      -3.097  -2.747   1.484  0.00  0.00    +0.043 A 
ATOM     10  N   UNL     1      -2.340  -2.266   2.450  0.00  0.00    -0.375 N 
ATOM     11  C   UNL     1      -0.796  -5.723   1.919  0.00  0.00    +0.065 C 
ATOM     12  C   UNL     1       0.654  -5.345   2.072  0.00  0.00    +0.167 C 
ATOM     13  N   UNL     1       0.974  -3.966   2.370  0.00  0.00    -0.279 N 
ATOM     14  C   UNL     1       2.313  -3.691   2.507  0.00  0.00    +0.234 C 
ATOM     15  O   UNL     1       2.706  -2.588   2.822  0.00  0.00    -0.274 OA
ATOM     16  C   UNL     1       3.276  -4.830   2.245  0.00  0.00    +0.203 C 
ATOM     17  N   UNL     1       2.841  -5.540   1.028  0.00  0.00    -0.291 N 
ATOM     18  C   UNL     1       1.514  -5.829   0.932  0.00  0.00    +0.237 C 
ATOM     19  O   UNL     1       1.054  -6.439  -0.010  0.00  0.00    -0.274 OA
ATOM     20  H   UNL     1      -2.403  -1.386   2.853  0.00  0.00    +0.160 HD
ENDROOT
BRANCH   1  26
ATOM     21  C   UNL     1      -0.018   1.503   0.010  0.00  0.00    +0.044 C 
ATOM     22  C   UNL     1       0.002  -0.004   0.002  0.00  0.00    -0.050 A 
ATOM     23  C   UNL     1       0.006  -0.689  -1.199  0.00  0.00    +0.003 A 
ATOM     24  C   UNL     1       0.025  -2.071  -1.207  0.00  0.00    +0.001 A 
ATOM     25  C   UNL     1       0.040  -2.768  -0.013  0.00  0.00    +0.005 A 
ATOM     26  C   UNL     1       0.037  -2.084   1.188  0.00  0.00    -0.024 A 
ATOM     27  C   UNL     1       0.023  -0.702   1.195  0.00  0.00    +0.009 A 
ENDBRANCH   1  26
BRANCH  17  28
ATOM     28  C   UNL     1       3.789  -5.914  -0.024  0.00  0.00    +0.110 C 
BRANCH  28  29
ATOM     29  C   UNL     1       4.348  -7.308   0.265  0.00  0.00    +0.047 C 
BRANCH  29  30
ATOM     30  C   UNL     1       5.338  -7.699  -0.834  0.00  0.00    +0.161 C 
BRANCH  30  31
ATOM     31  O   UNL     1       5.859  -9.001  -0.564  0.00  0.00    -0.377 OA
BRANCH  31  32
ATOM     32  C   UNL     1       6.799  -9.464  -1.537  0.00  0.00    +0.112 C 
ATOM     33  C   UNL     1       7.806 -10.401  -0.867  0.00  0.00    +0.037 C 
ATOM     34  C   UNL     1       6.059 -10.218  -2.643  0.00  0.00    +0.037 C 
ENDBRANCH  31  32
ENDBRANCH  30  31
ENDBRANCH  29  30
ENDBRANCH  28  29
ENDBRANCH  17  28
TORSDOF 6
