REMARK  Name = ZINC65408016
REMARK  7 active torsions:
REMARK  status: ('A' for Active; 'I' for Inactive)
REMARK    1  A    between atoms: C_1  and  C_2
REMARK    2  A    between atoms: C_7  and  O_30
REMARK    3  A    between atoms: C_11  and  C_13
REMARK    4  A    between atoms: C_24  and  C_26
REMARK    5  A    between atoms: C_26  and  O_28
REMARK    6  A    between atoms: O_28  and  C_29
REMARK    7  A    between atoms: O_30  and  C_31
REMARK                            x       y       z     vdW  Elec       q    Type
REMARK                         _______ _______ _______ _____ _____    ______ ____
ROOT
ATOM      1  C   UNL     1       0.446  -0.766   2.667  0.00  0.00    +0.258 C 
ATOM      2  O   UNL     1       0.412  -1.909   3.072  0.00  0.00    -0.271 OA
ATOM      3  N   UNL     1      -0.444   0.137   3.122  0.00  0.00    -0.279 N 
ATOM      4  C   UNL     1      -0.489   1.501   2.565  0.00  0.00    +0.165 C 
ATOM      5  C   UNL     1      -0.613   2.457   3.728  0.00  0.00    +0.079 A 
ATOM      6  H   UNL     1      -1.104   3.242   6.707  0.00  0.00    +0.166 HD
ATOM      7  C   UNL     1      -0.889   2.068   4.991  0.00  0.00    +0.042 A 
ATOM      8  N   UNL     1      -0.926   3.196   5.754  0.00  0.00    -0.348 N 
ATOM      9  C   UNL     1      -0.669   4.240   4.933  0.00  0.00    +0.197 A 
ATOM     10  N   UNL     1      -0.482   3.785   3.721  0.00  0.00    -0.239 NA
ATOM     11  C   UNL     1      -1.100   0.642   5.426  0.00  0.00    +0.089 C 
ATOM     12  C   UNL     1      -1.399  -0.216   4.184  0.00  0.00    +0.191 C 
ENDROOT
BRANCH   1  22
ATOM     13  C   UNL     1       0.461   0.995  -0.233  0.00  0.00    +0.017 C 
ATOM     14  C   UNL     1       0.897  -0.400   0.221  0.00  0.00    +0.069 C 
ATOM     15  C   UNL     1       2.082  -0.888  -0.589  0.00  0.00    +0.001 A 
ATOM     16  C   UNL     1       2.338  -0.888  -1.943  0.00  0.00    +0.011 A 
ATOM     17  C   UNL     1       3.530  -1.399  -2.422  0.00  0.00    +0.046 A 
ATOM     18  C   UNL     1       4.465  -1.911  -1.534  0.00  0.00    +0.124 A 
ATOM     19  C   UNL     1       4.206  -1.915  -0.174  0.00  0.00    +0.091 A 
ATOM     20  C   UNL     1       3.006  -1.403   0.311  0.00  0.00    +0.129 A 
ATOM     21  O   UNL     1       2.545  -1.325   1.590  0.00  0.00    -0.479 OA
ATOM     22  C   UNL     1       1.483  -0.357   1.653  0.00  0.00    +0.266 C 
BRANCH  18  23
ATOM     23  O   UNL     1       5.639  -2.412  -2.001  0.00  0.00    -0.495 OA
ATOM     24  C   UNL     1       5.842  -2.378  -3.415  0.00  0.00    +0.277 C 
ENDBRANCH  18  23
ENDBRANCH   1  22
BRANCH  12  25
ATOM     25  C   UNL     1      -1.253  -1.676   4.528  0.00  0.00    +0.328 C 
ATOM     26  O   UNL     1      -0.289  -2.056   5.151  0.00  0.00    -0.249 OA
BRANCH  25  27
ATOM     27  O   UNL     1      -2.193  -2.553   4.144  0.00  0.00    -0.467 OA
ATOM     28  C   UNL     1      -1.989  -3.921   4.504  0.00  0.00    +0.280 C 
ENDBRANCH  25  27
ENDBRANCH  12  25
TORSDOF 4
