REMARK  Name = ZINC64020254
REMARK  2 active torsions:
REMARK  status: ('A' for Active; 'I' for Inactive)
REMARK    1  A    between atoms: C_5  and  N_8
REMARK    2  A    between atoms: N_8  and  C_9
REMARK                            x       y       z     vdW  Elec       q    Type
REMARK                         _______ _______ _______ _____ _____    ______ ____
ROOT
ATOM      1  N   UNL     1       1.976  -1.046  -2.987  0.00  0.00    -0.342 N 
ATOM      2  H   UNL     1       1.764  -0.824  -3.907  0.00  0.00    +0.146 HD
ENDROOT
BRANCH   1   3
ATOM      3  C   UNL     1       2.622  -2.206  -2.700  0.00  0.00    +0.047 C 
ATOM      4  C   UNL     1       2.932  -2.558  -1.413  0.00  0.00    +0.152 C 
ATOM      5  N   UNL     1       3.559  -3.684  -1.137  0.00  0.00    -0.164 NA
ATOM      6  N   UNL     1       3.945  -4.558  -1.984  0.00  0.00    -0.079 NA
ATOM      7  C   UNL     1       3.751  -4.432  -3.306  0.00  0.00    +0.273 C 
ATOM      8  O   UNL     1       4.130  -5.283  -4.084  0.00  0.00    -0.271 OA
ATOM      9  C   UNL     1       3.032  -3.184  -3.788  0.00  0.00    +0.191 C 
ATOM     10 BR   UNL     1       1.416  -3.733  -4.765  0.00  0.00    -0.072 Br
ENDBRANCH   1   3
BRANCH   1  15
ATOM     11  C   UNL     1      -0.019   1.538   0.011  0.00  0.00    +0.000 C 
ATOM     12  C   UNL     1       1.401   2.036  -0.000  0.00  0.00    +0.000 C 
ATOM     13  C   UNL     1       1.910   2.335  -1.423  0.00  0.00    +0.002 C 
ATOM     14  C   UNL     1       1.480   1.268  -2.449  0.00  0.00    +0.022 C 
ATOM     15  C   UNL     1       1.598  -0.131  -1.907  0.00  0.00    +0.070 C 
ATOM     16  C   UNL     1       0.231  -0.548  -1.328  0.00  0.00    +0.022 C 
ATOM     17  C   UNL     1       0.002  -0.004   0.002  0.00  0.00    +0.002 C 
ENDBRANCH   1  15
TORSDOF 2
