REMARK  Name = ZINC28241457
REMARK  8 active torsions:
REMARK  status: ('A' for Active; 'I' for Inactive)
REMARK    1  A    between atoms: C_1  and  C_2
REMARK    2  A    between atoms: C_7  and  C_8
REMARK    3  A    between atoms: C_8  and  N_9
REMARK    4  A    between atoms: C_15  and  C_17
REMARK    5  A    between atoms: C_20  and  C_22
REMARK    6  A    between atoms: C_22  and  C_23
REMARK    7  A    between atoms: C_24  and  C_29
REMARK    8  A    between atoms: C_27  and  C_28
REMARK                            x       y       z     vdW  Elec       q    Type
REMARK                         _______ _______ _______ _____ _____    ______ ____
ROOT
ATOM      1  N   UNL     1       4.943  -5.064  -0.074  0.00  0.00    -0.265 N 
ATOM      2  C   UNL     1       3.677  -5.532  -0.064  0.00  0.00    +0.110 A 
ATOM      3  C   UNL     1       2.841  -4.469  -0.049  0.00  0.00    +0.065 A 
ATOM      4  C   UNL     1       3.626  -3.304  -0.050  0.00  0.00    +0.147 A 
ATOM      5  N   UNL     1       4.888  -3.664  -0.070  0.00  0.00    -0.156 NA
ATOM      6  N   UNL     1       3.146  -1.989  -0.039  0.00  0.00    -0.262 N 
ATOM      7  C   UNL     1       1.818  -1.756  -0.025  0.00  0.00    +0.285 C 
ATOM      8  O   UNL     1       1.037  -2.689  -0.022  0.00  0.00    -0.266 OA
ATOM      9  H   UNL     1       3.852  -1.145  -0.041  0.00  0.00    +0.157 HD
ENDROOT
BRANCH   7  10
ATOM     10  C   UNL     1       1.315  -0.379  -0.013  0.00  0.00    +0.190 A 
ATOM     11  C   UNL     1       0.002  -0.004   0.002  0.00  0.00    +0.055 A 
ATOM     12  C   UNL     1      -0.017   1.399   0.010  0.00  0.00    +0.046 A 
ATOM     13  C   UNL     1       1.269   1.815  -0.000  0.00  0.00    +0.110 A 
ATOM     14  O   UNL     1       2.069   0.740  -0.014  0.00  0.00    -0.455 OA
BRANCH  13  15
ATOM     15  C   UNL     1       1.728   3.250   0.002  0.00  0.00    +0.114 C 
BRANCH  15  16
ATOM     16  C   UNL     1       1.894   3.722   1.424  0.00  0.00    +0.024 A 
ATOM     17  C   UNL     1       0.930   4.339   2.255  0.00  0.00    +0.084 A 
ATOM     18  N   UNL     1       1.519   4.567   3.393  0.00  0.00    -0.083 NA
ATOM     19  O   UNL     1       2.671   4.199   3.380  0.00  0.00    -0.359 OA
ATOM     20  C   UNL     1       3.002   3.658   2.200  0.00  0.00    +0.138 A 
ATOM     21  C   UNL     1       4.344   3.091   1.812  0.00  0.00    +0.089 C 
ATOM     22  C   UNL     1      -0.496   4.665   1.895  0.00  0.00    +0.069 C 
ENDBRANCH  15  16
ENDBRANCH  13  15
ENDBRANCH   7  10
BRANCH   1  23
ATOM     23  C   UNL     1       6.161  -5.877  -0.091  0.00  0.00    +0.178 C 
BRANCH  23  30
ATOM     24  C   UNL     1       7.975  -3.642   0.155  0.00  0.00    +0.044 C 
ATOM     25  C   UNL     1       7.888  -4.402  -1.144  0.00  0.00    -0.046 A 
ATOM     26  C   UNL     1       8.678  -4.032  -2.216  0.00  0.00    +0.004 A 
ATOM     27  C   UNL     1       8.594  -4.727  -3.408  0.00  0.00    +0.000 A 
ATOM     28  C   UNL     1       7.723  -5.794  -3.527  0.00  0.00    +0.000 A 
ATOM     29  C   UNL     1       6.935  -6.166  -2.454  0.00  0.00    +0.006 A 
ATOM     30  C   UNL     1       7.020  -5.472  -1.261  0.00  0.00    -0.023 A 
ENDBRANCH  23  30
ENDBRANCH   1  23
TORSDOF 5
