REMARK  Name = ZINC03905469
REMARK  1 active torsions:
REMARK  status: ('A' for Active; 'I' for Inactive)
REMARK    1  A    between atoms: C_12  and  C_21
REMARK                            x       y       z     vdW  Elec       q    Type
REMARK                         _______ _______ _______ _____ _____    ______ ____
ROOT
ATOM      1  C   UNL     1      -3.111  -4.879  -2.996  0.00  0.00    +0.001 A 
ATOM      2  C   UNL     1      -1.866  -4.459  -3.461  0.00  0.00    +0.001 A 
ATOM      3  C   UNL     1      -0.974  -3.854  -2.628  0.00  0.00    +0.010 A 
ATOM      4  C   UNL     1      -1.311  -3.651  -1.280  0.00  0.00    +0.003 A 
ATOM      5  C   UNL     1      -2.574  -4.074  -0.808  0.00  0.00    -0.016 A 
ATOM      6  C   UNL     1      -3.470  -4.697  -1.696  0.00  0.00    +0.008 A 
ATOM      7  C   UNL     1      -2.916  -3.866   0.539  0.00  0.00    +0.009 A 
ATOM      8  C   UNL     1      -2.031  -3.250   1.368  0.00  0.00    +0.008 A 
ATOM      9  C   UNL     1      -0.785  -2.823   0.918  0.00  0.00    +0.003 A 
ATOM     10  C   UNL     1      -0.394  -3.026  -0.396  0.00  0.00    +0.041 A 
ATOM     11  N   UNL     1       0.844  -2.659  -0.908  0.00  0.00    -0.333 N 
ATOM     12  C   UNL     1       1.717  -1.875  -0.024  0.00  0.00    +0.143 C 
ATOM     13  C   UNL     1       1.595  -2.464   1.371  0.00  0.00    +0.052 C 
ATOM     14  C   UNL     1       0.150  -2.118   1.829  0.00  0.00    +0.155 C 
ATOM     15  O   UNL     1       0.167  -2.371   3.212  0.00  0.00    -0.372 OA
ATOM     16  C   UNL     1       1.474  -2.041   3.715  0.00  0.00    +0.161 C 
ATOM     17  C   UNL     1       2.375  -1.744   2.482  0.00  0.00    +0.036 C 
ATOM     18  H   UNL     1       1.332  -3.460  -1.281  0.00  0.00    +0.147 HD
ENDROOT
BRANCH  12  19
ATOM     19  C   UNL     1       1.274  -0.435  -0.012  0.00  0.00    +0.125 A 
ATOM     20  C   UNL     1       2.086   0.638  -0.014  0.00  0.00    +0.046 A 
ATOM     21  C   UNL     1       1.254   1.781  -0.000  0.00  0.00    +0.041 A 
ATOM     22  C   UNL     1      -0.016   1.339   0.009  0.00  0.00    +0.195 A 
ATOM     23  O   UNL     1       0.002  -0.004   0.002  0.00  0.00    -0.466 OA
ENDBRANCH  12  19
TORSDOF 1
