REMARK  Name = ZINC01404640
REMARK  9 active torsions:
REMARK  status: ('A' for Active; 'I' for Inactive)
REMARK    1  A    between atoms: C_1  and  C_2
REMARK    2  A    between atoms: C_5  and  C_8
REMARK    3  A    between atoms: N_15  and  C_17
REMARK    4  A    between atoms: C_17  and  C_18
REMARK    5  A    between atoms: C_17  and  C_19
REMARK    6  A    between atoms: C_17  and  C_20
REMARK    7  A    between atoms: N_21  and  S_22
REMARK    8  A    between atoms: S_22  and  C_25
REMARK    9  A    between atoms: C_28  and  C_31
REMARK                            x       y       z     vdW  Elec       q    Type
REMARK                         _______ _______ _______ _____ _____    ______ ____
ROOT
ATOM      1  C   UNL     1       0.138   4.792  -0.202  0.00  0.00    +0.105 A 
ATOM      2  C   UNL     1       1.169   3.760  -0.090  0.00  0.00    +0.088 A 
ATOM      3  C   UNL     1       1.166   2.360   0.026  0.00  0.00    +0.152 A 
ATOM      4  N   UNL     1       2.333   1.732   0.117  0.00  0.00    -0.219 NA
ATOM      5  C   UNL     1       3.472   2.403   0.106  0.00  0.00    +0.225 A 
ATOM      6  N   UNL     1       3.524   3.713   0.006  0.00  0.00    -0.216 NA
ATOM      7  C   UNL     1       2.406   4.432  -0.091  0.00  0.00    +0.164 A 
ATOM      8  N   UNL     1       2.133   5.763  -0.204  0.00  0.00    -0.240 N 
ATOM      9  N   UNL     1       0.748   5.951  -0.269  0.00  0.00    -0.168 NA
ATOM     10  N   UNL     1      -0.021   1.654   0.038  0.00  0.00    -0.199 N 
ATOM     11  H   UNL     1      -0.834   2.065  -0.296  0.00  0.00    +0.175 HD
ENDROOT
BRANCH   1  16
ATOM     12  C   UNL     1      -5.553   3.923  -0.341  0.00  0.00    +0.044 C 
ATOM     13  C   UNL     1      -4.064   4.150  -0.305  0.00  0.00    -0.050 A 
ATOM     14  C   UNL     1      -3.285   3.471   0.616  0.00  0.00    +0.004 A 
ATOM     15  C   UNL     1      -1.921   3.675   0.654  0.00  0.00    +0.010 A 
ATOM     16  C   UNL     1      -1.327   4.567  -0.238  0.00  0.00    +0.003 A 
ATOM     17  C   UNL     1      -2.118   5.253  -1.159  0.00  0.00    +0.010 A 
ATOM     18  C   UNL     1      -3.480   5.037  -1.192  0.00  0.00    +0.004 A 
ENDBRANCH   1  16
BRANCH   8  19
ATOM     19  C   UNL     1       3.135   6.831  -0.250  0.00  0.00    +0.058 C 
ATOM     20  C   UNL     1       4.055   6.616  -1.454  0.00  0.00    +0.036 C 
ATOM     21  C   UNL     1       2.432   8.184  -0.381  0.00  0.00    +0.036 C 
ATOM     22  C   UNL     1       3.964   6.809   1.035  0.00  0.00    +0.036 C 
ENDBRANCH   8  19
BRANCH  10  23
ATOM     23  S   UNL     1      -0.056   0.102   0.615  0.00  0.00    +0.073 S 
ATOM     24  O   UNL     1      -1.404  -0.337   0.521  0.00  0.00    -0.150 OA
ATOM     25  O   UNL     1       1.016  -0.589  -0.013  0.00  0.00    -0.150 OA
BRANCH  23  26
ATOM     26  C   UNL     1       0.331   0.177   2.333  0.00  0.00    +0.109 A 
ATOM     27  C   UNL     1       1.645   0.079   2.750  0.00  0.00    +0.029 A 
ATOM     28  C   UNL     1       1.949   0.142   4.097  0.00  0.00    +0.005 A 
ATOM     29  C   UNL     1       0.938   0.293   5.027  0.00  0.00    -0.050 A 
ATOM     30  C   UNL     1      -0.377   0.386   4.610  0.00  0.00    +0.005 A 
ATOM     31  C   UNL     1      -0.680   0.327   3.263  0.00  0.00    +0.029 A 
ATOM     32  C   UNL     1       1.269   0.357   6.496  0.00  0.00    +0.044 C 
ENDBRANCH  23  26
ENDBRANCH  10  23
TORSDOF 4
