REMARK  Name = ZINC41077862
REMARK  9 active torsions:
REMARK  status: ('A' for Active; 'I' for Inactive)
REMARK    1  A    between atoms: C_1  and  C_2
REMARK    2  A    between atoms: C_5  and  O_9
REMARK    3  A    between atoms: C_6  and  C_8
REMARK    4  A    between atoms: O_9  and  C_10
REMARK    5  A    between atoms: C_10  and  C_11
REMARK    6  A    between atoms: C_11  and  N_12
REMARK    7  A    between atoms: C_14  and  C_21
REMARK    8  A    between atoms: C_31  and  S_33
REMARK    9  A    between atoms: S_33  and  C_36
REMARK                            x       y       z     vdW  Elec       q    Type
REMARK                         _______ _______ _______ _____ _____    ______ ____
ROOT
ATOM      1  N   UNL     1      -0.360  -6.345  -2.607  0.00  0.00    -0.343 N 
ATOM      2  C   UNL     1      -1.351  -6.981  -3.262  0.00  0.00    +0.095 A 
ATOM      3  C   UNL     1      -0.818  -7.722  -4.299  0.00  0.00    +0.001 A 
ATOM      4  C   UNL     1       0.641  -7.502  -4.254  0.00  0.00    +0.007 A 
ATOM      5  C   UNL     1       0.864  -6.628  -3.179  0.00  0.00    +0.050 A 
ATOM      6  C   UNL     1       2.163  -6.226  -2.886  0.00  0.00    +0.026 A 
ATOM      7  C   UNL     1       3.214  -6.684  -3.651  0.00  0.00    +0.002 A 
ATOM      8  C   UNL     1       2.991  -7.544  -4.715  0.00  0.00    +0.001 A 
ATOM      9  C   UNL     1       1.711  -7.960  -5.016  0.00  0.00    +0.010 A 
ENDROOT
BRANCH   3  10
ATOM     10  C   UNL     1      -1.527  -8.529  -5.218  0.00  0.00    +0.026 C 
ATOM     11  C   UNL     1      -2.655  -9.217  -4.808  0.00  0.00    +0.081 C 
ATOM     12  C   UNL     1      -3.529  -9.935  -5.775  0.00  0.00    +0.153 C 
ATOM     13  N   UNL     1      -3.078 -10.513  -6.858  0.00  0.00    -0.283 NA
ATOM     14  N   UNL     1      -4.891  -9.932  -5.408  0.00  0.00    -0.150 N 
ATOM     15  C   UNL     1      -5.190  -9.751  -4.074  0.00  0.00    +0.182 C 
ATOM     16  N   UNL     1      -4.358  -9.483  -3.100  0.00  0.00    -0.152 NA
ATOM     17  C   UNL     1      -3.053  -9.282  -3.383  0.00  0.00    +0.273 C 
ATOM     18  O   UNL     1      -2.226  -9.155  -2.493  0.00  0.00    -0.268 OA
ATOM     19  S   UNL     1      -6.952  -9.952  -4.058  0.00  0.00    -0.015 S 
ATOM     20  C   UNL     1      -7.180 -10.160  -5.818  0.00  0.00    +0.235 C 
ATOM     21  N   UNL     1      -5.957 -10.107  -6.264  0.00  0.00    -0.145 NA
ATOM     22  H   UNL     1      -3.692 -10.969  -7.456  0.00  0.00    +0.188 HD
BRANCH  20  23
ATOM     23  S   UNL     1      -8.677 -10.381  -6.721  0.00  0.00    +0.019 S 
ATOM     24  O   UNL     1      -9.656  -9.667  -5.979  0.00  0.00    -0.168 OA
ATOM     25  O   UNL     1      -8.357 -10.000  -8.052  0.00  0.00    -0.168 OA
ATOM     26  C   UNL     1      -9.010 -12.162  -6.643  0.00  0.00    +0.202 C 
ENDBRANCH  20  23
ENDBRANCH   3  10
BRANCH   1  27
ATOM     27  C   UNL     1      -0.556  -5.467  -1.450  0.00  0.00    +0.163 C 
BRANCH  27  28
ATOM     28  C   UNL     1      -0.650  -4.015  -1.922  0.00  0.00    +0.250 C 
BRANCH  28  29
ATOM     29  O   UNL     1      -0.842  -3.159  -0.794  0.00  0.00    -0.490 OA
BRANCH  29  34
ATOM     30  C   UNL     1      -1.277   2.362  -1.817  0.00  0.00    +0.044 C 
ATOM     31  C   UNL     1      -1.160   0.885  -1.543  0.00  0.00    -0.050 A 
ATOM     32  C   UNL     1      -0.974   0.002  -2.591  0.00  0.00    +0.007 A 
ATOM     33  C   UNL     1      -0.867  -1.353  -2.342  0.00  0.00    +0.046 A 
ATOM     34  C   UNL     1      -0.946  -1.827  -1.041  0.00  0.00    +0.123 A 
ATOM     35  C   UNL     1      -1.133  -0.938   0.008  0.00  0.00    -0.009 A 
ATOM     36  C   UNL     1      -1.234   0.416  -0.245  0.00  0.00    +0.010 A 
ATOM     37  C   UNL     1      -1.220  -1.450   1.423  0.00  0.00    +0.047 C 
ENDBRANCH  29  34
ENDBRANCH  28  29
ENDBRANCH  27  28
ENDBRANCH   1  27
TORSDOF 6
