REMARK  Name = ZINC62351458
REMARK  4 active torsions:
REMARK  status: ('A' for Active; 'I' for Inactive)
REMARK    1  A    between atoms: C_4  and  C_8
REMARK    2  A    between atoms: C_8  and  C_9
REMARK    3  A    between atoms: C_11  and  C_14
REMARK    4  A    between atoms: C_17  and  N_20
REMARK                            x       y       z     vdW  Elec       q    Type
REMARK                         _______ _______ _______ _____ _____    ______ ____
ROOT
ATOM      1  C   UNL     1       4.165  -0.963   1.377  0.00  0.00    +0.177 A 
ATOM      2  N   UNL     1       4.924  -0.141   2.106  0.00  0.00    -0.191 NA
ATOM      3  C   UNL     1       5.134  -0.660   3.296  0.00  0.00    +0.258 A 
ATOM      4  O   UNL     1       4.501  -1.845   3.349  0.00  0.00    -0.333 OA
ATOM      5  N   UNL     1       3.873  -2.015   2.087  0.00  0.00    -0.061 NA
ENDROOT
BRANCH   3   6
ATOM      6  C   UNL     1       5.927  -0.050   4.381  0.00  0.00    +0.040 A 
ATOM      7  C   UNL     1       6.530   1.196   4.192  0.00  0.00    +0.015 A 
ATOM      8  C   UNL     1       7.269   1.762   5.207  0.00  0.00    +0.023 A 
ATOM      9  C   UNL     1       7.415   1.096   6.419  0.00  0.00    +0.025 A 
ATOM     10  C   UNL     1       6.815  -0.145   6.611  0.00  0.00    +0.023 A 
ATOM     11  C   UNL     1       6.070  -0.714   5.602  0.00  0.00    +0.015 A 
BRANCH   9  12
ATOM     12  N   UNL     1       8.162   1.671   7.443  0.00  0.00    -0.358 N 
ATOM     13  H   UNL     1       8.581   2.536   7.311  0.00  0.00    +0.142 HD
ATOM     14  H   UNL     1       8.264   1.207   8.289  0.00  0.00    +0.142 HD
ENDBRANCH   9  12
ENDBRANCH   3   6
BRANCH   1  15
ATOM     15  C   UNL     1       3.713  -0.710  -0.038  0.00  0.00    +0.119 C 
BRANCH  15  19
ATOM     16  C   UNL     1      -0.017   1.378   0.010  0.00  0.00    +0.004 A 
ATOM     17  C   UNL     1       1.170   2.086   0.002  0.00  0.00    +0.039 A 
ATOM     18  C   UNL     1       2.379   1.411  -0.013  0.00  0.00    +0.128 A 
ATOM     19  C   UNL     1       2.398   0.026  -0.021  0.00  0.00    +0.013 A 
ATOM     20  C   UNL     1       1.209  -0.680  -0.013  0.00  0.00    +0.047 A 
ATOM     21  C   UNL     1       0.002  -0.004   0.002  0.00  0.00    +0.020 A 
ATOM     22 CL   UNL     1       1.232  -2.416  -0.022  0.00  0.00    -0.083 Cl
ATOM     23  F   UNL     1       3.539   2.103  -0.021  0.00  0.00    -0.205 F 
ENDBRANCH  15  19
ENDBRANCH   1  15
TORSDOF 4
