REMARK  Name = ZINC26067553
REMARK  9 active torsions:
REMARK  status: ('A' for Active; 'I' for Inactive)
REMARK    1  A    between atoms: C_1  and  C_2
REMARK    2  A    between atoms: C_2  and  C_3
REMARK    3  A    between atoms: C_2  and  N_4
REMARK    4  A    between atoms: N_4  and  C_5
REMARK    5  A    between atoms: N_4  and  S_6
REMARK    6  A    between atoms: S_6  and  C_9
REMARK    7  A    between atoms: C_12  and  C_15
REMARK    8  A    between atoms: N_17  and  N_18
REMARK    9  A    between atoms: C_19  and  C_21
REMARK                            x       y       z     vdW  Elec       q    Type
REMARK                         _______ _______ _______ _____ _____    ______ ____
ROOT
ATOM      1  C   UNL     1      -2.987   3.106   5.774  0.00  0.00    +0.260 C 
ATOM      2  O   UNL     1      -2.627   4.109   6.358  0.00  0.00    -0.269 OA
ATOM      3  N   UNL     1      -3.728   2.181   6.416  0.00  0.00    -0.230 N 
ATOM      4  H   UNL     1      -4.054   1.274   5.887  0.00  0.00    +0.173 HD
ENDROOT
BRANCH   1   8
ATOM      5  C   UNL     1      -1.910   2.514   1.708  0.00  0.00    +0.106 A 
ATOM      6  C   UNL     1      -2.675   1.566   2.363  0.00  0.00    +0.029 A 
ATOM      7  C   UNL     1      -3.024   1.749   3.685  0.00  0.00    +0.015 A 
ATOM      8  C   UNL     1      -2.612   2.900   4.359  0.00  0.00    +0.038 A 
ATOM      9  C   UNL     1      -1.845   3.856   3.691  0.00  0.00    +0.015 A 
ATOM     10  C   UNL     1      -1.498   3.658   2.370  0.00  0.00    +0.029 A 
BRANCH   5  11
ATOM     11  S   UNL     1      -1.463   2.269   0.021  0.00  0.00    +0.061 S 
ATOM     12  O   UNL     1      -1.212   3.557  -0.524  0.00  0.00    -0.153 OA
ATOM     13  O   UNL     1      -2.428   1.384  -0.530  0.00  0.00    -0.153 OA
BRANCH  11  14
ATOM     14  N   UNL     1      -0.018   1.461   0.010  0.00  0.00    -0.177 NA
ATOM     15  C   UNL     1       0.002  -0.004   0.002  0.00  0.00    +0.132 C 
BRANCH  14  17
ATOM     16  C   UNL     1       2.060   1.845   1.242  0.00  0.00    +0.025 C 
ATOM     17  C   UNL     1       1.241   2.211   0.002  0.00  0.00    +0.073 C 
ATOM     18  C   UNL     1       2.036   1.859  -1.257  0.00  0.00    +0.025 C 
ENDBRANCH  14  17
ENDBRANCH  11  14
ENDBRANCH   5  11
ENDBRANCH   1   8
BRANCH   3  19
ATOM     19  N   UNL     1      -4.083   2.376   7.757  0.00  0.00    -0.230 N 
ATOM     20  C   UNL     1      -4.824   1.451   8.399  0.00  0.00    +0.260 C 
ATOM     21  O   UNL     1      -5.185   0.448   7.815  0.00  0.00    -0.269 OA
ATOM     22  H   UNL     1      -3.758   3.284   8.286  0.00  0.00    +0.173 HD
BRANCH  20  23
ATOM     23  C   UNL     1      -5.199   1.657   9.814  0.00  0.00    +0.038 A 
ATOM     24  C   UNL     1      -4.782   2.805  10.490  0.00  0.00    +0.014 A 
ATOM     25  C   UNL     1      -5.139   2.994  11.808  0.00  0.00    +0.021 A 
ATOM     26  C   UNL     1      -5.901   2.042  12.465  0.00  0.00    +0.041 A 
ATOM     27  C   UNL     1      -6.313   0.898  11.802  0.00  0.00    +0.021 A 
ATOM     28  C   UNL     1      -5.967   0.701  10.482  0.00  0.00    +0.014 A 
ATOM     29 CL   UNL     1      -6.341   2.284  14.127  0.00  0.00    -0.084 Cl
ENDBRANCH  20  23
ENDBRANCH   3  19
TORSDOF 6
