REMARK  Name = ZINC64790427
REMARK  5 active torsions:
REMARK  status: ('A' for Active; 'I' for Inactive)
REMARK    1  A    between atoms: C_1  and  C_2
REMARK    2  A    between atoms: C_2  and  C_3
REMARK    3  A    between atoms: C_11  and  C_23
REMARK    4  A    between atoms: C_14  and  C_16
REMARK    5  A    between atoms: C_26  and  C_29
REMARK                            x       y       z     vdW  Elec       q    Type
REMARK                         _______ _______ _______ _____ _____    ______ ____
ROOT
ATOM      1  C   UNL     1      -1.412  -0.526   0.013  0.00  0.00    +0.219 C 
ATOM      2  O   UNL     1      -2.344   0.250   0.026  0.00  0.00    -0.275 OA
ATOM      3  N   UNL     1      -1.640  -1.854   0.008  0.00  0.00    -0.253 N 
ATOM      4  C   UNL     1      -2.952  -2.338   0.018  0.00  0.00    +0.242 A 
ATOM      5  N   UNL     1      -4.055  -1.582   0.026  0.00  0.00    -0.176 NA
ATOM      6  C   UNL     1      -5.116  -2.351   0.036  0.00  0.00    +0.251 A 
ATOM      7  N   UNL     1      -4.685  -3.650   0.026  0.00  0.00    -0.220 N 
ATOM      8  N   UNL     1      -3.295  -3.610   0.014  0.00  0.00    -0.131 NA
ATOM      9  C   UNL     1      -5.606  -4.787   0.016  0.00  0.00    +0.147 C 
ATOM     10  C   UNL     1      -6.893  -4.360   0.731  0.00  0.00    +0.087 C 
ATOM     11  C   UNL     1      -7.306  -2.974   0.320  0.00  0.00    +0.055 C 
ATOM     12  N   UNL     1      -6.440  -2.039   0.033  0.00  0.00    -0.215 NA
ATOM     13  H   UNL     1      -0.894  -2.474  -0.003  0.00  0.00    +0.158 HD
ENDROOT
BRANCH  11  14
ATOM     14  C   UNL     1      -8.740  -2.659   0.236  0.00  0.00    -0.003 A 
ATOM     15  C   UNL     1      -9.693  -3.636   0.542  0.00  0.00    +0.011 A 
ATOM     16  C   UNL     1     -11.036  -3.334   0.462  0.00  0.00    +0.020 A 
ATOM     17  C   UNL     1     -11.441  -2.065   0.080  0.00  0.00    +0.041 A 
ATOM     18  C   UNL     1     -10.503  -1.093  -0.224  0.00  0.00    +0.020 A 
ATOM     19  C   UNL     1      -9.157  -1.379  -0.143  0.00  0.00    +0.011 A 
ATOM     20 CL   UNL     1     -13.134  -1.694  -0.019  0.00  0.00    -0.084 Cl
ENDBRANCH  11  14
BRANCH   9  21
ATOM     21  C   UNL     1      -4.983  -5.953   0.739  0.00  0.00    -0.023 A 
ATOM     22  C   UNL     1      -4.630  -5.832   2.070  0.00  0.00    +0.006 A 
ATOM     23  C   UNL     1      -4.059  -6.902   2.733  0.00  0.00    +0.004 A 
ATOM     24  C   UNL     1      -3.841  -8.093   2.066  0.00  0.00    -0.050 A 
ATOM     25  C   UNL     1      -4.194  -8.213   0.735  0.00  0.00    +0.004 A 
ATOM     26  C   UNL     1      -4.770  -7.145   0.072  0.00  0.00    +0.006 A 
ATOM     27  C   UNL     1      -3.217  -9.259   2.788  0.00  0.00    +0.044 C 
ENDBRANCH   9  21
BRANCH   1  29
ATOM     28  C   UNL     1      -0.019   1.526   0.010  0.00  0.00    +0.013 C 
ATOM     29  C   UNL     1       0.002  -0.004   0.002  0.00  0.00    +0.093 C 
ENDBRANCH   1  29
TORSDOF 3
