REMARK  Name = ZINC22011112
REMARK  9 active torsions:
REMARK  status: ('A' for Active; 'I' for Inactive)
REMARK    1  A    between atoms: C_1  and  O_2
REMARK    2  A    between atoms: O_2  and  C_3
REMARK    3  A    between atoms: C_6  and  C_11
REMARK    4  A    between atoms: C_8  and  O_9
REMARK    5  A    between atoms: O_9  and  C_10
REMARK    6  A    between atoms: C_11  and  C_12
REMARK    7  A    between atoms: C_12  and  O_13
REMARK    8  A    between atoms: O_13  and  C_14
REMARK    9  A    between atoms: C_20  and  N_22
REMARK                            x       y       z     vdW  Elec       q    Type
REMARK                         _______ _______ _______ _____ _____    ______ ____
ROOT
ATOM      1  C   UNL     1      -3.189  -3.450  -1.085  0.00  0.00    +0.105 C 
ATOM      2  C   UNL     1      -4.384  -3.817  -1.968  0.00  0.00    +0.030 C 
ATOM      3  C   UNL     1      -5.447  -2.721  -1.867  0.00  0.00    +0.002 C 
ATOM      4  C   UNL     1      -4.855  -1.391  -2.338  0.00  0.00    -0.001 C 
ATOM      5  C   UNL     1      -3.660  -1.024  -1.455  0.00  0.00    -0.013 C 
ATOM      6  C   UNL     1      -2.597  -2.120  -1.556  0.00  0.00    -0.039 C 
ENDROOT
BRANCH   6   7
ATOM      7  N   UNL     1      -1.450  -1.768  -0.708  0.00  0.00    +0.387 N 
ATOM      8  C   UNL     1      -0.826  -0.496  -1.157  0.00  0.00    -0.073 C 
ATOM      9  C   UNL     1       0.607  -0.540  -0.582  0.00  0.00    +0.044 C 
ATOM     10  C   UNL     1       0.905  -2.034  -0.377  0.00  0.00    +0.154 C 
ATOM     11  C   UNL     1      -0.363  -2.775  -0.838  0.00  0.00    -0.013 C 
ATOM     12  O   UNL     1       2.030  -2.433  -1.160  0.00  0.00    -0.348 OA
ATOM     13  C   UNL     1       3.017  -2.957  -0.246  0.00  0.00    +0.191 C 
ATOM     14  C   UNL     1       2.609  -2.325   1.109  0.00  0.00    +0.191 C 
ATOM     15  O   UNL     1       1.164  -2.305   1.005  0.00  0.00    -0.348 OA
ATOM     16  H   UNL     1      -1.853  -1.706   0.313  0.00  0.00    -0.081 HD
ENDBRANCH   6   7
BRANCH   1  17
ATOM     17  O   UNL     1      -3.619  -3.326   0.272  0.00  0.00    -0.378 OA
BRANCH  17  18
ATOM     18  C   UNL     1      -3.548  -4.544   1.017  0.00  0.00    +0.165 C 
BRANCH  18  19
ATOM     19  C   UNL     1      -4.030  -4.295   2.448  0.00  0.00    +0.063 C 
BRANCH  19  23
ATOM     20  C   UNL     1      -3.812  -7.935   4.681  0.00  0.00    +0.161 A 
ATOM     21  C   UNL     1      -2.727  -7.074   4.647  0.00  0.00    +0.049 A 
ATOM     22  C   UNL     1      -2.801  -5.898   3.924  0.00  0.00    +0.007 A 
ATOM     23  C   UNL     1      -3.955  -5.578   3.234  0.00  0.00    -0.042 A 
ATOM     24  C   UNL     1      -5.043  -6.431   3.267  0.00  0.00    +0.053 A 
ATOM     25  C   UNL     1      -4.974  -7.614   3.986  0.00  0.00    +0.162 A 
BRANCH  20  27
ATOM     26  C   UNL     1      -2.518  -9.357   6.082  0.00  0.00    +0.277 C 
ATOM     27  O   UNL     1      -3.742  -9.092   5.392  0.00  0.00    -0.491 OA
ENDBRANCH  20  27
BRANCH  25  28
ATOM     28  O   UNL     1      -6.041  -8.456   4.016  0.00  0.00    -0.491 OA
ATOM     29  C   UNL     1      -7.200  -8.061   3.279  0.00  0.00    +0.277 C 
ENDBRANCH  25  28
ENDBRANCH  19  23
ENDBRANCH  18  19
ENDBRANCH  17  18
ENDBRANCH   1  17
TORSDOF 7
