REMARK  Name = ZINC08555067
REMARK  6 active torsions:
REMARK  status: ('A' for Active; 'I' for Inactive)
REMARK    1  A    between atoms: C_1  and  C_2
REMARK    2  A    between atoms: N_4  and  C_5
REMARK    3  A    between atoms: C_5  and  C_16
REMARK    4  A    between atoms: C_6  and  C_7
REMARK    5  A    between atoms: C_11  and  N_13
REMARK    6  A    between atoms: N_18  and  C_19
REMARK                            x       y       z     vdW  Elec       q    Type
REMARK                         _______ _______ _______ _____ _____    ______ ____
ROOT
ATOM      1  C   UNL     1      -0.937  -1.725  -0.415  0.00  0.00    +0.097 C 
ATOM      2  C   UNL     1      -2.036  -2.125   0.266  0.00  0.00    +0.036 C 
ENDROOT
BRANCH   2   3
ATOM      3  C   UNL     1      -1.933  -3.205   1.260  0.00  0.00    -0.021 A 
ATOM      4  C   UNL     1      -0.758  -3.367   2.002  0.00  0.00    +0.008 A 
ATOM      5  C   UNL     1      -0.670  -4.381   2.932  0.00  0.00    +0.003 A 
ATOM      6  C   UNL     1      -1.739  -5.238   3.131  0.00  0.00    +0.033 A 
ATOM      7  C   UNL     1      -2.904  -5.084   2.400  0.00  0.00    +0.127 A 
ATOM      8  C   UNL     1      -3.010  -4.071   1.471  0.00  0.00    +0.040 A 
BRANCH   7   9
ATOM      9  N   UNL     1      -4.040  -6.006   2.621  0.00  0.00    +0.056 N 
ATOM     10  O   UNL     1      -3.950  -6.893   3.438  0.00  0.00    -0.126 OA
ATOM     11  O   UNL     1      -5.059  -5.874   1.983  0.00  0.00    -0.126 OA
ENDBRANCH   7   9
ENDBRANCH   2   3
BRANCH   1  15
ATOM     12  C   UNL     1      -0.049   0.875  -2.988  0.00  0.00    +0.109 C 
ATOM     13  C   UNL     1       0.051  -0.281  -2.025  0.00  0.00    +0.214 C 
ATOM     14  O   UNL     1       1.078  -0.922  -1.953  0.00  0.00    -0.276 OA
ATOM     15  N   UNL     1      -1.000  -0.601  -1.245  0.00  0.00    -0.282 N 
ATOM     16  H   UNL     1      -1.799  -0.052  -1.259  0.00  0.00    +0.155 HD
ENDBRANCH   1  15
BRANCH   1  17
ATOM     17  C   UNL     1       0.322  -2.471  -0.281  0.00  0.00    +0.262 C 
ATOM     18  O   UNL     1       1.244  -2.000   0.358  0.00  0.00    -0.268 OA
ATOM     19  N   UNL     1       0.456  -3.678  -0.867  0.00  0.00    -0.280 N 
ATOM     20  H   UNL     1      -0.248  -4.019  -1.440  0.00  0.00    +0.155 HD
BRANCH  19  21
ATOM     21  C   UNL     1       1.610  -4.437  -0.648  0.00  0.00    +0.034 A 
ATOM     22  C   UNL     1       2.250  -4.390   0.583  0.00  0.00    +0.024 A 
ATOM     23  C   UNL     1       3.389  -5.141   0.796  0.00  0.00    +0.017 A 
ATOM     24  C   UNL     1       3.893  -5.940  -0.216  0.00  0.00    +0.018 A 
ATOM     25  C   UNL     1       3.257  -5.987  -1.444  0.00  0.00    +0.017 A 
ATOM     26  C   UNL     1       2.114  -5.243  -1.661  0.00  0.00    +0.024 A 
ATOM     27 BR   UNL     1       5.453  -6.966   0.080  0.00  0.00    -0.050 Br
ENDBRANCH  19  21
ENDBRANCH   1  17
TORSDOF 5
