REMARK  Name = ZINC31643946
REMARK  6 active torsions:
REMARK  status: ('A' for Active; 'I' for Inactive)
REMARK    1  A    between atoms: C_1  and  N_2
REMARK    2  A    between atoms: C_3  and  C_13
REMARK    3  A    between atoms: C_13  and  S_14
REMARK    4  A    between atoms: S_14  and  C_15
REMARK    5  A    between atoms: C_18  and  C_21
REMARK    6  A    between atoms: N_19  and  N_20
REMARK                            x       y       z     vdW  Elec       q    Type
REMARK                         _______ _______ _______ _____ _____    ______ ____
ROOT
ATOM      1  C   UNL     1      -5.273  -0.002  -0.055  0.00  0.00    +0.209 A 
ATOM      2  N   UNL     1      -5.268   1.301   0.116  0.00  0.00    -0.121 NA
ATOM      3  N   UNL     1      -6.474   1.743   0.176  0.00  0.00    -0.127 NA
ATOM      4  C   UNL     1      -7.322   0.749   0.048  0.00  0.00    +0.183 A 
ATOM      5  N   UNL     1      -6.579  -0.398  -0.110  0.00  0.00    -0.224 N 
ENDROOT
BRANCH   4   6
ATOM      6  C   UNL     1      -8.797   0.846   0.064  0.00  0.00    +0.035 A 
ATOM      7  C   UNL     1      -9.548  -0.030   0.850  0.00  0.00    +0.013 A 
ATOM      8  C   UNL     1     -10.924   0.066   0.861  0.00  0.00    +0.001 A 
ATOM      9  C   UNL     1     -11.561   1.026   0.095  0.00  0.00    +0.001 A 
ATOM     10  C   UNL     1     -10.823   1.897  -0.687  0.00  0.00    +0.016 A 
ATOM     11  C   UNL     1      -9.445   1.816  -0.703  0.00  0.00    +0.029 A 
ATOM     12 BR   UNL     1      -8.437   3.012  -1.766  0.00  0.00    -0.050 Br
ENDBRANCH   4   6
BRANCH   5  13
ATOM     13  N   UNL     1      -7.049  -1.669  -0.283  0.00  0.00    -0.295 N 
ATOM     14  H   UNL     1      -7.255  -2.102   0.605  0.00  0.00    +0.163 HD
ATOM     15  H   UNL     1      -7.859  -1.676  -0.885  0.00  0.00    +0.163 HD
ENDBRANCH   5  13
BRANCH   1  16
ATOM     16  S   UNL     1      -3.858  -1.043  -0.194  0.00  0.00    -0.077 S 
BRANCH  16  17
ATOM     17  C   UNL     1      -2.457   0.098  -0.038  0.00  0.00    +0.151 C 
BRANCH  17  20
ATOM     18  C   UNL     1      -0.019   1.462   0.149  0.00  0.00    +0.153 C 
ATOM     19  N   UNL     1       0.003   0.011  -0.047  0.00  0.00    -0.299 N 
ATOM     20  C   UNL     1      -1.167  -0.674  -0.141  0.00  0.00    +0.123 A 
ATOM     21  N   UNL     1      -1.230  -1.959  -0.315  0.00  0.00    -0.233 NA
ATOM     22  C   UNL     1      -0.111  -2.719  -0.416  0.00  0.00    +0.078 A 
ATOM     23  C   UNL     1      -0.179  -4.101  -0.604  0.00  0.00    +0.028 A 
ATOM     24  C   UNL     1       0.983  -4.834  -0.702  0.00  0.00    +0.002 A 
ATOM     25  C   UNL     1       2.224  -4.215  -0.617  0.00  0.00    +0.001 A 
ATOM     26  C   UNL     1       2.316  -2.853  -0.432  0.00  0.00    +0.015 A 
ATOM     27  C   UNL     1       1.152  -2.093  -0.331  0.00  0.00    +0.065 A 
ATOM     28  C   UNL     1       1.189  -0.636  -0.139  0.00  0.00    +0.262 A 
ATOM     29  O   UNL     1       2.244  -0.035  -0.061  0.00  0.00    -0.267 OA
ENDBRANCH  17  20
ENDBRANCH  16  17
ENDBRANCH   1  16
TORSDOF 5
