REMARK  Name = ZINC31773810
REMARK  8 active torsions:
REMARK  status: ('A' for Active; 'I' for Inactive)
REMARK    1  A    between atoms: C_1  and  C_2
REMARK    2  A    between atoms: C_2  and  C_3
REMARK    3  A    between atoms: C_3  and  C_4
REMARK    4  A    between atoms: C_4  and  C_5
REMARK    5  A    between atoms: C_5  and  N_6
REMARK    6  A    between atoms: N_10  and  C_20
REMARK    7  A    between atoms: C_23  and  O_27
REMARK    8  A    between atoms: O_27  and  C_28
REMARK                            x       y       z     vdW  Elec       q    Type
REMARK                         _______ _______ _______ _____ _____    ______ ____
ROOT
ATOM      1  N   UNL     1      -0.104   1.127  -4.946  0.00  0.00    +0.390 N 
ATOM      2  C   UNL     1       1.248   1.692  -5.042  0.00  0.00    +0.020 C 
ATOM      3  C   UNL     1       1.879   1.277  -6.341  0.00  0.00    +0.203 C 
ATOM      4  O   UNL     1       3.086   1.335  -6.449  0.00  0.00    -0.277 OA
ATOM      5  N   UNL     1       1.160   0.847  -7.383  0.00  0.00    -0.270 N 
ATOM      6  C   UNL     1      -0.292   0.715  -7.359  0.00  0.00    +0.090 C 
ATOM      7  C   UNL     1      -0.885   1.441  -6.147  0.00  0.00    -0.024 C 
ATOM      8  C   UNL     1      -0.819   2.971  -6.404  0.00  0.00    +0.152 C 
ATOM      9  S   UNL     1      -1.276   3.034  -8.189  0.00  0.00    -0.031 S 
ATOM     10  O   UNL     1      -2.679   3.226  -8.300  0.00  0.00    -0.174 OA
ATOM     11  O   UNL     1      -0.393   3.922  -8.861  0.00  0.00    -0.174 OA
ATOM     12  C   UNL     1      -0.868   1.306  -8.669  0.00  0.00    +0.187 C 
ATOM     13  H   UNL     1      -0.013   0.033  -4.876  0.00  0.00    -0.081 HD
ENDROOT
BRANCH   5  14
ATOM     14  C   UNL     1       1.838   0.503  -8.560  0.00  0.00    +0.038 A 
ATOM     15  C   UNL     1       2.476   1.486  -9.305  0.00  0.00    +0.027 A 
ATOM     16  C   UNL     1       3.145   1.147 -10.465  0.00  0.00    +0.049 A 
ATOM     17  C   UNL     1       3.180  -0.174 -10.886  0.00  0.00    +0.138 A 
ATOM     18  C   UNL     1       2.542  -1.157 -10.142  0.00  0.00    +0.084 A 
ATOM     19  C   UNL     1       1.877  -0.820  -8.978  0.00  0.00    +0.047 A 
ATOM     20 CL   UNL     1       2.586  -2.810 -10.669  0.00  0.00    -0.080 Cl
BRANCH  17  21
ATOM     21  O   UNL     1       3.838  -0.506 -12.028  0.00  0.00    -0.494 OA
ATOM     22  C   UNL     1       4.471   0.556 -12.745  0.00  0.00    +0.277 C 
ENDBRANCH  17  21
ENDBRANCH   5  14
BRANCH   1  23
ATOM     23  C   UNL     1      -0.787   1.601  -3.734  0.00  0.00    -0.078 C 
BRANCH  23  24
ATOM     24  C   UNL     1      -0.078   1.044  -2.498  0.00  0.00    -0.019 C 
BRANCH  24  25
ATOM     25  C   UNL     1      -0.790   1.536  -1.237  0.00  0.00    -0.002 C 
BRANCH  25  27
ATOM     26  C   UNL     1      -0.793   1.473   1.261  0.00  0.00    +0.004 C 
ATOM     27  C   UNL     1      -0.081   0.980  -0.001  0.00  0.00    -0.003 C 
ENDBRANCH  25  27
ENDBRANCH  24  25
ENDBRANCH  23  24
ENDBRANCH   1  23
TORSDOF 6
