REMARK  Name = ZINC65032479
REMARK  4 active torsions:
REMARK  status: ('A' for Active; 'I' for Inactive)
REMARK    1  A    between atoms: C_1  and  C_2
REMARK    2  A    between atoms: C_6  and  C_8
REMARK    3  A    between atoms: N_13  and  S_16
REMARK    4  A    between atoms: S_16  and  C_19
REMARK                            x       y       z     vdW  Elec       q    Type
REMARK                         _______ _______ _______ _____ _____    ______ ____
ROOT
ATOM      1  C   UNL     1       0.052  -2.845   2.458  0.00  0.00    +0.247 C 
ATOM      2  O   UNL     1       0.157  -2.251   3.513  0.00  0.00    -0.270 OA
ATOM      3  N   UNL     1      -0.032  -4.191   2.448  0.00  0.00    -0.295 N 
ATOM      4  C   UNL     1      -0.023  -4.931   1.178  0.00  0.00    +0.125 C 
ATOM      5  C   UNL     1       1.108  -5.966   1.223  0.00  0.00    +0.128 C 
ATOM      6  N   UNL     1       1.006  -6.719   2.481  0.00  0.00    -0.174 NA
ATOM      7  C   UNL     1       0.998  -5.978   3.751  0.00  0.00    +0.128 C 
ATOM      8  C   UNL     1      -0.128  -4.943   3.706  0.00  0.00    +0.125 C 
ENDROOT
BRANCH   1  14
ATOM      9  C   UNL     1       1.773   0.848  -0.423  0.00  0.00    +0.044 C 
ATOM     10  C   UNL     1       0.842  -0.317  -0.205  0.00  0.00    -0.050 A 
ATOM     11  C   UNL     1      -0.049  -0.684  -1.197  0.00  0.00    +0.003 A 
ATOM     12  C   UNL     1      -0.907  -1.752  -1.005  0.00  0.00    +0.001 A 
ATOM     13  C   UNL     1      -0.879  -2.458   0.180  0.00  0.00    +0.013 A 
ATOM     14  C   UNL     1       0.017  -2.093   1.185  0.00  0.00    +0.037 A 
ATOM     15  C   UNL     1       0.884  -1.018   0.982  0.00  0.00    +0.016 A 
ENDBRANCH   1  14
BRANCH   6  16
ATOM     16  S   UNL     1       0.903  -8.372   2.469  0.00  0.00    +0.061 S 
ATOM     17  O   UNL     1       0.275  -8.748   3.687  0.00  0.00    -0.153 OA
ATOM     18  O   UNL     1       0.383  -8.737   1.198  0.00  0.00    -0.153 OA
BRANCH  16  19
ATOM     19  C   UNL     1       2.549  -8.997   2.538  0.00  0.00    +0.107 A 
ATOM     20  C   UNL     1       3.258  -9.235   1.373  0.00  0.00    +0.030 A 
ATOM     21  C   UNL     1       4.543  -9.723   1.406  0.00  0.00    +0.029 A 
ATOM     22  C   UNL     1       5.178  -9.996   2.629  0.00  0.00    +0.056 A 
ATOM     23  C   UNL     1       4.434  -9.744   3.791  0.00  0.00    +0.042 A 
ATOM     24  C   UNL     1       3.153  -9.251   3.757  0.00  0.00    +0.045 A 
ATOM     25  S   UNL     1       5.552 -10.202   5.094  0.00  0.00    -0.027 S 
ATOM     26  C   UNL     1       6.929 -10.697   4.071  0.00  0.00    +0.289 A 
ATOM     27  O   UNL     1       8.018 -11.119   4.413  0.00  0.00    -0.260 OA
ATOM     28  N   UNL     1       6.458 -10.486   2.827  0.00  0.00    -0.316 N 
ATOM     29  H   UNL     1       7.022 -10.680   2.061  0.00  0.00    +0.169 HD
ENDBRANCH  16  19
ENDBRANCH   6  16
TORSDOF 3
