REMARK  Name = ZINC08882194
REMARK  4 active torsions:
REMARK  status: ('A' for Active; 'I' for Inactive)
REMARK    1  A    between atoms: C_1  and  C_2
REMARK    2  A    between atoms: C_2  and  C_4
REMARK    3  A    between atoms: C_2  and  N_23
REMARK    4  A    between atoms: C_9  and  N_12
REMARK                            x       y       z     vdW  Elec       q    Type
REMARK                         _______ _______ _______ _____ _____    ______ ____
ROOT
ATOM      1  C   UNL     1       0.821  -0.541   1.147  0.00  0.00    +0.236 C 
ATOM      2  O   UNL     1       1.843  -1.156   0.926  0.00  0.00    -0.274 OA
ATOM      3  N   UNL     1       0.420  -0.336   2.417  0.00  0.00    -0.300 N 
ATOM      4  C   UNL     1      -0.869   0.309   2.700  0.00  0.00    +0.110 C 
ATOM      5  C   UNL     1      -1.673  -0.590   3.644  0.00  0.00    +0.044 C 
ATOM      6  C   UNL     1      -0.836  -0.894   4.889  0.00  0.00    +0.095 C 
ATOM      7  C   UNL     1       0.437  -1.639   4.480  0.00  0.00    +0.044 C 
ATOM      8  C   UNL     1       1.262  -0.757   3.546  0.00  0.00    +0.110 C 
ENDROOT
BRANCH   6   9
ATOM      9  N   UNL     1      -1.614  -1.726   5.809  0.00  0.00    -0.289 N 
ATOM     10  C   UNL     1      -1.968  -1.388   7.113  0.00  0.00    +0.070 A 
ATOM     11  C   UNL     1      -1.735  -0.274   7.904  0.00  0.00    +0.028 A 
ATOM     12  C   UNL     1      -2.228  -0.229   9.193  0.00  0.00    +0.002 A 
ATOM     13  C   UNL     1      -2.954  -1.294   9.700  0.00  0.00    +0.002 A 
ATOM     14  C   UNL     1      -3.192  -2.408   8.920  0.00  0.00    +0.028 A 
ATOM     15  C   UNL     1      -2.702  -2.461   7.624  0.00  0.00    +0.067 A 
ATOM     16  N   UNL     1      -2.770  -3.418   6.614  0.00  0.00    -0.306 N 
ATOM     17  H   UNL     1      -3.218  -4.277   6.675  0.00  0.00    +0.170 HD
ATOM     18  C   UNL     1      -2.114  -2.947   5.537  0.00  0.00    +0.328 A 
ATOM     19  O   UNL     1      -1.989  -3.535   4.479  0.00  0.00    -0.247 OA
ENDBRANCH   6   9
BRANCH   1  21
ATOM     20  C   UNL     1       0.136   1.515  -0.057  0.00  0.00    +0.038 C 
ATOM     21  C   UNL     1      -0.000  -0.008   0.002  0.00  0.00    +0.167 C 
BRANCH  21  22
ATOM     22  N   UNL     1       0.477  -0.590  -1.255  0.00  0.00    -0.230 N 
ATOM     23  C   UNL     1       1.738  -0.436  -1.704  0.00  0.00    +0.227 C 
ATOM     24  O   UNL     1       2.677   0.003  -1.075  0.00  0.00    -0.275 OA
ATOM     25  C   UNL     1       1.765  -0.923  -3.162  0.00  0.00    +0.091 C 
ATOM     26  C   UNL     1       1.396   0.310  -3.992  0.00  0.00    +0.040 C 
ATOM     27  C   UNL     1       0.593  -0.014  -5.204  0.00  0.00    -0.030 C 
ATOM     28  C   UNL     1      -0.045  -1.121  -5.394  0.00  0.00    -0.030 C 
ATOM     29  C   UNL     1      -0.018  -2.261  -4.425  0.00  0.00    +0.040 C 
ATOM     30  C   UNL     1       0.606  -1.931  -3.101  0.00  0.00    +0.091 C 
ATOM     31  C   UNL     1      -0.305  -1.335  -2.067  0.00  0.00    +0.227 C 
ATOM     32  O   UNL     1      -1.504  -1.490  -1.980  0.00  0.00    -0.275 OA
ENDBRANCH  21  22
ENDBRANCH   1  21
TORSDOF 3
