REMARK  Name = ZINC21247500
REMARK  7 active torsions:
REMARK  status: ('A' for Active; 'I' for Inactive)
REMARK    1  A    between atoms: C_1  and  C_2
REMARK    2  A    between atoms: C_9  and  C_14
REMARK    3  A    between atoms: C_14  and  S_15
REMARK    4  A    between atoms: S_15  and  C_16
REMARK    5  A    between atoms: C_19  and  C_22
REMARK    6  A    between atoms: N_20  and  N_21
REMARK    7  A    between atoms: C_26  and  C_27
REMARK                            x       y       z     vdW  Elec       q    Type
REMARK                         _______ _______ _______ _____ _____    ______ ____
ROOT
ATOM      1  S   UNL     1      -3.206   1.569   0.282  0.00  0.00    -0.080 S 
ENDROOT
BRANCH   1   2
ATOM      2  C   UNL     1      -2.079   1.769  -1.058  0.00  0.00    +0.209 A 
ATOM      3  N   UNL     1      -2.368   2.214  -2.259  0.00  0.00    -0.121 NA
ATOM      4  N   UNL     1      -1.311   2.233  -2.989  0.00  0.00    -0.127 NA
ATOM      5  C   UNL     1      -0.280   1.806  -2.297  0.00  0.00    +0.185 A 
ATOM      6  N   UNL     1      -0.741   1.490  -1.041  0.00  0.00    -0.224 N 
BRANCH   5   7
ATOM      7  C   UNL     1       1.113   1.686  -2.780  0.00  0.00    +0.061 A 
ATOM      8  C   UNL     1       2.275   1.207  -2.021  0.00  0.00    +0.053 A 
ATOM      9  C   UNL     1       3.320   1.272  -2.863  0.00  0.00    +0.196 A 
ATOM     10  O   UNL     1       2.899   1.740  -4.047  0.00  0.00    -0.467 OA
ATOM     11  C   UNL     1       1.582   1.989  -4.020  0.00  0.00    +0.112 A 
ATOM     12  C   UNL     1       0.761   2.518  -5.168  0.00  0.00    +0.087 C 
ENDBRANCH   5   7
BRANCH   6  13
ATOM     13  N   UNL     1      -0.012   1.005   0.008  0.00  0.00    -0.295 N 
ATOM     14  H   UNL     1       1.067   0.823  -0.110  0.00  0.00    +0.163 HD
ATOM     15  H   UNL     1      -0.503   0.796   0.969  0.00  0.00    +0.163 HD
ENDBRANCH   6  13
ENDBRANCH   1   2
BRANCH   1  16
ATOM     16  C   UNL     1      -4.734   2.133  -0.506  0.00  0.00    +0.113 C 
BRANCH  16  25
ATOM     17  C   UNL     1      -9.084  -2.685   0.973  0.00  0.00    +0.045 C 
ATOM     18  C   UNL     1      -8.240  -1.443   0.843  0.00  0.00    -0.029 A 
ATOM     19  C   UNL     1      -8.496  -0.356   1.651  0.00  0.00    +0.051 A 
ATOM     20  C   UNL     1      -7.726   0.793   1.533  0.00  0.00    +0.140 A 
ATOM     21  C   UNL     1      -6.680   0.832   0.594  0.00  0.00    +0.023 A 
ATOM     22  C   UNL     1      -6.424  -0.282  -0.211  0.00  0.00    +0.032 A 
ATOM     23  C   UNL     1      -7.204  -1.410  -0.082  0.00  0.00    +0.045 A 
ATOM     24 CL   UNL     1      -6.891  -2.796  -1.079  0.00  0.00    -0.083 Cl
ATOM     25  C   UNL     1      -5.869   2.048   0.482  0.00  0.00    -0.020 A 
ATOM     26  C   UNL     1      -6.173   3.097   1.288  0.00  0.00    +0.097 A 
ATOM     27  C   UNL     1      -7.241   2.991   2.205  0.00  0.00    +0.338 A 
ATOM     28  O   UNL     1      -7.503   3.940   2.922  0.00  0.00    -0.245 OA
ATOM     29  O   UNL     1      -7.975   1.873   2.306  0.00  0.00    -0.422 OA
ENDBRANCH  16  25
ENDBRANCH   1  16
TORSDOF 5
