REMARK  Name = ZINC64482002
REMARK  2 active torsions:
REMARK  status: ('A' for Active; 'I' for Inactive)
REMARK    1  A    between atoms: C_1  and  C_2
REMARK    2  A    between atoms: C_4  and  C_14
REMARK                            x       y       z     vdW  Elec       q    Type
REMARK                         _______ _______ _______ _____ _____    ______ ____
ROOT
ATOM      1  C   UNL     1      -0.098   1.418  -0.820  0.00  0.00    +0.067 C 
ATOM      2  C   UNL     1      -0.108  -0.088  -0.755  0.00  0.00    +0.064 C 
ATOM      3  C   UNL     1      -1.111  -0.814  -0.318  0.00  0.00    +0.004 C 
ATOM      4  C   UNL     1      -2.537  -0.494   0.034  0.00  0.00    +0.059 C 
ATOM      5  C   UNL     1      -3.405  -1.266  -0.973  0.00  0.00    +0.108 C 
ATOM      6  C   UNL     1      -2.818  -2.598  -1.311  0.00  0.00    +0.216 C 
ATOM      7  O   UNL     1      -3.578  -3.404  -1.805  0.00  0.00    -0.276 OA
ATOM      8  N   UNL     1      -1.561  -3.009  -1.137  0.00  0.00    -0.289 N 
ATOM      9  C   UNL     1      -0.598  -2.249  -0.352  0.00  0.00    +0.243 C 
ATOM     10  N   UNL     1       0.712  -2.100  -0.985  0.00  0.00    -0.160 NA
ATOM     11  N   UNL     1       0.917  -0.888  -1.147  0.00  0.00    -0.157 NA
ATOM     12  H   UNL     1      -1.279  -3.842  -1.546  0.00  0.00    +0.151 HD
ENDROOT
BRANCH   4  13
ATOM     13  C   UNL     1      -2.783   0.988  -0.094  0.00  0.00    -0.034 A 
ATOM     14  C   UNL     1      -2.971   1.551  -1.341  0.00  0.00    +0.042 A 
ATOM     15  C   UNL     1      -3.197   2.912  -1.460  0.00  0.00    +0.126 A 
ATOM     16  C   UNL     1      -3.233   3.708  -0.328  0.00  0.00    +0.076 A 
ATOM     17  C   UNL     1      -3.045   3.143   0.921  0.00  0.00    +0.126 A 
ATOM     18  C   UNL     1      -2.825   1.780   1.038  0.00  0.00    +0.042 A 
ATOM     19  F   UNL     1      -3.080   3.918   2.027  0.00  0.00    -0.205 F 
ATOM     20  F   UNL     1      -3.380   3.463  -2.680  0.00  0.00    -0.205 F 
ENDBRANCH   4  13
TORSDOF 1
