REMARK  Name = ZINC14532820
REMARK  8 active torsions:
REMARK  status: ('A' for Active; 'I' for Inactive)
REMARK    1  A    between atoms: C_1  and  C_2
REMARK    2  A    between atoms: C_2  and  N_3
REMARK    3  A    between atoms: C_6  and  C_8
REMARK    4  A    between atoms: N_10  and  C_11
REMARK    5  A    between atoms: N_10  and  C_12
REMARK    6  A    between atoms: C_12  and  C_13
REMARK    7  A    between atoms: C_19  and  N_65
REMARK    8  A    between atoms: C_25  and  C_28
REMARK                            x       y       z     vdW  Elec       q    Type
REMARK                         _______ _______ _______ _____ _____    ______ ____
ROOT
ATOM      1  N   UNL     1       1.758   1.062   0.739  0.00  0.00    -0.268 N 
ATOM      2  C   UNL     1       0.491   0.634   0.876  0.00  0.00    +0.043 A 
ATOM      3  C   UNL     1       0.506  -0.714   0.735  0.00  0.00    +0.004 A 
ATOM      4  C   UNL     1       1.847  -1.064   0.505  0.00  0.00    +0.151 A 
ATOM      5  N   UNL     1       2.540   0.061   0.523  0.00  0.00    -0.166 NA
ATOM      6  C   UNL     1      -0.710  -1.595   0.823  0.00  0.00    +0.024 C 
ATOM      7  C   UNL     1      -1.839  -0.793   1.484  0.00  0.00    -0.063 C 
ATOM      8  C   UNL     1      -1.972   0.567   0.793  0.00  0.00    -0.009 C 
ATOM      9  C   UNL     1      -0.757   1.440   1.130  0.00  0.00    +0.054 C 
ENDROOT
BRANCH   7  15
ATOM     10  C   UNL     1      -4.186  -0.851   2.086  0.00  0.00    -0.073 C 
ATOM     11  C   UNL     1      -5.521  -1.472   1.665  0.00  0.00    +0.017 C 
ATOM     12  C   UNL     1      -5.431  -2.971   1.749  0.00  0.00    -0.048 C 
ATOM     13  C   UNL     1      -4.285  -3.611   1.823  0.00  0.00    -0.041 C 
ATOM     14  C   UNL     1      -2.956  -2.912   1.836  0.00  0.00    -0.050 C 
ATOM     15  N   UNL     1      -3.113  -1.534   1.335  0.00  0.00    +0.384 N 
ATOM     16  H   UNL     1      -3.367  -1.565   0.341  0.00  0.00    -0.081 HD
BRANCH  12  17
ATOM     17  C   UNL     1      -6.683  -3.756   1.750  0.00  0.00    -0.022 A 
ATOM     18  C   UNL     1      -7.513  -3.753   0.628  0.00  0.00    +0.008 A 
ATOM     19  C   UNL     1      -8.677  -4.494   0.633  0.00  0.00    +0.001 A 
ATOM     20  C   UNL     1      -9.028  -5.229   1.751  0.00  0.00    +0.000 A 
ATOM     21  C   UNL     1      -8.213  -5.232   2.869  0.00  0.00    +0.001 A 
ATOM     22  C   UNL     1      -7.043  -4.500   2.874  0.00  0.00    +0.008 A 
ENDBRANCH  12  17
ENDBRANCH   7  15
BRANCH   4  23
ATOM     23  C   UNL     1       2.378  -2.425   0.287  0.00  0.00    +0.267 C 
ATOM     24  O   UNL     1       1.643  -3.388   0.388  0.00  0.00    -0.268 OA
ATOM     25  N   UNL     1       3.678  -2.599  -0.023  0.00  0.00    -0.295 N 
ATOM     26  C   UNL     1       4.578  -1.444  -0.084  0.00  0.00    +0.132 C 
BRANCH  25  27
ATOM     27  C   UNL     1       4.192  -3.942  -0.299  0.00  0.00    +0.146 C 
BRANCH  27  28
ATOM     28  C   UNL     1       4.062  -4.237  -1.771  0.00  0.00    +0.008 A 
ATOM     29  C   UNL     1       2.957  -4.840  -2.415  0.00  0.00    +0.046 A 
ATOM     30  C   UNL     1       3.259  -4.909  -3.724  0.00  0.00    +0.195 A 
ATOM     31  O   UNL     1       4.485  -4.393  -3.905  0.00  0.00    -0.471 OA
ATOM     32  C   UNL     1       4.977  -3.984  -2.724  0.00  0.00    +0.200 A 
ENDBRANCH  27  28
ENDBRANCH  25  27
ENDBRANCH   4  23
BRANCH   1  34
ATOM     33  C   UNL     1       2.538   2.800   2.273  0.00  0.00    +0.029 C 
ATOM     34  C   UNL     1       2.186   2.460   0.823  0.00  0.00    +0.140 C 
ENDBRANCH   1  34
TORSDOF 6
