REMARK  Name = ZINC61856582
REMARK  4 active torsions:
REMARK  status: ('A' for Active; 'I' for Inactive)
REMARK    1  A    between atoms: C_3  and  C_14
REMARK    2  A    between atoms: C_6  and  S_7
REMARK    3  A    between atoms: S_7  and  C_8
REMARK    4  A    between atoms: N_15  and  O_16
REMARK                            x       y       z     vdW  Elec       q    Type
REMARK                         _______ _______ _______ _____ _____    ______ ____
ROOT
ATOM      1  C   UNL     1       0.180   1.699  -0.641  0.00  0.00    +0.016 A 
ATOM      2  C   UNL     1       1.458   2.187  -0.479  0.00  0.00    +0.014 A 
ATOM      3  C   UNL     1       2.495   1.322  -0.126  0.00  0.00    +0.036 A 
ATOM      4  C   UNL     1       2.234  -0.038   0.063  0.00  0.00    +0.053 A 
ATOM      5  C   UNL     1       0.953  -0.521  -0.100  0.00  0.00    +0.035 A 
ATOM      6  C   UNL     1      -0.078   0.344  -0.453  0.00  0.00    +0.016 A 
ATOM      7 CL   UNL     1       3.520  -1.117   0.502  0.00  0.00    -0.083 Cl
ENDROOT
BRANCH   3   8
ATOM      8  C   UNL     1       3.867   1.844   0.049  0.00  0.00    +0.164 C 
ATOM      9  N   UNL     1       4.094   2.813   0.888  0.00  0.00    -0.071 NA
ATOM     10  N   UNL     1       4.912   1.302  -0.682  0.00  0.00    -0.340 N 
ATOM     11  H   UNL     1       4.743   0.580  -1.307  0.00  0.00    +0.144 HD
ATOM     12  H   UNL     1       5.812   1.644  -0.567  0.00  0.00    +0.144 HD
BRANCH   9  13
ATOM     13  O   UNL     1       3.050   3.289   1.718  0.00  0.00    -0.408 OA
ATOM     14  H   UNL     1       3.292   4.057   2.253  0.00  0.00    +0.328 HD
ENDBRANCH   9  13
ENDBRANCH   3   8
BRANCH   6  15
ATOM     15  S   UNL     1      -1.714  -0.276  -0.661  0.00  0.00    -0.061 S 
BRANCH  15  16
ATOM     16  C   UNL     1      -1.757  -0.809  -2.340  0.00  0.00    +0.163 A 
ATOM     17  N   UNL     1      -0.804  -0.800  -3.263  0.00  0.00    -0.135 NA
ATOM     18  N   UNL     1      -1.009  -1.226  -4.433  0.00  0.00    -0.149 NA
ATOM     19  C   UNL     1      -2.176  -1.704  -4.812  0.00  0.00    +0.182 A 
ATOM     20  S   UNL     1      -3.097  -1.526  -3.287  0.00  0.00    -0.047 S 
ENDBRANCH  15  16
ENDBRANCH   6  15
TORSDOF 4
