REMARK  Name = ZINC03137449
REMARK  6 active torsions:
REMARK  status: ('A' for Active; 'I' for Inactive)
REMARK    1  A    between atoms: C_6  and  C_8
REMARK    2  A    between atoms: C_6  and  N_12
REMARK    3  A    between atoms: C_6  and  N_45
REMARK    4  A    between atoms: N_15  and  C_16
REMARK    5  A    between atoms: C_16  and  C_18
REMARK    6  A    between atoms: C_16  and  N_47
REMARK                            x       y       z     vdW  Elec       q    Type
REMARK                         _______ _______ _______ _____ _____    ______ ____
ROOT
ATOM      1  N   UNL     1       0.207   2.251  -0.111  0.00  0.00    -0.309 N 
ATOM      2  C   UNL     1       1.492   2.651  -0.053  0.00  0.00    +0.297 C 
ATOM      3  O   UNL     1       1.757   3.833   0.047  0.00  0.00    -0.253 OA
ATOM      4  N   UNL     1       2.485   1.740  -0.105  0.00  0.00    -0.309 N 
ATOM      5  H   UNL     1      -0.004   1.307  -0.191  0.00  0.00    +0.148 HD
ATOM      6  H   UNL     1       2.274   0.797  -0.184  0.00  0.00    +0.148 HD
ENDROOT
BRANCH   1   7
ATOM      7  C   UNL     1      -0.872   3.241  -0.061  0.00  0.00    +0.072 C 
BRANCH   7  13
ATOM      8  C   UNL     1      -0.381   3.484  -2.420  0.00  0.00    -0.047 C 
ATOM      9  C   UNL     1      -1.018   3.603  -3.807  0.00  0.00    +0.141 C 
ATOM     10  O   UNL     1      -1.873   4.750  -3.836  0.00  0.00    -0.383 OA
ATOM     11  C   UNL     1      -2.917   4.715  -2.860  0.00  0.00    +0.141 C 
ATOM     12  C   UNL     1      -2.299   4.606  -1.463  0.00  0.00    -0.047 C 
ATOM     13  N   UNL     1      -1.457   3.393  -1.411  0.00  0.00    +0.398 N 
ATOM     14  H   UNL     1      -2.039   2.573  -1.616  0.00  0.00    -0.079 HD
ENDBRANCH   7  13
BRANCH   7  15
ATOM     15  C   UNL     1      -1.963   2.758   0.897  0.00  0.00    +0.194 C 
ATOM     16 CL   UNL     1      -1.221   2.318   2.480  0.00  0.00    -0.084 Cl
ATOM     17 CL   UNL     1      -3.170   4.074   1.145  0.00  0.00    -0.084 Cl
ATOM     18 CL   UNL     1      -2.783   1.314   0.195  0.00  0.00    -0.084 Cl
ENDBRANCH   7  15
ENDBRANCH   1   7
BRANCH   4  19
ATOM     19  C   UNL     1       3.882   2.176  -0.041  0.00  0.00    +0.072 C 
BRANCH  19  25
ATOM     20  C   UNL     1       3.484   2.258   2.347  0.00  0.00    -0.047 C 
ATOM     21  C   UNL     1       4.066   1.873   3.709  0.00  0.00    +0.141 C 
ATOM     22  O   UNL     1       5.343   2.498   3.870  0.00  0.00    -0.383 OA
ATOM     23  C   UNL     1       6.288   2.145   2.857  0.00  0.00    +0.141 C 
ATOM     24  C   UNL     1       5.728   2.533   1.486  0.00  0.00    -0.047 C 
ATOM     25  N   UNL     1       4.434   1.847   1.291  0.00  0.00    +0.398 N 
ATOM     26  H   UNL     1       4.581   0.833   1.351  0.00  0.00    -0.079 HD
ENDBRANCH  19  25
BRANCH  19  27
ATOM     27  C   UNL     1       4.695   1.438  -1.107  0.00  0.00    +0.194 C 
ATOM     28 CL   UNL     1       3.888   1.615  -2.709  0.00  0.00    -0.084 Cl
ATOM     29 CL   UNL     1       6.354   2.138  -1.189  0.00  0.00    -0.084 Cl
ATOM     30 CL   UNL     1       4.801  -0.310  -0.677  0.00  0.00    -0.084 Cl
ENDBRANCH  19  27
ENDBRANCH   4  19
TORSDOF 6
