REMARK  Name = ZINC28429023
REMARK  4 active torsions:
REMARK  status: ('A' for Active; 'I' for Inactive)
REMARK    1  A    between atoms: C_1  and  C_2
REMARK    2  A    between atoms: C_2  and  C_3
REMARK    3  A    between atoms: C_2  and  C_4
REMARK    4  A    between atoms: C_7  and  C_10
REMARK                            x       y       z     vdW  Elec       q    Type
REMARK                         _______ _______ _______ _____ _____    ______ ____
ROOT
ATOM      1  C   UNL     1       2.505   3.297  -0.005  0.00  0.00    +0.123 C 
ATOM      2  C   UNL     1       1.734   2.018  -0.004  0.00  0.00    +0.036 A 
ATOM      3  C   UNL     1       2.227   0.770  -0.014  0.00  0.00    +0.058 A 
ATOM      4  N   UNL     1       1.331  -0.286  -0.012  0.00  0.00    -0.210 N 
ATOM      5  C   UNL     1       0.002  -0.004   0.002  0.00  0.00    +0.196 A 
ATOM      6  S   UNL     1      -0.022   1.774   0.012  0.00  0.00    -0.051 S 
ATOM      7  N   UNL     1      -0.683  -1.114   0.003  0.00  0.00    -0.208 NA
ATOM      8  C   UNL     1       0.156  -2.148  -0.011  0.00  0.00    +0.246 A 
ATOM      9  N   UNL     1       1.384  -1.704  -0.020  0.00  0.00    -0.153 NA
ATOM     10  C   UNL     1       3.740   0.561  -0.026  0.00  0.00    +0.071 C 
ATOM     11  C   UNL     1       4.407   1.863   0.424  0.00  0.00    +0.088 C 
ATOM     12  N   UNL     1       3.902   2.992  -0.370  0.00  0.00    -0.305 NA
ATOM     13  H   UNL     1       3.954   2.730  -1.437  0.00  0.00    +0.123 HD
ENDROOT
BRANCH   1  17
ATOM     14  C   UNL     1       0.826   5.989  -2.865  0.00  0.00    -0.045 A 
ATOM     15  C   UNL     1       0.544   6.145  -1.520  0.00  0.00    +0.004 A 
ATOM     16  C   UNL     1       1.088   5.274  -0.595  0.00  0.00    +0.006 A 
ATOM     17  C   UNL     1       1.913   4.246  -1.014  0.00  0.00    -0.026 A 
ATOM     18  C   UNL     1       2.198   4.094  -2.358  0.00  0.00    +0.006 A 
ATOM     19  C   UNL     1       1.651   4.962  -3.284  0.00  0.00    +0.004 A 
BRANCH  14  21
ATOM     20  C   UNL     1       1.359   7.652  -4.626  0.00  0.00    +0.012 C 
ATOM     21  C   UNL     1       0.233   6.939  -3.874  0.00  0.00    +0.013 C 
ATOM     22  C   UNL     1      -0.628   6.156  -4.867  0.00  0.00    +0.012 C 
ENDBRANCH  14  21
ENDBRANCH   1  17
TORSDOF 2
