REMARK  Name = ZINC06529414
REMARK  7 active torsions:
REMARK  status: ('A' for Active; 'I' for Inactive)
REMARK    1  A    between atoms: C_4  and  C_7
REMARK    2  A    between atoms: C_7  and  C_8
REMARK    3  A    between atoms: C_8  and  C_9
REMARK    4  A    between atoms: N_11  and  N_12
REMARK    5  A    between atoms: N_12  and  C_13
REMARK    6  A    between atoms: C_13  and  N_15
REMARK    7  A    between atoms: C_16  and  C_18
REMARK                            x       y       z     vdW  Elec       q    Type
REMARK                         _______ _______ _______ _____ _____    ______ ____
ROOT
ATOM      1  N   UNL     1       2.323   0.998  -0.015  0.00  0.00    -0.246 N 
ATOM      2  H   UNL     1       3.156   1.494  -0.020  0.00  0.00    +0.172 HD
ENDROOT
BRANCH   1   5
ATOM      3  C   UNL     1       3.518  -1.061  -0.037  0.00  0.00    +0.229 C 
ATOM      4  O   UNL     1       4.560  -0.441  -0.044  0.00  0.00    -0.274 OA
ATOM      5  N   UNL     1       2.342  -0.403  -0.022  0.00  0.00    -0.235 N 
ATOM      6  H   UNL     1       1.509  -0.900  -0.017  0.00  0.00    +0.173 HD
BRANCH   3   7
ATOM      7  C   UNL     1       3.539  -2.568  -0.045  0.00  0.00    +0.102 C 
BRANCH   7   8
ATOM      8  C   UNL     1       4.988  -3.058  -0.062  0.00  0.00    +0.044 C 
BRANCH   8  12
ATOM      9  C   UNL     1       5.046  -7.330  -0.086  0.00  0.00    +0.000 A 
ATOM     10  C   UNL     1       5.025  -6.632  -1.279  0.00  0.00    +0.000 A 
ATOM     11  C   UNL     1       5.006  -5.250  -1.271  0.00  0.00    +0.003 A 
ATOM     12  C   UNL     1       5.008  -4.565  -0.070  0.00  0.00    -0.047 A 
ATOM     13  C   UNL     1       5.035  -5.263   1.123  0.00  0.00    +0.003 A 
ATOM     14  C   UNL     1       5.049  -6.645   1.115  0.00  0.00    +0.000 A 
ENDBRANCH   8  12
ENDBRANCH   7   8
ENDBRANCH   3   7
ENDBRANCH   1   5
BRANCH   1  15
ATOM     15  C   UNL     1       1.147   1.655   0.000  0.00  0.00    +0.153 C 
ATOM     16  S   UNL     1       1.124   3.367   0.009  0.00  0.00    -0.017 S 
BRANCH  15  17
ATOM     17  N   UNL     1      -0.011   0.966   0.007  0.00  0.00    -0.263 N 
ATOM     18  C   UNL     1      -1.187   1.624   0.017  0.00  0.00    +0.251 C 
ATOM     19  O   UNL     1      -1.204   2.839   0.023  0.00  0.00    -0.270 OA
ATOM     20  H   UNL     1       0.002  -0.004   0.002  0.00  0.00    +0.157 HD
BRANCH  18  21
ATOM     21  C   UNL     1      -2.456   0.868   0.018  0.00  0.00    +0.051 A 
ATOM     22  C   UNL     1      -2.441  -0.528   0.005  0.00  0.00    +0.014 A 
ATOM     23  C   UNL     1      -3.630  -1.228   0.012  0.00  0.00    +0.001 A 
ATOM     24  C   UNL     1      -4.836  -0.550   0.022  0.00  0.00    +0.001 A 
ATOM     25  C   UNL     1      -4.860   0.833   0.030  0.00  0.00    +0.016 A 
ATOM     26  C   UNL     1      -3.677   1.547   0.028  0.00  0.00    +0.030 A 
ATOM     27 BR   UNL     1      -3.711   3.437   0.038  0.00  0.00    -0.050 Br
ENDBRANCH  18  21
ENDBRANCH  15  17
ENDBRANCH   1  15
TORSDOF 7
