REMARK  Name = ZINC53711239
REMARK  3 active torsions:
REMARK  status: ('A' for Active; 'I' for Inactive)
REMARK    1  A    between atoms: C_1  and  C_2
REMARK    2  A    between atoms: C_5  and  C_7
REMARK    3  A    between atoms: C_15  and  C_17
REMARK                            x       y       z     vdW  Elec       q    Type
REMARK                         _______ _______ _______ _____ _____    ______ ____
ROOT
ATOM      1  C   UNL     1       1.037  -4.028  -0.025  0.00  0.00    +0.171 A 
ATOM      2  N   UNL     1       0.363  -5.133   0.240  0.00  0.00    -0.129 NA
ATOM      3  N   UNL     1       1.141  -6.155   0.135  0.00  0.00    -0.132 NA
ATOM      4  C   UNL     1       2.333  -5.772  -0.199  0.00  0.00    +0.155 A 
ATOM      5  N   UNL     1       2.309  -4.410  -0.315  0.00  0.00    -0.308 N 
ATOM      6  C   UNL     1       3.473  -3.602  -0.679  0.00  0.00    +0.140 C 
ATOM      7  C   UNL     1       4.729  -4.465  -0.499  0.00  0.00    +0.103 C 
ATOM      8  N   UNL     1       4.542  -5.760  -1.169  0.00  0.00    -0.302 NA
ATOM      9  C   UNL     1       3.571  -6.599  -0.441  0.00  0.00    +0.153 C 
ATOM     10  H   UNL     1       4.268  -5.633  -2.132  0.00  0.00    +0.123 HD
ENDROOT
BRANCH   1  15
ATOM     11  C   UNL     1      -0.018   1.503   0.010  0.00  0.00    +0.051 C 
ATOM     12  C   UNL     1       0.002  -0.004   0.002  0.00  0.00    -0.013 A 
ATOM     13  C   UNL     1      -1.043  -0.872   0.002  0.00  0.00    +0.011 A 
ATOM     14  C   UNL     1      -0.791  -2.225  -0.007  0.00  0.00    +0.019 A 
ATOM     15  C   UNL     1       0.512  -2.653  -0.015  0.00  0.00    +0.057 A 
ATOM     16  S   UNL     1       1.406  -1.107  -0.018  0.00  0.00    -0.090 S 
ENDBRANCH   1  15
BRANCH   9  17
ATOM     17  C   UNL     1       3.223  -7.801  -1.282  0.00  0.00    -0.023 A 
ATOM     18  C   UNL     1       3.094  -7.671  -2.652  0.00  0.00    +0.005 A 
ATOM     19  C   UNL     1       2.776  -8.773  -3.424  0.00  0.00    +0.000 A 
ATOM     20  C   UNL     1       2.587 -10.005  -2.825  0.00  0.00    +0.000 A 
ATOM     21  C   UNL     1       2.717 -10.134  -1.455  0.00  0.00    +0.000 A 
ATOM     22  C   UNL     1       3.040  -9.033  -0.684  0.00  0.00    +0.005 A 
ENDBRANCH   9  17
TORSDOF 2
