REMARK  Name = ZINC40153926
REMARK  8 active torsions:
REMARK  status: ('A' for Active; 'I' for Inactive)
REMARK    1  A    between atoms: C_1  and  C_2
REMARK    2  A    between atoms: C_8  and  C_12
REMARK    3  A    between atoms: C_12  and  N_13
REMARK    4  A    between atoms: C_16  and  O_27
REMARK    5  A    between atoms: C_19  and  O_25
REMARK    6  A    between atoms: C_21  and  O_24
REMARK    7  A    between atoms: O_25  and  C_26
REMARK    8  A    between atoms: O_27  and  C_28
REMARK                            x       y       z     vdW  Elec       q    Type
REMARK                         _______ _______ _______ _____ _____    ______ ____
ROOT
ATOM      1  N   UNL     1       1.060  -6.615  -1.296  0.00  0.00    -0.290 NA
ATOM      2  C   UNL     1       0.139  -6.532  -2.435  0.00  0.00    +0.124 C 
ATOM      3  C   UNL     1       0.837  -6.936  -3.707  0.00  0.00    +0.017 A 
ATOM      4  C   UNL     1       0.261  -6.575  -4.922  0.00  0.00    +0.125 A 
ATOM      5  C   UNL     1       0.866  -6.928  -6.116  0.00  0.00    +0.049 A 
ATOM      6  C   UNL     1       2.048  -7.644  -6.104  0.00  0.00    +0.049 A 
ATOM      7  C   UNL     1       2.623  -8.004  -4.896  0.00  0.00    +0.126 A 
ATOM      8  C   UNL     1       2.017  -7.647  -3.695  0.00  0.00    +0.032 A 
ATOM      9  C   UNL     1       2.685  -8.050  -2.406  0.00  0.00    +0.162 C 
ATOM     10  C   UNL     1       1.692  -7.942  -1.248  0.00  0.00    +0.121 C 
ENDROOT
BRANCH   9  11
ATOM     11  O   UNL     1       3.144  -9.399  -2.511  0.00  0.00    -0.386 OA
ATOM     12  H   UNL     1       3.586  -9.727  -1.716  0.00  0.00    +0.210 HD
ENDBRANCH   9  11
BRANCH   7  13
ATOM     13  O   UNL     1       3.785  -8.709  -4.884  0.00  0.00    -0.495 OA
ATOM     14  C   UNL     1       4.355  -9.043  -6.151  0.00  0.00    +0.277 C 
ENDBRANCH   7  13
BRANCH   4  15
ATOM     15  O   UNL     1      -0.902  -5.871  -4.936  0.00  0.00    -0.495 OA
ATOM     16  C   UNL     1      -1.440  -5.532  -6.215  0.00  0.00    +0.277 C 
ENDBRANCH   4  15
BRANCH   1  17
ATOM     17  C   UNL     1       0.366  -6.315  -0.036  0.00  0.00    +0.140 C 
BRANCH  17  25
ATOM     18  C   UNL     1      -0.018   1.503   0.010  0.00  0.00    +0.075 C 
ATOM     19  C   UNL     1       0.002  -0.004   0.002  0.00  0.00    +0.099 A 
ATOM     20  N   UNL     1      -0.997  -0.834   0.002  0.00  0.00    -0.159 NA
ATOM     21  N   UNL     1      -0.801  -2.212  -0.007  0.00  0.00    -0.171 N 
ATOM     22  C   UNL     1      -1.762  -3.182  -0.009  0.00  0.00    +0.275 A 
ATOM     23  O   UNL     1      -2.943  -2.873  -0.002  0.00  0.00    -0.266 OA
ATOM     24  C   UNL     1      -1.391  -4.527  -0.018  0.00  0.00    +0.096 A 
ATOM     25  C   UNL     1      -0.055  -4.869  -0.026  0.00  0.00    +0.063 A 
ATOM     26  N   UNL     1       0.855  -3.898  -0.024  0.00  0.00    -0.225 NA
ATOM     27  C   UNL     1       0.499  -2.639  -0.015  0.00  0.00    +0.199 A 
ATOM     28  S   UNL     1       1.406  -1.108  -0.018  0.00  0.00    -0.033 S 
ENDBRANCH  17  25
ENDBRANCH   1  17
TORSDOF 5
