REMARK  Name = ZINC00658633
REMARK  10 active torsions:
REMARK  status: ('A' for Active; 'I' for Inactive)
REMARK    1  A    between atoms: C_1  and  C_2
REMARK    2  A    between atoms: C_2  and  C_30
REMARK    3  A    between atoms: C_6  and  C_14
REMARK    4  A    between atoms: C_8  and  C_12
REMARK    5  A    between atoms: C_9  and  N_11
REMARK    6  A    between atoms: C_17  and  O_22
REMARK    7  A    between atoms: C_18  and  O_20
REMARK    8  A    between atoms: O_20  and  C_21
REMARK    9  A    between atoms: O_22  and  C_23
REMARK   10  A    between atoms: C_23  and  C_24
REMARK                            x       y       z     vdW  Elec       q    Type
REMARK                         _______ _______ _______ _____ _____    ______ ____
ROOT
ATOM      1  C   UNL     1       8.337   4.662   2.643  0.00  0.00    +0.012 C 
ATOM      2  C   UNL     1       7.611   3.492   3.310  0.00  0.00    -0.021 C 
ATOM      3  C   UNL     1       7.524   2.317   2.335  0.00  0.00    +0.081 C 
ATOM      4  C   UNL     1       6.740   2.727   1.111  0.00  0.00    +0.115 C 
ATOM      5  C   UNL     1       5.757   3.642   1.200  0.00  0.00    +0.046 C 
ATOM      6  C   UNL     1       4.972   4.048  -0.024  0.00  0.00    +0.101 C 
ATOM      7  C   UNL     1       5.724   3.669  -1.269  0.00  0.00    +0.098 C 
ATOM      8  C   UNL     1       6.718   2.748  -1.216  0.00  0.00    +0.198 C 
ATOM      9  O   UNL     1       7.054   2.148  -0.063  0.00  0.00    -0.445 OA
ATOM     10  C   UNL     1       5.432   4.250   2.428  0.00  0.00    +0.164 C 
ATOM     11  O   UNL     1       4.525   5.056   2.473  0.00  0.00    -0.292 OA
ATOM     12  C   UNL     1       6.187   3.917   3.686  0.00  0.00    +0.086 C 
ATOM     13  C   UNL     1       8.370   3.067   4.569  0.00  0.00    +0.012 C 
ENDROOT
BRANCH   6  14
ATOM     14  C   UNL     1       3.637   3.349  -0.015  0.00  0.00    -0.031 A 
ATOM     15  C   UNL     1       3.581   1.967  -0.021  0.00  0.00    +0.008 A 
ATOM     16  C   UNL     1       2.359   1.321  -0.008  0.00  0.00    +0.050 A 
ATOM     17  C   UNL     1       1.186   2.059   0.002  0.00  0.00    +0.163 A 
ATOM     18  C   UNL     1       1.242   3.449   0.009  0.00  0.00    +0.162 A 
ATOM     19  C   UNL     1       2.470   4.090   0.000  0.00  0.00    +0.054 A 
BRANCH  18  20
ATOM     20  O   UNL     1       0.093   4.177   0.024  0.00  0.00    -0.491 OA
ATOM     21  C   UNL     1       0.227   5.600   0.030  0.00  0.00    +0.277 C 
ENDBRANCH  18  20
BRANCH  17  22
ATOM     22  O   UNL     1      -0.017   1.425   0.010  0.00  0.00    -0.479 OA
BRANCH  22  23
ATOM     23  C   UNL     1       0.002  -0.004   0.002  0.00  0.00    +0.324 C 
BRANCH  23  24
ATOM     24  C   UNL     1      -1.412  -0.526   0.013  0.00  0.00    +0.248 C 
ATOM     25  O   UNL     1      -2.344   0.250   0.026  0.00  0.00    -0.272 OA
ATOM     26  N   UNL     1      -1.640  -1.854   0.008  0.00  0.00    -0.327 N 
ATOM     27  H   UNL     1      -0.894  -2.474  -0.003  0.00  0.00    +0.145 HD
ATOM     28  H   UNL     1      -2.550  -2.190   0.015  0.00  0.00    +0.145 HD
ENDBRANCH  23  24
ENDBRANCH  22  23
ENDBRANCH  17  22
ENDBRANCH   6  14
BRANCH   8  29
ATOM     29  N   UNL     1       7.394   2.423  -2.365  0.00  0.00    -0.328 N 
ATOM     30  H   UNL     1       8.107   1.766  -2.339  0.00  0.00    +0.145 HD
ATOM     31  H   UNL     1       7.160   2.851  -3.203  0.00  0.00    +0.145 HD
ENDBRANCH   8  29
BRANCH   7  32
ATOM     32  C   UNL     1       5.390   4.284  -2.518  0.00  0.00    +0.101 C 
ATOM     33  N   UNL     1       5.124   4.772  -3.509  0.00  0.00    -0.191 NA
ENDBRANCH   7  32
TORSDOF 7
