REMARK  Name = ZINC49444473
REMARK  4 active torsions:
REMARK  status: ('A' for Active; 'I' for Inactive)
REMARK    1  A    between atoms: C_1  and  C_2
REMARK    2  A    between atoms: N_10  and  C_11
REMARK    3  A    between atoms: N_10  and  C_14
REMARK    4  A    between atoms: C_11  and  C_12
REMARK                            x       y       z     vdW  Elec       q    Type
REMARK                         _______ _______ _______ _____ _____    ______ ____
ROOT
ATOM      1  C   UNL     1      -0.018   1.503   0.010  0.00  0.00    +0.075 C 
ATOM      2  C   UNL     1       0.002  -0.004   0.002  0.00  0.00    +0.101 A 
ATOM      3  N   UNL     1       0.010  -0.844  -1.014  0.00  0.00    -0.145 NA
ATOM      4  N   UNL     1       0.028  -2.086  -0.784  0.00  0.00    -0.126 NA
ATOM      5  C   UNL     1       0.040  -2.568   0.443  0.00  0.00    +0.189 A 
ATOM      6  S   UNL     1       0.031  -1.158   1.367  0.00  0.00    -0.036 S 
ATOM      7  N   UNL     1       0.060  -3.893   0.865  0.00  0.00    -0.247 N 
ATOM      8  C   UNL     1       0.070  -4.889  -0.043  0.00  0.00    +0.309 C 
ATOM      9  O   UNL     1       0.062  -4.630  -1.230  0.00  0.00    -0.252 OA
ATOM     10  N   UNL     1       0.089  -6.173   0.366  0.00  0.00    -0.271 N 
ATOM     11  H   UNL     1       0.066  -4.100   1.813  0.00  0.00    +0.158 HD
ENDROOT
BRANCH  10  12
ATOM     12  C   UNL     1       0.101  -7.256  -0.620  0.00  0.00    +0.079 C 
ATOM     13  C   UNL     1      -1.153  -7.165  -1.492  0.00  0.00    +0.022 C 
ATOM     14  C   UNL     1      -1.141  -8.296  -2.523  0.00  0.00    +0.002 C 
ATOM     15  C   UNL     1       0.103  -8.170  -3.404  0.00  0.00    +0.000 C 
ATOM     16  C   UNL     1       1.357  -8.261  -2.532  0.00  0.00    +0.002 C 
ATOM     17  C   UNL     1       1.345  -7.130  -1.502  0.00  0.00    +0.022 C 
ENDBRANCH  10  12
BRANCH  10  18
ATOM     18  C   UNL     1       0.099  -6.486   1.797  0.00  0.00    +0.198 C 
BRANCH  18  19
ATOM     19  C   UNL     1      -1.285  -6.610   2.282  0.00  0.00    -0.086 C 
ATOM     20  C   UNL     1      -2.389  -6.709   2.668  0.00  0.00    +0.005 C 
ENDBRANCH  18  19
ENDBRANCH  10  18
TORSDOF 3
