REMARK  Name = ZINC31180398
REMARK  2 active torsions:
REMARK  status: ('A' for Active; 'I' for Inactive)
REMARK    1  A    between atoms: C_6  and  N_7
REMARK    2  A    between atoms: C_11  and  C_13
REMARK                            x       y       z     vdW  Elec       q    Type
REMARK                         _______ _______ _______ _____ _____    ______ ____
ROOT
ATOM      1  C   UNL     1       5.135   1.342  -9.498  0.00  0.00    +0.034 A 
ATOM      2  C   UNL     1       4.201   1.325  -8.482  0.00  0.00    +0.018 A 
ATOM      3  C   UNL     1       4.580   0.927  -7.218  0.00  0.00    +0.020 A 
ATOM      4  C   UNL     1       5.905   0.530  -6.918  0.00  0.00    -0.008 A 
ATOM      5  C   UNL     1       6.831   0.563  -7.993  0.00  0.00    +0.041 A 
ATOM      6  C   UNL     1       6.443   0.957  -9.233  0.00  0.00    +0.127 A 
ATOM      7  C   UNL     1       6.133   0.152  -5.583  0.00  0.00    +0.029 A 
ATOM      8  C   UNL     1       5.114   0.184  -4.685  0.00  0.00    +0.075 A 
ATOM      9  S   UNL     1       3.736   0.752  -5.667  0.00  0.00    -0.084 S 
ENDROOT
BRANCH   8  10
ATOM     10  C   UNL     1       5.138  -0.167  -3.258  0.00  0.00    +0.253 C 
ATOM     11  O   UNL     1       5.999  -0.913  -2.830  0.00  0.00    -0.269 OA
ATOM     12  N   UNL     1       4.208   0.338  -2.423  0.00  0.00    -0.297 N 
ATOM     13  C   UNL     1       4.132  -0.112  -1.027  0.00  0.00    +0.113 C 
ATOM     14  C   UNL     1       4.190   1.113  -0.109  0.00  0.00    +0.084 C 
ATOM     15  C   UNL     1       3.095   2.102  -0.516  0.00  0.00    +0.173 C 
ATOM     16  C   UNL     1       3.318   2.562  -1.958  0.00  0.00    +0.084 C 
ATOM     17  C   UNL     1       3.252   1.350  -2.892  0.00  0.00    +0.113 C 
ATOM     18  O   UNL     1       3.133   3.241   0.359  0.00  0.00    -0.346 OA
ATOM     19  C   UNL     1       1.746   3.622   0.530  0.00  0.00    +0.191 C 
ATOM     20  C   UNL     1       1.040   2.243   0.541  0.00  0.00    +0.191 C 
ATOM     21  O   UNL     1       1.812   1.474  -0.403  0.00  0.00    -0.346 OA
ENDBRANCH   8  10
BRANCH   6  22
ATOM     22  N   UNL     1       7.438   0.978 -10.328  0.00  0.00    +0.056 N 
ATOM     23  O   UNL     1       7.106   1.329 -11.446  0.00  0.00    -0.126 OA
ATOM     24  O   UNL     1       8.589   0.643 -10.112  0.00  0.00    -0.126 OA
ENDBRANCH   6  22
TORSDOF 2
