REMARK  Name = ZINC08046529
REMARK  6 active torsions:
REMARK  status: ('A' for Active; 'I' for Inactive)
REMARK    1  A    between atoms: C_1  and  C_2
REMARK    2  A    between atoms: C_5  and  C_26
REMARK    3  A    between atoms: N_11  and  C_12
REMARK    4  A    between atoms: C_12  and  C_13
REMARK    5  A    between atoms: C_16  and  O_19
REMARK    6  A    between atoms: O_19  and  C_20
REMARK                            x       y       z     vdW  Elec       q    Type
REMARK                         _______ _______ _______ _____ _____    ______ ____
ROOT
ATOM      1  C   UNL     1       0.531   7.703   2.423  0.00  0.00    +0.044 C 
ATOM      2  C   UNL     1      -0.897   7.332   2.114  0.00  0.00    -0.040 A 
ATOM      3  C   UNL     1      -1.803   8.313   1.748  0.00  0.00    +0.004 A 
ATOM      4  C   UNL     1      -3.112   7.968   1.466  0.00  0.00    +0.005 A 
ATOM      5  C   UNL     1      -3.519   6.653   1.545  0.00  0.00    -0.029 A 
ATOM      6  C   UNL     1      -2.613   5.660   1.911  0.00  0.00    +0.049 A 
ATOM      7  C   UNL     1      -1.300   6.019   2.193  0.00  0.00    +0.045 A 
ATOM      8  C   UNL     1      -0.583   4.741   2.551  0.00  0.00    +0.278 C 
ATOM      9  C   UNL     1      -1.641   3.670   2.431  0.00  0.00    +0.285 C 
ATOM     10  O   UNL     1      -1.492   2.483   2.631  0.00  0.00    -0.269 OA
ATOM     11  N   UNL     1      -2.780   4.282   2.059  0.00  0.00    -0.262 N 
ATOM     12  O   UNL     1       0.479   4.493   1.635  0.00  0.00    -0.338 OA
ATOM     13  C   UNL     1       1.215   3.296   1.910  0.00  0.00    +0.166 C 
ATOM     14  C   UNL     1       1.766   3.369   3.338  0.00  0.00    +0.056 C 
ATOM     15  C   UNL     1       0.608   3.628   4.307  0.00  0.00    +0.166 C 
ATOM     16  O   UNL     1      -0.092   4.804   3.888  0.00  0.00    -0.338 OA
ATOM     17  C   UNL     1      -4.949   6.289   1.234  0.00  0.00    +0.045 C 
ENDROOT
BRANCH  11  18
ATOM     18  C   UNL     1      -4.048   3.583   1.835  0.00  0.00    +0.149 C 
BRANCH  18  19
ATOM     19  C   UNL     1      -4.682   3.257   3.163  0.00  0.00    -0.029 A 
ATOM     20  C   UNL     1      -4.650   1.961   3.643  0.00  0.00    +0.009 A 
ATOM     21  C   UNL     1      -5.225   1.660   4.862  0.00  0.00    +0.046 A 
ATOM     22  C   UNL     1      -5.846   2.658   5.600  0.00  0.00    +0.120 A 
ATOM     23  C   UNL     1      -5.882   3.956   5.113  0.00  0.00    +0.046 A 
ATOM     24  C   UNL     1      -5.300   4.253   3.896  0.00  0.00    +0.009 A 
BRANCH  22  25
ATOM     25  O   UNL     1      -6.418   2.363   6.797  0.00  0.00    -0.495 OA
ATOM     26  C   UNL     1      -6.343   1.005   7.235  0.00  0.00    +0.277 C 
ENDBRANCH  22  25
ENDBRANCH  18  19
ENDBRANCH  11  18
TORSDOF 3
