REMARK  Name = ZINC35380443
REMARK  6 active torsions:
REMARK  status: ('A' for Active; 'I' for Inactive)
REMARK    1  A    between atoms: C_1  and  C_2
REMARK    2  A    between atoms: C_5  and  C_8
REMARK    3  A    between atoms: C_8  and  C_10
REMARK    4  A    between atoms: N_24  and  C_27
REMARK    5  A    between atoms: C_29  and  C_34
REMARK    6  A    between atoms: C_31  and  C_33
REMARK                            x       y       z     vdW  Elec       q    Type
REMARK                         _______ _______ _______ _____ _____    ______ ____
ROOT
ATOM      1  C   UNL     1      -0.027  -5.373   1.264  0.00  0.00    +0.141 C 
ATOM      2  C   UNL     1       1.376  -5.040   1.806  0.00  0.00    +0.114 C 
ATOM      3  C   UNL     1       1.793  -6.285   2.632  0.00  0.00    +0.107 C 
ATOM      4  C   UNL     1       0.614  -7.266   2.509  0.00  0.00    +0.070 C 
ATOM      5  N   UNL     1      -0.110  -6.853   1.262  0.00  0.00    -0.288 NA
ATOM      6  C   UNL     1      -1.513  -7.268   1.458  0.00  0.00    +0.085 C 
ATOM      7  C   UNL     1      -1.755  -7.370   2.975  0.00  0.00    +0.017 C 
ATOM      8  C   UNL     1      -0.388  -7.001   3.655  0.00  0.00    +0.021 C 
ATOM      9  C   UNL     1       2.987  -6.822   1.874  0.00  0.00    +0.232 C 
ATOM     10  O   UNL     1       3.636  -7.796   2.188  0.00  0.00    -0.274 OA
ATOM     11  N   UNL     1       3.216  -6.053   0.803  0.00  0.00    -0.210 N 
ATOM     12  C   UNL     1       2.365  -5.011   0.664  0.00  0.00    +0.232 C 
ATOM     13  O   UNL     1       2.384  -4.188  -0.226  0.00  0.00    -0.274 OA
ENDROOT
BRANCH  11  14
ATOM     14  C   UNL     1       4.258  -6.301  -0.101  0.00  0.00    +0.044 A 
ATOM     15  C   UNL     1       4.224  -7.431  -0.907  0.00  0.00    +0.027 A 
ATOM     16  C   UNL     1       5.252  -7.674  -1.797  0.00  0.00    -0.048 A 
ATOM     17  C   UNL     1       6.314  -6.793  -1.886  0.00  0.00    +0.006 A 
ATOM     18  C   UNL     1       6.350  -5.667  -1.084  0.00  0.00    -0.048 A 
ATOM     19  C   UNL     1       5.322  -5.416  -0.196  0.00  0.00    +0.027 A 
ATOM     20  C   UNL     1       7.510  -4.709  -1.184  0.00  0.00    +0.044 C 
ATOM     21  C   UNL     1       5.216  -8.900  -2.672  0.00  0.00    +0.044 C 
ENDBRANCH  11  14
BRANCH   1  22
ATOM     22  C   UNL     1      -0.184  -4.840  -0.137  0.00  0.00    +0.181 C 
ATOM     23  O   UNL     1      -0.126  -5.596  -1.084  0.00  0.00    -0.290 OA
BRANCH  22  28
ATOM     24  C   UNL     1      -1.063   0.776  -0.994  0.00  0.00    +0.044 C 
ATOM     25  C   UNL     1      -0.832  -0.696  -0.769  0.00  0.00    -0.050 A 
ATOM     26  C   UNL     1      -0.766  -1.555  -1.852  0.00  0.00    +0.004 A 
ATOM     27  C   UNL     1      -0.555  -2.904  -1.655  0.00  0.00    +0.011 A 
ATOM     28  C   UNL     1      -0.409  -3.402  -0.356  0.00  0.00    +0.019 A 
ATOM     29  C   UNL     1      -0.477  -2.527   0.733  0.00  0.00    +0.011 A 
ATOM     30  C   UNL     1      -0.683  -1.181   0.519  0.00  0.00    +0.004 A 
ENDBRANCH  22  28
ENDBRANCH   1  22
TORSDOF 3
