REMARK  Name = ZINC67517198
REMARK  3 active torsions:
REMARK  status: ('A' for Active; 'I' for Inactive)
REMARK    1  A    between atoms: C_1  and  C_2
REMARK    2  A    between atoms: C_15  and  C_17
REMARK    3  A    between atoms: C_17  and  N_18
REMARK                            x       y       z     vdW  Elec       q    Type
REMARK                         _______ _______ _______ _____ _____    ______ ____
ROOT
ATOM      1  C   UNL     1      -0.019   1.526   0.010  0.00  0.00    +0.007 C 
ATOM      2  C   UNL     1       0.002  -0.004   0.002  0.00  0.00    -0.014 C 
ATOM      3  C   UNL     1       0.720  -0.498  -1.256  0.00  0.00    +0.005 C 
ATOM      4  C   UNL     1       0.729  -2.028  -1.266  0.00  0.00    +0.023 C 
ATOM      5  C   UNL     1       1.468  -2.548  -0.031  0.00  0.00    +0.079 C 
ATOM      6  C   UNL     1       0.783  -2.026   1.234  0.00  0.00    +0.010 C 
ATOM      7  C   UNL     1       0.744  -0.512   1.240  0.00  0.00    +0.008 C 
ATOM      8  C   UNL     1      -0.646  -2.567   1.298  0.00  0.00    +0.007 C 
ATOM      9  C   UNL     1      -0.608  -4.095   1.374  0.00  0.00    +0.019 C 
ATOM     10  C   UNL     1       0.076  -4.651   0.122  0.00  0.00    +0.108 C 
ATOM     11  N   UNL     1       1.407  -4.019  -0.031  0.00  0.00    -0.297 N 
ATOM     12  C   UNL     1       2.528  -4.756  -0.153  0.00  0.00    +0.236 C 
ATOM     13  O   UNL     1       3.604  -4.209  -0.265  0.00  0.00    -0.274 OA
ENDROOT
BRANCH  12  14
ATOM     14  C   UNL     1       2.444  -6.261  -0.151  0.00  0.00    +0.224 C 
BRANCH  14  15
ATOM     15  N   UNL     1       3.788  -6.825  -0.296  0.00  0.00    -0.265 N 
ATOM     16  C   UNL     1       4.428  -7.133  -1.496  0.00  0.00    +0.091 A 
ATOM     17  C   UNL     1       4.057  -7.025  -2.828  0.00  0.00    +0.030 A 
ATOM     18  C   UNL     1       4.933  -7.423  -3.819  0.00  0.00    +0.002 A 
ATOM     19  C   UNL     1       6.177  -7.930  -3.486  0.00  0.00    +0.004 A 
ATOM     20  C   UNL     1       6.553  -8.041  -2.162  0.00  0.00    +0.048 A 
ATOM     21  C   UNL     1       5.682  -7.643  -1.160  0.00  0.00    +0.157 A 
ATOM     22  O   UNL     1       5.771  -7.633   0.193  0.00  0.00    -0.407 OA
ATOM     23  C   UNL     1       4.634  -7.137   0.706  0.00  0.00    +0.422 A 
ATOM     24  O   UNL     1       4.403  -6.993   1.891  0.00  0.00    -0.223 OA
ENDBRANCH  14  15
ENDBRANCH  12  14
TORSDOF 2
