REMARK  Name = ZINC64567371
REMARK  5 active torsions:
REMARK  status: ('A' for Active; 'I' for Inactive)
REMARK    1  A    between atoms: C_1  and  C_2
REMARK    2  A    between atoms: C_7  and  C_8
REMARK    3  A    between atoms: C_11  and  C_14
REMARK    4  A    between atoms: C_19  and  O_20
REMARK    5  A    between atoms: C_21  and  C_23
REMARK                            x       y       z     vdW  Elec       q    Type
REMARK                         _______ _______ _______ _____ _____    ______ ____
ROOT
ATOM      1  C   UNL     1       0.242   0.022   2.480  0.00  0.00    +0.240 C 
ATOM      2  N   UNL     1       0.135   1.306   2.589  0.00  0.00    -0.135 NA
ATOM      3  N   UNL     1       0.290   1.696   3.927  0.00  0.00    -0.146 N 
ATOM      4  C   UNL     1       0.517   0.447   4.674  0.00  0.00    +0.323 C 
ATOM      5  O   UNL     1       0.465  -0.578   3.671  0.00  0.00    -0.447 OA
ATOM      6  C   UNL     1       0.242   2.948   4.424  0.00  0.00    +0.235 C 
ATOM      7  O   UNL     1       0.396   3.135   5.613  0.00  0.00    -0.274 OA
ATOM      8  C   UNL     1      -0.001   4.115   3.503  0.00  0.00    +0.111 C 
ENDROOT
BRANCH   1  15
ATOM      9  C   UNL     1      -0.505   1.454   0.079  0.00  0.00    +0.044 C 
ATOM     10  C   UNL     1      -0.231  -0.028   0.035  0.00  0.00    -0.038 A 
ATOM     11  C   UNL     1      -0.330  -0.714  -1.158  0.00  0.00    +0.004 A 
ATOM     12  C   UNL     1      -0.080  -2.074  -1.200  0.00  0.00    +0.000 A 
ATOM     13  C   UNL     1       0.272  -2.755  -0.048  0.00  0.00    +0.001 A 
ATOM     14  C   UNL     1       0.374  -2.081   1.151  0.00  0.00    +0.013 A 
ATOM     15  C   UNL     1       0.128  -0.708   1.200  0.00  0.00    +0.041 A 
ENDBRANCH   1  15
BRANCH   4  16
ATOM     16  C   UNL     1      -0.572   0.238   5.695  0.00  0.00    +0.054 A 
ATOM     17  C   UNL     1      -1.742   0.969   5.618  0.00  0.00    +0.012 A 
ATOM     18  C   UNL     1      -2.741   0.778   6.554  0.00  0.00    +0.001 A 
ATOM     19  C   UNL     1      -2.572  -0.144   7.571  0.00  0.00    +0.004 A 
ATOM     20  C   UNL     1      -1.405  -0.878   7.652  0.00  0.00    +0.046 A 
ATOM     21  C   UNL     1      -0.403  -0.692   6.710  0.00  0.00    +0.125 A 
BRANCH  21  22
ATOM     22  O   UNL     1       0.745  -1.416   6.785  0.00  0.00    -0.506 OA
ATOM     23  H   UNL     1       1.437  -1.002   7.319  0.00  0.00    +0.292 HD
ENDBRANCH  21  22
ENDBRANCH   4  16
TORSDOF 3
