REMARK  Name = ZINC11814264
REMARK  6 active torsions:
REMARK  status: ('A' for Active; 'I' for Inactive)
REMARK    1  A    between atoms: C_5  and  C_7
REMARK    2  A    between atoms: C_7  and  C_8
REMARK    3  A    between atoms: C_14  and  C_17
REMARK    4  A    between atoms: C_17  and  C_18
REMARK    5  A    between atoms: C_18  and  C_19
REMARK    6  A    between atoms: N_24  and  C_27
REMARK                            x       y       z     vdW  Elec       q    Type
REMARK                         _______ _______ _______ _____ _____    ______ ____
ROOT
ATOM      1  C   UNL     1      -4.415   4.628   4.730  0.00  0.00    +0.014 C 
ENDROOT
BRANCH   1   8
ATOM      2  C   UNL     1      -1.824   2.246   1.438  0.00  0.00    +0.220 C 
ATOM      3  O   UNL     1      -1.171   1.786   2.351  0.00  0.00    -0.275 OA
ATOM      4  N   UNL     1      -2.989   2.873   1.693  0.00  0.00    -0.301 N 
ATOM      5  C   UNL     1      -3.791   3.435   0.598  0.00  0.00    +0.108 C 
ATOM      6  C   UNL     1      -4.079   4.908   0.903  0.00  0.00    +0.019 C 
ATOM      7  C   UNL     1      -4.732   5.021   2.283  0.00  0.00    +0.006 C 
ATOM      8  C   UNL     1      -3.774   4.485   3.348  0.00  0.00    +0.007 C 
ATOM      9  C   UNL     1      -3.485   3.002   3.070  0.00  0.00    +0.111 C 
BRANCH   2  10
ATOM     10  C   UNL     1      -1.332   2.116   0.020  0.00  0.00    +0.134 C 
BRANCH  10  15
ATOM     11  C   UNL     1       2.377   1.412  -0.013  0.00  0.00    +0.000 A 
ATOM     12  C   UNL     1       2.397   0.030  -0.021  0.00  0.00    +0.003 A 
ATOM     13  C   UNL     1       1.211  -0.679  -0.013  0.00  0.00    +0.038 A 
ATOM     14  C   UNL     1       0.002  -0.004   0.002  0.00  0.00    +0.127 A 
ATOM     15  C   UNL     1      -0.017   1.380   0.010  0.00  0.00    -0.003 A 
ATOM     16  C   UNL     1       1.171   2.087   0.002  0.00  0.00    +0.007 A 
ATOM     17  F   UNL     1      -1.158  -0.696   0.009  0.00  0.00    -0.205 F 
ENDBRANCH  10  15
ENDBRANCH   2  10
ENDBRANCH   1   8
BRANCH   1  18
ATOM     18  C   UNL     1      -3.409   4.208   5.804  0.00  0.00    +0.096 C 
BRANCH  18  19
ATOM     19  C   UNL     1      -4.041   4.349   7.166  0.00  0.00    +0.216 C 
ATOM     20  O   UNL     1      -5.182   4.746   7.267  0.00  0.00    -0.276 OA
ATOM     21  N   UNL     1      -3.337   4.034   8.271  0.00  0.00    -0.298 N 
ATOM     22  C   UNL     1      -1.953   3.545   8.171  0.00  0.00    +0.126 C 
ATOM     23  C   UNL     1      -1.075   4.388   9.109  0.00  0.00    +0.125 C 
ATOM     24  N   UNL     1      -1.647   4.360  10.462  0.00  0.00    -0.314 N 
ATOM     25  C   UNL     1      -2.979   4.976  10.491  0.00  0.00    +0.125 C 
ATOM     26  C   UNL     1      -3.933   4.164   9.609  0.00  0.00    +0.126 C 
BRANCH  24  27
ATOM     27  C   UNL     1      -0.795   4.971  11.375  0.00  0.00    +0.099 A 
ATOM     28  C   UNL     1       0.517   4.527  11.499  0.00  0.00    +0.042 A 
ATOM     29  C   UNL     1       1.354   5.144  12.411  0.00  0.00    +0.005 A 
ATOM     30  C   UNL     1       0.847   6.189  13.173  0.00  0.00    +0.018 A 
ATOM     31  C   UNL     1      -0.466   6.578  12.998  0.00  0.00    +0.084 A 
ATOM     32  N   UNL     1      -1.314   5.999  12.107  0.00  0.00    -0.350 N 
ATOM     33  H   UNL     1      -2.284   6.315  11.993  0.00  0.00    +0.166 HD
ENDBRANCH  24  27
ENDBRANCH  18  19
ENDBRANCH   1  18
TORSDOF 6
