REMARK  Name = ZINC14470640
REMARK  3 active torsions:
REMARK  status: ('A' for Active; 'I' for Inactive)
REMARK    1  A    between atoms: C_3  and  C_27
REMARK    2  A    between atoms: C_14  and  C_17
REMARK    3  A    between atoms: C_21  and  N_23
REMARK                            x       y       z     vdW  Elec       q    Type
REMARK                         _______ _______ _______ _____ _____    ______ ____
ROOT
ATOM      1  C   UNL     1      -2.685  10.340   0.296  0.00  0.00    +0.002 A 
ATOM      2  C   UNL     1      -3.142   9.558   1.336  0.00  0.00    +0.021 A 
ATOM      3  C   UNL     1      -2.621   8.280   1.529  0.00  0.00    +0.073 A 
ATOM      4  C   UNL     1      -1.629   7.774   0.663  0.00  0.00    +0.049 A 
ATOM      5  C   UNL     1      -1.175   8.595  -0.372  0.00  0.00    -0.018 A 
ATOM      6  C   UNL     1      -1.704   9.855  -0.551  0.00  0.00    +0.006 A 
ATOM      7  C   UNL     1      -0.114   8.064  -1.257  0.00  0.00    +0.049 C 
ATOM      8  C   UNL     1       0.058   8.466  -2.684  0.00  0.00    -0.023 C 
ATOM      9  C   UNL     1       0.518   7.430  -3.376  0.00  0.00    -0.030 C 
ATOM     10  C   UNL     1       0.685   6.219  -2.453  0.00  0.00    +0.033 C 
ATOM     11  C   UNL     1      -0.347   6.524  -1.361  0.00  0.00    +0.029 C 
ATOM     12  C   UNL     1      -0.079   6.003   0.036  0.00  0.00    +0.105 C 
ATOM     13  N   UNL     1      -1.174   6.485   0.893  0.00  0.00    -0.335 N 
ATOM     14  H   UNL     1      -1.939   5.828   0.906  0.00  0.00    +0.147 HD
ENDROOT
BRANCH  12  15
ATOM     15  C   UNL     1      -0.059   4.497   0.027  0.00  0.00    -0.025 A 
ATOM     16  C   UNL     1      -1.247   3.789   0.034  0.00  0.00    +0.007 A 
ATOM     17  C   UNL     1      -1.229   2.408   0.021  0.00  0.00    +0.022 A 
ATOM     18  C   UNL     1      -0.021   1.732   0.012  0.00  0.00    +0.071 A 
ATOM     19  C   UNL     1       1.167   2.440   0.004  0.00  0.00    +0.145 A 
ATOM     20  C   UNL     1       1.147   3.822   0.012  0.00  0.00    +0.039 A 
ATOM     21 CL   UNL     1       0.002  -0.004   0.002  0.00  0.00    -0.081 Cl
BRANCH  19  22
ATOM     22  N   UNL     1       2.459   1.718  -0.012  0.00  0.00    +0.058 N 
ATOM     23  O   UNL     1       3.505   2.341  -0.018  0.00  0.00    -0.126 OA
ATOM     24  O   UNL     1       2.476   0.500  -0.018  0.00  0.00    -0.126 OA
ENDBRANCH  19  22
ENDBRANCH  12  15
BRANCH   3  25
ATOM     25  C   UNL     1      -3.096   7.476   2.614  0.00  0.00    +0.101 C 
ATOM     26  N   UNL     1      -3.473   6.837   3.475  0.00  0.00    -0.191 NA
ENDBRANCH   3  25
TORSDOF 3
