REMARK  Name = ZINC23327043
REMARK  8 active torsions:
REMARK  status: ('A' for Active; 'I' for Inactive)
REMARK    1  A    between atoms: C_1  and  C_2
REMARK    2  A    between atoms: C_5  and  C_7
REMARK    3  A    between atoms: C_7  and  C_9
REMARK    4  A    between atoms: C_7  and  C_11
REMARK    5  A    between atoms: C_11  and  C_13
REMARK    6  A    between atoms: C_13  and  S_14
REMARK    7  A    between atoms: S_14  and  C_15
REMARK    8  A    between atoms: C_25  and  C_29
REMARK                            x       y       z     vdW  Elec       q    Type
REMARK                         _______ _______ _______ _____ _____    ______ ____
ROOT
ATOM      1  C   UNL     1       5.913   3.670   0.118  0.00  0.00    +0.191 A 
ATOM      2  N   UNL     1       6.066   2.392   0.436  0.00  0.00    -0.207 NA
ATOM      3  C   UNL     1       5.080   1.499   0.412  0.00  0.00    +0.129 A 
ATOM      4  C   UNL     1       3.802   1.990   0.015  0.00  0.00    +0.051 A 
ATOM      5  C   UNL     1       2.567   1.229  -0.096  0.00  0.00    -0.025 A 
ATOM      6  C   UNL     1       1.470   1.909  -0.496  0.00  0.00    -0.004 A 
ATOM      7  S   UNL     1       2.019   3.580  -0.742  0.00  0.00    -0.073 S 
ATOM      8  C   UNL     1       3.715   3.366  -0.310  0.00  0.00    +0.115 A 
ATOM      9  N   UNL     1       4.744   4.190  -0.261  0.00  0.00    -0.215 NA
ATOM     10  C   UNL     1       0.087   1.367  -0.690  0.00  0.00    +0.046 C 
ATOM     11  C   UNL     1       0.166  -0.166  -0.724  0.00  0.00    -0.009 C 
ATOM     12  C   UNL     1       1.021  -0.638   0.455  0.00  0.00    +0.008 C 
ATOM     13  C   UNL     1       2.484  -0.262   0.218  0.00  0.00    +0.037 C 
ATOM     14  C   UNL     1      -1.242  -0.754  -0.610  0.00  0.00    +0.008 C 
ATOM     15  N   UNL     1       5.283   0.174   0.753  0.00  0.00    -0.343 N 
ATOM     16  H   UNL     1       4.444  -0.537   0.722  0.00  0.00    +0.144 HD
ATOM     17  H   UNL     1       6.284  -0.169   1.055  0.00  0.00    +0.144 HD
ENDROOT
BRANCH   1  18
ATOM     18  S   UNL     1       7.318   4.730   0.200  0.00  0.00    -0.078 S 
BRANCH  18  19
ATOM     19  C   UNL     1       8.573   3.546   0.746  0.00  0.00    +0.153 C 
BRANCH  19  20
ATOM     20  C   UNL     1       9.899   4.249   0.889  0.00  0.00    +0.167 C 
ATOM     21  O   UNL     1       9.985   5.429   0.646  0.00  0.00    -0.295 OA
BRANCH  20  22
ATOM     22  C   UNL     1      11.116   3.480   1.334  0.00  0.00    +0.213 C 
BRANCH  22  27
ATOM     23  C   UNL     1      15.392   3.899  -1.228  0.00  0.00    +0.066 C 
ATOM     24  C   UNL     1      14.326   4.445  -0.314  0.00  0.00    +0.046 A 
ATOM     25  C   UNL     1      14.408   5.710   0.172  0.00  0.00    +0.070 A 
ATOM     26  S   UNL     1      12.914   5.784   1.150  0.00  0.00    -0.079 S 
ATOM     27  C   UNL     1      12.358   4.170   0.831  0.00  0.00    +0.103 A 
ATOM     28  N   UNL     1      13.293   3.707   0.035  0.00  0.00    -0.247 NA
ENDBRANCH  22  27
BRANCH  22  29
ATOM     29  C   UNL     1      11.148   3.422   2.805  0.00  0.00    +0.080 C 
ATOM     30  N   UNL     1      11.173   3.377   3.939  0.00  0.00    -0.195 NA
ENDBRANCH  22  29
ENDBRANCH  20  22
ENDBRANCH  19  20
ENDBRANCH  18  19
ENDBRANCH   1  18
TORSDOF 6
