REMARK  Name = ZINC34955681
REMARK  4 active torsions:
REMARK  status: ('A' for Active; 'I' for Inactive)
REMARK    1  A    between atoms: C_1  and  C_2
REMARK    2  A    between atoms: C_5  and  C_22
REMARK    3  A    between atoms: N_8  and  S_10
REMARK    4  A    between atoms: S_10  and  C_13
REMARK                            x       y       z     vdW  Elec       q    Type
REMARK                         _______ _______ _______ _____ _____    ______ ____
ROOT
ATOM      1  S   UNL     1       1.999  -2.914   1.419  0.00  0.00    +0.061 S 
ATOM      2  O   UNL     1       2.998  -2.098   2.015  0.00  0.00    -0.153 OA
ATOM      3  O   UNL     1       1.587  -4.150   1.986  0.00  0.00    -0.153 OA
ENDROOT
BRANCH   1   4
ATOM      4  C   UNL     1       2.547  -3.268  -0.217  0.00  0.00    +0.106 A 
ATOM      5  C   UNL     1       2.080  -4.390  -0.877  0.00  0.00    +0.030 A 
ATOM      6  C   UNL     1       2.507  -4.671  -2.157  0.00  0.00    +0.025 A 
ATOM      7  C   UNL     1       3.414  -3.824  -2.798  0.00  0.00    +0.031 A 
ATOM      8  C   UNL     1       3.875  -2.701  -2.128  0.00  0.00    -0.023 A 
ATOM      9  C   UNL     1       3.440  -2.422  -0.847  0.00  0.00    +0.034 A 
ATOM     10  C   UNL     1       4.835  -1.961  -3.034  0.00  0.00    +0.055 C 
ATOM     11  C   UNL     1       4.874  -2.799  -4.322  0.00  0.00    +0.106 C 
ATOM     12  N   UNL     1       3.966  -3.923  -4.076  0.00  0.00    -0.343 N 
ATOM     13  H   UNL     1       3.777  -4.633  -4.710  0.00  0.00    +0.146 HD
ENDBRANCH   1   4
BRANCH   1  19
ATOM     14  C   UNL     1      -0.019   1.526   0.010  0.00  0.00    +0.009 C 
ATOM     15  C   UNL     1       0.002  -0.004   0.002  0.00  0.00    +0.002 C 
ATOM     16  C   UNL     1      -1.433  -0.534   0.015  0.00  0.00    +0.009 C 
ATOM     17  C   UNL     1      -1.414  -2.064  -0.027  0.00  0.00    +0.002 C 
ATOM     18  C   UNL     1      -0.692  -2.596   1.215  0.00  0.00    +0.112 C 
ATOM     19  N   UNL     1       0.639  -1.977   1.288  0.00  0.00    -0.176 NA
ATOM     20  C   UNL     1       0.742  -0.512   1.244  0.00  0.00    +0.112 C 
ATOM     21  C   UNL     1      -2.850  -2.592  -0.049  0.00  0.00    +0.009 C 
ENDBRANCH   1  19
TORSDOF 2
