REMARK  Name = ZINC66648785
REMARK  7 active torsions:
REMARK  status: ('A' for Active; 'I' for Inactive)
REMARK    1  A    between atoms: C_1  and  C_2
REMARK    2  A    between atoms: C_7  and  O_24
REMARK    3  A    between atoms: C_10  and  C_11
REMARK    4  A    between atoms: C_17  and  C_19
REMARK    5  A    between atoms: N_21  and  C_22
REMARK    6  A    between atoms: N_21  and  C_23
REMARK    7  A    between atoms: O_24  and  C_25
REMARK                            x       y       z     vdW  Elec       q    Type
REMARK                         _______ _______ _______ _____ _____    ______ ____
ROOT
ATOM      1  C   UNL     1       0.253   1.964   0.232  0.00  0.00    +0.048 C 
ATOM      2  C   UNL     1       0.265   0.464   0.088  0.00  0.00    +0.008 A 
ATOM      3  C   UNL     1       0.325  -0.299  -1.159  0.00  0.00    +0.027 A 
ATOM      4  C   UNL     1       0.386   0.049  -2.511  0.00  0.00    +0.012 A 
ATOM      5  C   UNL     1       0.433  -0.930  -3.463  0.00  0.00    +0.004 A 
ATOM      6  C   UNL     1       0.421  -2.269  -3.098  0.00  0.00    +0.049 A 
ATOM      7  C   UNL     1       0.361  -2.636  -1.766  0.00  0.00    +0.163 A 
ATOM      8  C   UNL     1       0.312  -1.653  -0.779  0.00  0.00    +0.178 A 
ATOM      9  O   UNL     1       0.250  -1.698   0.567  0.00  0.00    -0.446 OA
ATOM     10  C   UNL     1       0.227  -0.454   1.089  0.00  0.00    +0.194 A 
ENDROOT
BRANCH  10  11
ATOM     11  C   UNL     1       0.168  -0.139   2.523  0.00  0.00    +0.284 C 
ATOM     12  O   UNL     1       0.149   1.021   2.891  0.00  0.00    -0.267 OA
ATOM     13  N   UNL     1       0.135  -1.134   3.431  0.00  0.00    -0.273 N 
ATOM     14  C   UNL     1       0.163  -2.557   3.027  0.00  0.00    +0.178 C 
ATOM     15  S   UNL     1       0.791  -3.356   4.569  0.00  0.00    -0.139 S 
ATOM     16  C   UNL     1       0.062  -2.133   5.748  0.00  0.00    +0.102 C 
ATOM     17  C   UNL     1       0.076  -0.866   4.858  0.00  0.00    +0.173 C 
BRANCH  17  18
ATOM     18  C   UNL     1      -1.173  -0.072   5.144  0.00  0.00    +0.236 C 
ATOM     19  O   UNL     1      -2.093  -0.084   4.355  0.00  0.00    -0.274 OA
ATOM     20  N   UNL     1      -1.266   0.652   6.277  0.00  0.00    -0.306 N 
ATOM     21  C   UNL     1      -2.518   1.338   6.607  0.00  0.00    +0.131 C 
ATOM     22  C   UNL     1      -0.115   0.754   7.178  0.00  0.00    +0.131 C 
ENDBRANCH  17  18
ENDBRANCH  10  11
BRANCH   7  23
ATOM     23  O   UNL     1       0.350  -3.951  -1.421  0.00  0.00    -0.491 OA
ATOM     24  C   UNL     1       0.403  -4.902  -2.487  0.00  0.00    +0.277 C 
ENDBRANCH   7  23
TORSDOF 3
