REMARK  Name = ZINC06952842
REMARK  4 active torsions:
REMARK  status: ('A' for Active; 'I' for Inactive)
REMARK    1  A    between atoms: C_1  and  O_2
REMARK    2  A    between atoms: O_2  and  C_3
REMARK    3  A    between atoms: C_6  and  N_26
REMARK    4  A    between atoms: C_10  and  C_19
REMARK                            x       y       z     vdW  Elec       q    Type
REMARK                         _______ _______ _______ _____ _____    ______ ____
ROOT
ATOM      1  C   UNL     1       5.446   1.978  -0.878  0.00  0.00    +0.141 A 
ATOM      2  C   UNL     1       6.162   0.803  -0.992  0.00  0.00    +0.050 A 
ATOM      3  C   UNL     1       5.500  -0.401  -1.159  0.00  0.00    +0.037 A 
ATOM      4  C   UNL     1       4.120  -0.420  -1.218  0.00  0.00    +0.132 A 
ATOM      5  C   UNL     1       3.396   0.750  -1.111  0.00  0.00    +0.014 A 
ATOM      6  C   UNL     1       4.047   1.972  -0.930  0.00  0.00    +0.076 A 
ATOM      7  N   UNL     1       3.390   3.196  -0.792  0.00  0.00    -0.334 N 
ATOM      8  C   UNL     1       1.925   3.179  -0.929  0.00  0.00    +0.105 C 
ATOM      9  C   UNL     1       1.429   1.915  -0.258  0.00  0.00    +0.029 C 
ATOM     10  C   UNL     1       1.919   0.760  -1.187  0.00  0.00    +0.051 C 
ATOM     11  C   UNL     1       1.088  -0.391  -0.757  0.00  0.00    -0.023 C 
ATOM     12  C   UNL     1      -0.064   0.072  -0.285  0.00  0.00    -0.030 C 
ATOM     13  C   UNL     1      -0.070   1.603  -0.332  0.00  0.00    +0.033 C 
ATOM     14  H   UNL     1       3.668   3.661   0.059  0.00  0.00    +0.147 HD
ENDROOT
BRANCH   8  15
ATOM     15  C   UNL     1       1.330   4.387  -0.253  0.00  0.00    -0.026 A 
ATOM     16  C   UNL     1       1.867   4.849   0.935  0.00  0.00    +0.005 A 
ATOM     17  C   UNL     1       1.325   5.960   1.554  0.00  0.00    +0.002 A 
ATOM     18  C   UNL     1       0.239   6.603   0.991  0.00  0.00    +0.020 A 
ATOM     19  C   UNL     1      -0.302   6.139  -0.194  0.00  0.00    +0.041 A 
ATOM     20  C   UNL     1       0.244   5.030  -0.816  0.00  0.00    +0.025 A 
ATOM     21 CL   UNL     1      -1.667   6.947  -0.901  0.00  0.00    -0.084 Cl
ENDBRANCH   8  15
BRANCH   4  22
ATOM     22  N   UNL     1       3.411  -1.706  -1.399  0.00  0.00    +0.057 N 
ATOM     23  O   UNL     1       3.672  -2.652  -0.676  0.00  0.00    -0.126 OA
ATOM     24  O   UNL     1       2.567  -1.820  -2.269  0.00  0.00    -0.126 OA
ENDBRANCH   4  22
BRANCH   1  26
ATOM     25  C   UNL     1       7.535   3.096  -0.668  0.00  0.00    +0.277 C 
ATOM     26  O   UNL     1       6.107   3.155  -0.714  0.00  0.00    -0.493 OA
ENDBRANCH   1  26
TORSDOF 3
