REMARK  Name = ZINC14162352
REMARK  8 active torsions:
REMARK  status: ('A' for Active; 'I' for Inactive)
REMARK    1  A    between atoms: C_1  and  C_2
REMARK    2  A    between atoms: C_2  and  O_3
REMARK    3  A    between atoms: O_3  and  C_4
REMARK    4  A    between atoms: C_4  and  C_6
REMARK    5  A    between atoms: C_7  and  N_31
REMARK    6  A    between atoms: C_21  and  C_23
REMARK    7  A    between atoms: C_28  and  O_29
REMARK    8  A    between atoms: O_29  and  C_30
REMARK                            x       y       z     vdW  Elec       q    Type
REMARK                         _______ _______ _______ _____ _____    ______ ____
ROOT
ATOM      1  C   UNL     1       0.100   1.641   0.245  0.00  0.00    +0.105 C 
ATOM      2  C   UNL     1       1.308   2.211   0.001  0.00  0.00    +0.195 C 
ATOM      3  O   UNL     1       2.398   1.465  -0.247  0.00  0.00    -0.441 OA
ATOM      4  C   UNL     1       2.261   0.183  -0.642  0.00  0.00    +0.148 A 
ATOM      5  C   UNL     1       3.377  -0.500  -1.313  0.00  0.00    +0.041 A 
ATOM      6  C   UNL     1       4.585   0.157  -1.556  0.00  0.00    +0.013 A 
ATOM      7  C   UNL     1       5.603  -0.507  -2.182  0.00  0.00    +0.001 A 
ATOM      8  C   UNL     1       5.446  -1.827  -2.578  0.00  0.00    +0.002 A 
ATOM      9  C   UNL     1       4.262  -2.494  -2.348  0.00  0.00    +0.026 A 
ATOM     10  C   UNL     1       3.213  -1.837  -1.713  0.00  0.00    +0.053 A 
ATOM     11  N   UNL     1       2.015  -2.478  -1.470  0.00  0.00    -0.322 N 
ATOM     12  H   UNL     1       1.904  -3.401  -1.746  0.00  0.00    +0.169 HD
ATOM     13  C   UNL     1       1.001  -1.845  -0.858  0.00  0.00    +0.257 A 
ATOM     14  O   UNL     1      -0.041  -2.448  -0.663  0.00  0.00    -0.267 OA
ATOM     15  C   UNL     1       1.106  -0.508  -0.434  0.00  0.00    +0.072 A 
ATOM     16  C   UNL     1      -0.066   0.147   0.248  0.00  0.00    +0.103 C 
ENDROOT
BRANCH  16  17
ATOM     17  C   UNL     1      -0.153  -0.342   1.671  0.00  0.00    +0.007 A 
ATOM     18  C   UNL     1       0.894  -0.119   2.544  0.00  0.00    +0.008 A 
ATOM     19  C   UNL     1       0.815  -0.567   3.849  0.00  0.00    +0.001 A 
ATOM     20  C   UNL     1      -0.312  -1.240   4.284  0.00  0.00    +0.004 A 
ATOM     21  C   UNL     1      -1.362  -1.466   3.415  0.00  0.00    +0.046 A 
ATOM     22  C   UNL     1      -1.287  -1.012   2.106  0.00  0.00    +0.124 A 
BRANCH  22  23
ATOM     23  O   UNL     1      -2.320  -1.228   1.250  0.00  0.00    -0.495 OA
ATOM     24  C   UNL     1      -3.456  -1.925   1.767  0.00  0.00    +0.277 C 
ENDBRANCH  22  23
ENDBRANCH  16  17
BRANCH   2  25
ATOM     25  N   UNL     1       1.418   3.575   0.007  0.00  0.00    -0.329 N 
ATOM     26  H   UNL     1       2.226   3.995   0.342  0.00  0.00    +0.145 HD
ATOM     27  H   UNL     1       0.689   4.123  -0.324  0.00  0.00    +0.145 HD
ENDBRANCH   2  25
BRANCH   1  28
ATOM     28  C   UNL     1      -1.012   2.460   0.493  0.00  0.00    +0.341 C 
ATOM     29  O   UNL     1      -0.870   3.665   0.600  0.00  0.00    -0.245 OA
BRANCH  28  30
ATOM     30  O   UNL     1      -2.241   1.912   0.613  0.00  0.00    -0.462 OA
BRANCH  30  32
ATOM     31  C   UNL     1      -4.630   2.008   0.969  0.00  0.00    +0.048 C 
ATOM     32  C   UNL     1      -3.328   2.805   0.865  0.00  0.00    +0.229 C 
ENDBRANCH  30  32
ENDBRANCH  28  30
ENDBRANCH   1  28
TORSDOF 6
