REMARK  Name = ZINC22576620
REMARK  9 active torsions:
REMARK  status: ('A' for Active; 'I' for Inactive)
REMARK    1  A    between atoms: C_1  and  C_2
REMARK    2  A    between atoms: C_12  and  C_14
REMARK    3  A    between atoms: C_14  and  C_16
REMARK    4  A    between atoms: C_14  and  N_25
REMARK    5  A    between atoms: N_20  and  C_21
REMARK    6  A    between atoms: C_21  and  C_22
REMARK    7  A    between atoms: C_21  and  C_23
REMARK    8  A    between atoms: C_21  and  C_24
REMARK    9  A    between atoms: N_28  and  C_31
REMARK                            x       y       z     vdW  Elec       q    Type
REMARK                         _______ _______ _______ _____ _____    ______ ____
ROOT
ATOM      1  C   UNL     1       0.123  -2.909   5.006  0.00  0.00    +0.162 C 
ENDROOT
BRANCH   1  13
ATOM      2  C   UNL     1       0.846   2.141   0.861  0.00  0.00    +0.046 C 
ATOM      3  C   UNL     1       0.715   0.661   0.612  0.00  0.00    -0.026 A 
ATOM      4  C   UNL     1       0.734   0.171  -0.676  0.00  0.00    +0.005 A 
ATOM      5  C   UNL     1       0.620  -1.191  -0.918  0.00  0.00    +0.001 A 
ATOM      6  C   UNL     1       0.477  -2.071   0.117  0.00  0.00    +0.010 A 
ATOM      7  C   UNL     1       0.450  -1.597   1.432  0.00  0.00    -0.001 A 
ATOM      8  C   UNL     1       0.571  -0.216   1.682  0.00  0.00    +0.052 A 
ATOM      9  N   UNL     1       0.544   0.246   2.980  0.00  0.00    -0.322 N 
ATOM     10  H   UNL     1       0.637   1.323   3.182  0.00  0.00    +0.169 HD
ATOM     11  C   UNL     1       0.404  -0.602   4.014  0.00  0.00    +0.254 A 
ATOM     12  O   UNL     1       0.383  -0.158   5.149  0.00  0.00    -0.268 OA
ATOM     13  C   UNL     1       0.279  -1.994   3.818  0.00  0.00    +0.042 A 
ATOM     14  C   UNL     1       0.298  -2.512   2.565  0.00  0.00    +0.021 A 
ENDBRANCH   1  13
BRANCH   1  15
ATOM     15  N   UNL     1       1.234  -2.689   5.941  0.00  0.00    -0.292 NA
ATOM     16  C   UNL     1       2.530  -2.879   5.274  0.00  0.00    +0.067 C 
ATOM     17  C   UNL     1       3.659  -2.564   6.259  0.00  0.00    -0.064 C 
ATOM     18  N   UNL     1       3.540  -3.441   7.432  0.00  0.00    +0.379 N 
ATOM     19  C   UNL     1       2.245  -3.251   8.099  0.00  0.00    -0.064 C 
ATOM     20  C   UNL     1       1.116  -3.566   7.115  0.00  0.00    +0.067 C 
ATOM     21  C   UNL     1       4.651  -3.221   8.368  0.00  0.00    -0.096 C 
ATOM     22  H   UNL     1       3.594  -4.483   7.085  0.00  0.00    -0.082 HD
ENDBRANCH   1  15
BRANCH   1  23
ATOM     23  C   UNL     1      -1.182  -2.615   5.699  0.00  0.00    +0.174 A 
ATOM     24  N   UNL     1      -1.483  -1.534   6.376  0.00  0.00    -0.111 NA
ATOM     25  N   UNL     1      -2.689  -1.660   6.812  0.00  0.00    -0.023 NA
ATOM     26  N   UNL     1      -3.165  -2.793   6.430  0.00  0.00    -0.043 NA
ATOM     27  N   UNL     1      -2.268  -3.409   5.737  0.00  0.00    -0.222 N 
BRANCH  27  28
ATOM     28  C   UNL     1      -2.405  -4.727   5.111  0.00  0.00    +0.059 C 
ATOM     29  C   UNL     1      -1.392  -5.693   5.729  0.00  0.00    +0.036 C 
ATOM     30  C   UNL     1      -3.822  -5.256   5.342  0.00  0.00    +0.036 C 
ATOM     31  C   UNL     1      -2.144  -4.607   3.608  0.00  0.00    +0.036 C 
ENDBRANCH  27  28
ENDBRANCH   1  23
TORSDOF 4
