REMARK  Name = ZINC37970112
REMARK  3 active torsions:
REMARK  status: ('A' for Active; 'I' for Inactive)
REMARK    1  A    between atoms: C_5  and  N_8
REMARK    2  A    between atoms: N_8  and  C_9
REMARK    3  A    between atoms: C_9  and  C_19
REMARK                            x       y       z     vdW  Elec       q    Type
REMARK                         _______ _______ _______ _____ _____    ______ ____
ROOT
ATOM      1  C   UNL     1       2.764  -2.175  -2.473  0.00  0.00    +0.107 C 
ATOM      2  C   UNL     1       3.973  -1.642  -1.702  0.00  0.00    +0.042 C 
ATOM      3  C   UNL     1       4.791  -2.816  -1.160  0.00  0.00    +0.068 C 
ATOM      4  C   UNL     1       5.267  -3.685  -2.325  0.00  0.00    +0.170 C 
ATOM      5  C   UNL     1       4.062  -4.216  -3.103  0.00  0.00    +0.068 C 
ATOM      6  C   UNL     1       3.244  -3.040  -3.641  0.00  0.00    +0.042 C 
ATOM      7  O   UNL     1       6.033  -4.790  -1.817  0.00  0.00    -0.346 OA
ATOM      8  C   UNL     1       7.075  -5.000  -2.800  0.00  0.00    +0.191 C 
ATOM      9  C   UNL     1       7.389  -3.549  -3.242  0.00  0.00    +0.191 C 
ATOM     10  O   UNL     1       6.098  -2.908  -3.198  0.00  0.00    -0.346 OA
ENDROOT
BRANCH   1  11
ATOM     11  N   UNL     1       1.977  -1.048  -2.990  0.00  0.00    -0.296 NA
ATOM     12  H   UNL     1       1.233  -1.372  -3.590  0.00  0.00    +0.124 HD
BRANCH  11  17
ATOM     13  C   UNL     1      -0.274   1.641  -0.274  0.00  0.00    +0.000 C 
ATOM     14  C   UNL     1       1.077   1.525   0.379  0.00  0.00    +0.000 C 
ATOM     15  C   UNL     1       2.232   1.805  -0.602  0.00  0.00    +0.002 C 
ATOM     16  C   UNL     1       2.009   1.165  -1.985  0.00  0.00    +0.019 C 
ATOM     17  C   UNL     1       1.448  -0.228  -1.892  0.00  0.00    +0.055 C 
ATOM     18  C   UNL     1      -0.088  -0.146  -2.000  0.00  0.00    +0.019 C 
ATOM     19  C   UNL     1      -0.713   0.239  -0.744  0.00  0.00    +0.002 C 
ENDBRANCH  11  17
ENDBRANCH   1  11
BRANCH   1  20
ATOM     20  C   UNL     1       1.928  -2.987  -1.574  0.00  0.00    +0.085 C 
ATOM     21  N   UNL     1       1.282  -3.613  -0.880  0.00  0.00    -0.195 NA
ENDBRANCH   1  20
TORSDOF 3
