REMARK  Name = ZINC54849442
REMARK  6 active torsions:
REMARK  status: ('A' for Active; 'I' for Inactive)
REMARK    1  A    between atoms: C_1  and  C_2
REMARK    2  A    between atoms: C_4  and  C_22
REMARK    3  A    between atoms: C_5  and  N_9
REMARK    4  A    between atoms: C_6  and  C_8
REMARK    5  A    between atoms: C_10  and  C_12
REMARK    6  A    between atoms: C_15  and  N_19
REMARK                            x       y       z     vdW  Elec       q    Type
REMARK                         _______ _______ _______ _____ _____    ______ ____
ROOT
ATOM      1  N   UNL     1       0.238  -4.138   0.377  0.00  0.00    -0.281 N 
ATOM      2  C   UNL     1       0.787  -4.888  -0.599  0.00  0.00    +0.251 C 
ATOM      3  O   UNL     1       1.114  -4.374  -1.651  0.00  0.00    -0.270 OA
ATOM      4  H   UNL     1      -0.082  -4.558   1.190  0.00  0.00    +0.155 HD
ENDROOT
BRANCH   1   9
ATOM      5  C   UNL     1      -0.203   1.480  -0.276  0.00  0.00    +0.044 C 
ATOM      6  C   UNL     1      -0.085  -0.012  -0.102  0.00  0.00    -0.050 A 
ATOM      7  C   UNL     1      -0.682  -0.862  -1.016  0.00  0.00    +0.008 A 
ATOM      8  C   UNL     1      -0.576  -2.230  -0.860  0.00  0.00    -0.029 A 
ATOM      9  C   UNL     1       0.130  -2.753   0.216  0.00  0.00    +0.040 A 
ATOM     10  C   UNL     1       0.728  -1.897   1.131  0.00  0.00    -0.029 A 
ATOM     11  C   UNL     1       0.624  -0.529   0.967  0.00  0.00    +0.008 A 
ATOM     12  C   UNL     1       1.495  -2.459   2.300  0.00  0.00    +0.045 C 
ATOM     13  C   UNL     1      -1.227  -3.155  -1.856  0.00  0.00    +0.045 C 
ENDBRANCH   1   9
BRANCH   2  14
ATOM     14  C   UNL     1       0.992  -6.336  -0.390  0.00  0.00    +0.072 A 
ATOM     15  C   UNL     1       0.613  -6.931   0.815  0.00  0.00    +0.018 A 
ATOM     16  C   UNL     1       0.806  -8.283   1.004  0.00  0.00    +0.033 A 
ATOM     17  C   UNL     1       1.375  -9.052   0.003  0.00  0.00    +0.129 A 
ATOM     18  C   UNL     1       1.754  -8.472  -1.193  0.00  0.00    +0.071 A 
ATOM     19  C   UNL     1       1.562  -7.118  -1.399  0.00  0.00    +0.138 A 
ATOM     20  F   UNL     1       1.927  -6.552  -2.571  0.00  0.00    -0.205 F 
BRANCH  17  21
ATOM     21  N   UNL     1       1.580 -10.503   0.215  0.00  0.00    +0.057 N 
ATOM     22  O   UNL     1       1.250 -11.013   1.260  0.00  0.00    -0.126 OA
ATOM     23  O   UNL     1       2.076 -11.177  -0.657  0.00  0.00    -0.126 OA
ENDBRANCH  17  21
ENDBRANCH   2  14
TORSDOF 3
