REMARK  Name = ZINC67226098
REMARK  6 active torsions:
REMARK  status: ('A' for Active; 'I' for Inactive)
REMARK    1  A    between atoms: C_1  and  C_2
REMARK    2  A    between atoms: N_16  and  C_19
REMARK    3  A    between atoms: C_19  and  C_20
REMARK    4  A    between atoms: N_22  and  C_23
REMARK    5  A    between atoms: C_23  and  C_24
REMARK    6  A    between atoms: C_24  and  C_25
REMARK                            x       y       z     vdW  Elec       q    Type
REMARK                         _______ _______ _______ _____ _____    ______ ____
ROOT
ATOM      1  C   UNL     1      -0.019   1.526   0.010  0.00  0.00    +0.009 C 
ATOM      2  C   UNL     1       0.002  -0.004   0.002  0.00  0.00    +0.003 C 
ATOM      3  C   UNL     1       0.720  -0.498  -1.256  0.00  0.00    +0.006 C 
ATOM      4  C   UNL     1       0.712  -2.028  -1.282  0.00  0.00    +0.019 C 
ATOM      5  C   UNL     1       1.463  -2.559  -0.057  0.00  0.00    +0.107 C 
ATOM      6  N   UNL     1       0.869  -1.973   1.153  0.00  0.00    -0.309 N 
ATOM      7  C   UNL     1       0.744  -0.512   1.242  0.00  0.00    +0.110 C 
ATOM      8  C   UNL     1       0.437  -2.779   2.183  0.00  0.00    +0.164 A 
ATOM      9  N   UNL     1      -0.116  -2.413   3.319  0.00  0.00    -0.205 NA
ATOM     10  C   UNL     1      -0.493  -3.298   4.242  0.00  0.00    +0.176 A 
ATOM     11  C   UNL     1      -0.242  -4.635   3.882  0.00  0.00    +0.124 A 
ATOM     12  S   UNL     1       0.489  -4.460   2.278  0.00  0.00    -0.045 S 
ATOM     13  C   UNL     1      -0.571  -5.687   4.726  0.00  0.00    +0.270 A 
ATOM     14  O   UNL     1      -0.350  -6.843   4.405  0.00  0.00    -0.266 OA
ATOM     15  N   UNL     1      -1.147  -5.390   5.917  0.00  0.00    -0.289 N 
ATOM     16  C   UNL     1      -1.378  -4.091   6.239  0.00  0.00    +0.204 A 
ATOM     17  N   UNL     1      -1.074  -3.101   5.459  0.00  0.00    -0.217 NA
ENDROOT
BRANCH  15  18
ATOM     18  C   UNL     1      -1.517  -6.460   6.847  0.00  0.00    +0.222 C 
BRANCH  18  19
ATOM     19  C   UNL     1      -0.358  -6.747   7.767  0.00  0.00    +0.233 C 
ATOM     20  O   UNL     1       0.674  -6.121   7.657  0.00  0.00    -0.274 OA
ATOM     21  N   UNL     1      -0.470  -7.701   8.713  0.00  0.00    -0.314 N 
ATOM     22  H   UNL     1      -1.296  -8.203   8.801  0.00  0.00    +0.149 HD
BRANCH  21  23
ATOM     23  C   UNL     1       0.656  -7.981   9.607  0.00  0.00    +0.108 C 
BRANCH  23  24
ATOM     24  C   UNL     1       0.270  -9.099  10.579  0.00  0.00    +0.049 C 
BRANCH  24  25
ATOM     25  C   UNL     1       1.428  -9.386  11.499  0.00  0.00    -0.072 C 
ATOM     26  C   UNL     1       1.446  -8.801  12.653  0.00  0.00    -0.028 C 
ATOM     27  C   UNL     1       2.536  -8.980  13.670  0.00  0.00    +0.027 C 
ATOM     28  C   UNL     1       3.358 -10.229  13.346  0.00  0.00    +0.004 C 
ATOM     29  C   UNL     1       3.755 -10.179  11.865  0.00  0.00    +0.005 C 
ATOM     30  C   UNL     1       2.486 -10.338  11.022  0.00  0.00    +0.030 C 
ENDBRANCH  24  25
ENDBRANCH  23  24
ENDBRANCH  21  23
ENDBRANCH  18  19
ENDBRANCH  15  18
TORSDOF 5
