REMARK  Name = ZINC59244645
REMARK  1 active torsions:
REMARK  status: ('A' for Active; 'I' for Inactive)
REMARK    1  A    between atoms: N_17  and  C_18
REMARK                            x       y       z     vdW  Elec       q    Type
REMARK                         _______ _______ _______ _____ _____    ______ ____
ROOT
ATOM      1  C   UNL     1       0.023   1.395  -0.065  0.00  0.00    +0.002 A 
ATOM      2  C   UNL     1       1.215   2.094  -0.051  0.00  0.00    +0.001 A 
ATOM      3  C   UNL     1       2.419   1.412  -0.022  0.00  0.00    +0.017 A 
ATOM      4  C   UNL     1       2.423   0.030  -0.007  0.00  0.00    +0.035 A 
ATOM      5  C   UNL     1       1.222  -0.682  -0.021  0.00  0.00    +0.057 A 
ATOM      6  C   UNL     1       0.022   0.011  -0.050  0.00  0.00    +0.025 A 
ATOM      7  N   UNL     1       1.228  -2.083  -0.002  0.00  0.00    -0.222 N 
ATOM      8  C   UNL     1       2.164  -2.808   0.748  0.00  0.00    +0.057 A 
ATOM      9  C   UNL     1       1.789  -3.977   1.392  0.00  0.00    +0.025 A 
ATOM     10  C   UNL     1       2.718  -4.686   2.132  0.00  0.00    +0.002 A 
ATOM     11  C   UNL     1       4.021  -4.238   2.235  0.00  0.00    +0.001 A 
ATOM     12  C   UNL     1       4.407  -3.072   1.596  0.00  0.00    +0.017 A 
ATOM     13  C   UNL     1       3.482  -2.359   0.855  0.00  0.00    +0.035 A 
ATOM     14  S   UNL     1       3.943  -0.869   0.029  0.00  0.00    -0.086 S 
ATOM     15  C   UNL     1       0.308  -2.752  -0.726  0.00  0.00    +0.312 C 
ATOM     16  O   UNL     1      -0.582  -2.145  -1.288  0.00  0.00    -0.252 OA
ATOM     17  N   UNL     1       0.376  -4.095  -0.826  0.00  0.00    -0.288 N 
ATOM     18  H   UNL     1       1.050  -4.584  -0.329  0.00  0.00    +0.151 HD
ENDROOT
BRANCH  17  19
ATOM     19  C   UNL     1      -0.568  -4.814  -1.684  0.00  0.00    +0.153 C 
ATOM     20  C   UNL     1       0.080  -6.118  -2.153  0.00  0.00    +0.042 C 
ATOM     21  C   UNL     1      -1.056  -7.096  -2.537  0.00  0.00    +0.079 C 
ATOM     22  S   UNL     1      -2.404  -6.560  -1.415  0.00  0.00    -0.086 S 
ATOM     23  C   UNL     1      -1.842  -5.063  -0.912  0.00  0.00    +0.210 C 
ATOM     24  O   UNL     1      -2.356  -4.328  -0.094  0.00  0.00    -0.283 OA
ENDBRANCH  17  19
TORSDOF 1
