REMARK  Name = ZINC57857587
REMARK  6 active torsions:
REMARK  status: ('A' for Active; 'I' for Inactive)
REMARK    1  A    between atoms: C_1  and  C_2
REMARK    2  A    between atoms: C_2  and  C_4
REMARK    3  A    between atoms: C_2  and  N_11
REMARK    4  A    between atoms: N_14  and  C_15
REMARK    5  A    between atoms: C_22  and  C_24
REMARK    6  A    between atoms: C_22  and  C_25
REMARK                            x       y       z     vdW  Elec       q    Type
REMARK                         _______ _______ _______ _____ _____    ______ ____
ROOT
ATOM      1  N   UNL     1      -1.426  -0.357   0.016  0.00  0.00    -0.293 N 
ATOM      2  C   UNL     1      -2.097  -0.501   1.176  0.00  0.00    +0.304 C 
ATOM      3  O   UNL     1      -1.623  -0.071   2.210  0.00  0.00    -0.252 OA
ATOM      4  N   UNL     1      -3.293  -1.122   1.190  0.00  0.00    -0.269 N 
ATOM      5  H   UNL     1      -1.804  -0.700  -0.809  0.00  0.00    +0.151 HD
ATOM      6  H   UNL     1      -3.707  -1.396   0.357  0.00  0.00    +0.156 HD
ENDROOT
BRANCH   4   7
ATOM      7  C   UNL     1      -3.939  -1.371   2.409  0.00  0.00    +0.038 A 
ATOM      8  C   UNL     1      -5.325  -1.347   2.477  0.00  0.00    +0.027 A 
ATOM      9  C   UNL     1      -5.963  -1.593   3.678  0.00  0.00    +0.051 A 
ATOM     10  C   UNL     1      -5.222  -1.864   4.817  0.00  0.00    +0.167 A 
ATOM     11  C   UNL     1      -3.831  -1.888   4.751  0.00  0.00    +0.169 A 
ATOM     12  C   UNL     1      -3.193  -1.647   3.546  0.00  0.00    +0.073 A 
ATOM     13  O   UNL     1      -3.341  -2.175   5.992  0.00  0.00    -0.448 OA
ATOM     14  C   UNL     1      -4.427  -1.922   6.903  0.00  0.00    +0.248 C 
ATOM     15  O   UNL     1      -5.603  -2.135   6.100  0.00  0.00    -0.448 OA
ATOM     16  C   UNL     1      -4.388  -2.908   8.073  0.00  0.00    +0.104 C 
ATOM     17  C   UNL     1      -4.377  -0.480   7.412  0.00  0.00    +0.104 C 
ENDBRANCH   4   7
BRANCH   1  19
ATOM     18  C   UNL     1      -0.337   1.830  -0.103  0.00  0.00    +0.033 C 
ATOM     19  C   UNL     1      -0.126   0.318   0.001  0.00  0.00    +0.102 C 
BRANCH  19  20
ATOM     20  C   UNL     1       0.674  -0.160  -1.183  0.00  0.00    -0.027 A 
ATOM     21  C   UNL     1       0.053  -0.360  -2.402  0.00  0.00    +0.007 A 
ATOM     22  C   UNL     1       0.786  -0.799  -3.488  0.00  0.00    +0.020 A 
ATOM     23  C   UNL     1       2.142  -1.038  -3.356  0.00  0.00    +0.041 A 
ATOM     24  C   UNL     1       2.764  -0.837  -2.137  0.00  0.00    +0.020 A 
ATOM     25  C   UNL     1       2.030  -0.393  -1.052  0.00  0.00    +0.007 A 
ATOM     26 CL   UNL     1       3.064  -1.589  -4.720  0.00  0.00    -0.084 Cl
ENDBRANCH  19  20
ENDBRANCH   1  19
TORSDOF 3
