REMARK  Name = ZINC13590594
REMARK  3 active torsions:
REMARK  status: ('A' for Active; 'I' for Inactive)
REMARK    1  A    between atoms: C_5  and  C_7
REMARK    2  A    between atoms: C_7  and  C_8
REMARK    3  A    between atoms: N_14  and  C_15
REMARK                            x       y       z     vdW  Elec       q    Type
REMARK                         _______ _______ _______ _____ _____    ______ ____
ROOT
ATOM      1  C   UNL     1       1.376  -2.702   1.411  0.00  0.00    +0.144 C 
ATOM      2  C   UNL     1       1.372  -4.222   1.452  0.00  0.00    +0.232 C 
ATOM      3  O   UNL     1       0.416  -4.874   1.088  0.00  0.00    -0.274 OA
ATOM      4  N   UNL     1       2.475  -4.788   1.909  0.00  0.00    -0.264 N 
ATOM      5  C   UNL     1       3.567  -4.054   2.324  0.00  0.00    +0.161 C 
ATOM      6  N   UNL     1       4.710  -4.497   2.793  0.00  0.00    -0.226 NA
ATOM      7  S   UNL     1       3.058  -2.359   2.075  0.00  0.00    -0.077 S 
ATOM      8  H   UNL     1       2.519  -5.756   1.954  0.00  0.00    +0.157 HD
ENDROOT
BRANCH   6   9
ATOM      9  C   UNL     1       5.689  -3.611   3.158  0.00  0.00    +0.067 A 
ATOM     10  C   UNL     1       5.995  -2.526   2.335  0.00  0.00    +0.029 A 
ATOM     11  C   UNL     1       6.982  -1.637   2.709  0.00  0.00    +0.022 A 
ATOM     12  C   UNL     1       7.668  -1.820   3.898  0.00  0.00    +0.041 A 
ATOM     13  C   UNL     1       7.369  -2.894   4.718  0.00  0.00    +0.022 A 
ATOM     14  C   UNL     1       6.380  -3.786   4.359  0.00  0.00    +0.029 A 
ATOM     15 CL   UNL     1       8.909  -0.697   4.361  0.00  0.00    -0.084 Cl
ENDBRANCH   6   9
BRANCH   1  16
ATOM     16  C   UNL     1       1.229  -2.186  -0.022  0.00  0.00    +0.060 C 
BRANCH  16  21
ATOM     17  C   UNL     1      -0.017   1.378   0.010  0.00  0.00    +0.000 A 
ATOM     18  C   UNL     1       1.171   2.086   0.002  0.00  0.00    +0.001 A 
ATOM     19  C   UNL     1       2.377   1.412  -0.013  0.00  0.00    +0.020 A 
ATOM     20  C   UNL     1       2.397   0.029  -0.021  0.00  0.00    +0.044 A 
ATOM     21  C   UNL     1       1.208  -0.679  -0.013  0.00  0.00    -0.028 A 
ATOM     22  C   UNL     1       0.002  -0.004   0.002  0.00  0.00    +0.005 A 
ATOM     23 CL   UNL     1       3.912  -0.818  -0.041  0.00  0.00    -0.083 Cl
ENDBRANCH  16  21
ENDBRANCH   1  16
TORSDOF 3
