REMARK  Name = ZINC05326725
REMARK  13 active torsions:
REMARK  status: ('A' for Active; 'I' for Inactive)
REMARK    1  A    between atoms: C_1  and  C_2
REMARK    2  A    between atoms: C_4  and  C_29
REMARK    3  A    between atoms: C_5  and  N_9
REMARK    4  A    between atoms: C_6  and  C_8
REMARK    5  A    between atoms: C_10  and  C_12
REMARK    6  A    between atoms: C_12  and  C_14
REMARK    7  A    between atoms: C_12  and  O_15
REMARK    8  A    between atoms: O_15  and  C_16
REMARK    9  A    between atoms: C_16  and  C_18
REMARK   10  A    between atoms: C_19  and  C_28
REMARK   11  A    between atoms: C_20  and  C_27
REMARK   12  A    between atoms: C_22  and  N_23
REMARK   13  A    between atoms: C_24  and  C_26
REMARK                            x       y       z     vdW  Elec       q    Type
REMARK                         _______ _______ _______ _____ _____    ______ ____
ROOT
ATOM      1  C   UNL     1      -0.254  -0.003  -0.554  0.00  0.00    +0.259 C 
ATOM      2  C   UNL     1      -1.563  -0.598  -1.078  0.00  0.00    +0.062 C 
ENDROOT
BRANCH   1   4
ATOM      3  N   UNL     1      -1.224   2.152   0.175  0.00  0.00    -0.282 N 
ATOM      4  C   UNL     1      -0.333   1.501  -0.598  0.00  0.00    +0.258 C 
ATOM      5  O   UNL     1       0.403   2.126  -1.333  0.00  0.00    -0.271 OA
ATOM      6  H   UNL     1      -1.862   1.651   0.707  0.00  0.00    +0.155 HD
BRANCH   3  11
ATOM      7  C   UNL     1      -1.248   7.823   0.318  0.00  0.00    +0.044 C 
ATOM      8  C   UNL     1      -1.242   6.317   0.280  0.00  0.00    -0.050 A 
ATOM      9  C   UNL     1      -0.064   5.626   0.497  0.00  0.00    +0.008 A 
ATOM     10  C   UNL     1      -0.054   4.245   0.463  0.00  0.00    -0.029 A 
ATOM     11  C   UNL     1      -1.230   3.551   0.210  0.00  0.00    +0.039 A 
ATOM     12  C   UNL     1      -2.410   4.248  -0.013  0.00  0.00    -0.029 A 
ATOM     13  C   UNL     1      -2.414   5.628   0.028  0.00  0.00    +0.008 A 
ATOM     14  C   UNL     1      -3.687   3.498  -0.294  0.00  0.00    +0.045 C 
ATOM     15  C   UNL     1       1.230   3.494   0.699  0.00  0.00    +0.045 C 
ENDBRANCH   3  11
ENDBRANCH   1   4
BRANCH   1  16
ATOM     16  O   UNL     1       0.849  -0.454  -1.384  0.00  0.00    -0.449 OA
BRANCH  16  17
ATOM     17  C   UNL     1       1.461  -1.599  -1.019  0.00  0.00    +0.343 C 
ATOM     18  O   UNL     1       1.083  -2.204  -0.033  0.00  0.00    -0.245 OA
BRANCH  17  19
ATOM     19  C   UNL     1       2.581  -2.115  -1.809  0.00  0.00    +0.091 A 
ATOM     20  C   UNL     1       3.946  -1.735  -1.527  0.00  0.00    -0.025 A 
ATOM     21  C   UNL     1       4.904  -2.267  -2.306  0.00  0.00    -0.008 A 
ATOM     22  S   UNL     1       3.990  -3.281  -3.449  0.00  0.00    -0.078 S 
ATOM     23  C   UNL     1       2.383  -2.989  -2.872  0.00  0.00    +0.086 A 
ATOM     24  C   UNL     1       6.394  -2.051  -2.233  0.00  0.00    +0.052 C 
ATOM     25  C   UNL     1       4.281  -0.789  -0.404  0.00  0.00    +0.045 C 
BRANCH  23  26
ATOM     26  N   UNL     1       1.189  -3.502  -3.354  0.00  0.00    -0.280 N 
ATOM     27  C   UNL     1       1.194  -4.346  -4.405  0.00  0.00    +0.214 C 
ATOM     28  O   UNL     1       2.242  -4.656  -4.929  0.00  0.00    -0.276 OA
ATOM     29  C   UNL     1      -0.105  -4.904  -4.929  0.00  0.00    +0.109 C 
ATOM     30  H   UNL     1       0.350  -3.255  -2.935  0.00  0.00    +0.155 HD
ENDBRANCH  23  26
ENDBRANCH  17  19
ENDBRANCH  16  17
ENDBRANCH   1  16
TORSDOF 6
