REMARK  Name = ZINC40976196
REMARK  9 active torsions:
REMARK  status: ('A' for Active; 'I' for Inactive)
REMARK    1  A    between atoms: C_1  and  C_2
REMARK    2  A    between atoms: C_6  and  C_29
REMARK    3  A    between atoms: C_7  and  C_8
REMARK    4  A    between atoms: C_8  and  N_9
REMARK    5  A    between atoms: N_9  and  C_10
REMARK    6  A    between atoms: C_12  and  N_22
REMARK    7  A    between atoms: C_17  and  C_21
REMARK    8  A    between atoms: C_18  and  C_19
REMARK    9  A    between atoms: C_19  and  O_20
REMARK                            x       y       z     vdW  Elec       q    Type
REMARK                         _______ _______ _______ _____ _____    ______ ____
ROOT
ATOM      1  C   UNL     1      -1.613   0.799   4.231  0.00  0.00    +0.071 A 
ATOM      2  C   UNL     1      -0.579   1.260   4.995  0.00  0.00    +0.054 A 
ATOM      3  C   UNL     1      -0.848   2.086   6.103  0.00  0.00    +0.068 A 
ATOM      4  C   UNL     1      -2.125   2.423   6.410  0.00  0.00    +0.119 A 
ATOM      5  N   UNL     1      -3.168   1.966   5.651  0.00  0.00    -0.299 N 
ATOM      6  C   UNL     1      -2.939   1.167   4.564  0.00  0.00    +0.137 A 
ATOM      7  N   UNL     1      -4.109   0.878   4.011  0.00  0.00    -0.342 N 
ATOM      8  C   UNL     1      -5.080   1.473   4.707  0.00  0.00    +0.037 A 
ATOM      9  C   UNL     1      -4.521   2.148   5.737  0.00  0.00    +0.069 A 
ATOM     10  C   UNL     1      -6.554   1.394   4.404  0.00  0.00    +0.065 C 
ATOM     11  H   UNL     1      -4.238   0.324   3.226  0.00  0.00    +0.167 HD
ENDROOT
BRANCH   3  12
ATOM     12  N   UNL     1       0.208   2.562   6.893  0.00  0.00    -0.283 N 
ATOM     13  C   UNL     1       0.293   2.191   8.197  0.00  0.00    +0.095 A 
ATOM     14  C   UNL     1       1.304   2.638   8.978  0.00  0.00    +0.018 A 
ATOM     15  C   UNL     1       2.277   3.492   8.442  0.00  0.00    +0.007 A 
ATOM     16  C   UNL     1       2.190   3.864   7.132  0.00  0.00    +0.071 A 
ATOM     17  C   UNL     1       1.131   3.378   6.348  0.00  0.00    +0.256 A 
ATOM     18  O   UNL     1       1.044   3.700   5.173  0.00  0.00    -0.267 OA
ENDBRANCH   3  12
BRANCH   1  19
ATOM     19  N   UNL     1      -1.364  -0.021   3.128  0.00  0.00    -0.337 N 
ATOM     20  H   UNL     1      -2.102  -0.343   2.587  0.00  0.00    +0.147 HD
BRANCH  19  21
ATOM     21  C   UNL     1       0.011  -0.397   2.790  0.00  0.00    +0.137 C 
BRANCH  21  28
ATOM     22  C   UNL     1       0.198   0.779   0.158  0.00  0.00    +0.044 C 
ATOM     23  C   UNL     1       0.094  -0.717   0.309  0.00  0.00    -0.046 A 
ATOM     24  C   UNL     1       0.094  -1.526  -0.811  0.00  0.00    +0.004 A 
ATOM     25  C   UNL     1      -0.001  -2.898  -0.673  0.00  0.00    +0.001 A 
ATOM     26  C   UNL     1      -0.096  -3.461   0.587  0.00  0.00    +0.004 A 
ATOM     27  C   UNL     1      -0.095  -2.651   1.707  0.00  0.00    -0.046 A 
ATOM     28  C   UNL     1       0.004  -1.279   1.568  0.00  0.00    -0.025 A 
ATOM     29  C   UNL     1      -0.199  -3.264   3.080  0.00  0.00    +0.044 C 
ENDBRANCH  21  28
ENDBRANCH  19  21
ENDBRANCH   1  19
BRANCH   9  30
ATOM     30  C   UNL     1      -5.250   2.963   6.773  0.00  0.00    +0.211 C 
BRANCH  30  31
ATOM     31  O   UNL     1      -5.384   4.309   6.312  0.00  0.00    -0.389 OA
ATOM     32  H   UNL     1      -5.845   4.893   6.931  0.00  0.00    +0.210 HD
ENDBRANCH  30  31
ENDBRANCH   9  30
TORSDOF 6
