REMARK  Name = ZINC02956841
REMARK  12 active torsions:
REMARK  status: ('A' for Active; 'I' for Inactive)
REMARK    1  A    between atoms: C_1  and  C_2
REMARK    2  A    between atoms: C_2  and  C_3
REMARK    3  A    between atoms: C_6  and  N_9
REMARK    4  A    between atoms: C_13  and  C_37
REMARK    5  A    between atoms: C_14  and  C_32
REMARK    6  A    between atoms: N_17  and  C_20
REMARK    7  A    between atoms: C_20  and  C_21
REMARK    8  A    between atoms: N_23  and  C_24
REMARK    9  A    between atoms: C_24  and  C_25
REMARK   10  A    between atoms: C_25  and  C_26
REMARK   11  A    between atoms: N_34  and  C_35
REMARK   12  A    between atoms: N_34  and  C_36
REMARK                            x       y       z     vdW  Elec       q    Type
REMARK                         _______ _______ _______ _____ _____    ______ ____
ROOT
ATOM      1  N   UNL     1      -1.237   2.067   0.138  0.00  0.00    -0.228 N 
ATOM      2  C   UNL     1      -1.245   3.408   0.048  0.00  0.00    +0.270 A 
ATOM      3  O   UNL     1      -0.215   4.017  -0.176  0.00  0.00    -0.266 OA
ATOM      4  C   UNL     1      -2.525   4.137   0.220  0.00  0.00    +0.075 A 
ATOM      5  C   UNL     1      -2.764   5.514   0.165  0.00  0.00    -0.017 A 
ATOM      6  C   UNL     1      -4.037   5.963   0.363  0.00  0.00    +0.080 A 
ATOM      7  S   UNL     1      -4.947   4.453   0.634  0.00  0.00    -0.065 S 
ATOM      8  C   UNL     1      -3.646   3.332   0.480  0.00  0.00    +0.098 A 
ATOM      9  N   UNL     1      -3.543   1.975   0.558  0.00  0.00    -0.278 N 
ATOM     10  C   UNL     1      -2.354   1.365   0.389  0.00  0.00    +0.338 A 
ATOM     11  O   UNL     1      -2.291   0.153   0.464  0.00  0.00    -0.246 OA
ATOM     12  C   UNL     1      -1.640   6.481  -0.105  0.00  0.00    +0.046 C 
ENDROOT
BRANCH   1  16
ATOM     13  C   UNL     1       2.358   0.017  -0.363  0.00  0.00    -0.047 A 
ATOM     14  C   UNL     1       1.786   0.110   0.892  0.00  0.00    +0.005 A 
ATOM     15  C   UNL     1       0.596   0.790   1.062  0.00  0.00    +0.026 A 
ATOM     16  C   UNL     1      -0.026   1.381  -0.030  0.00  0.00    +0.054 A 
ATOM     17  C   UNL     1       0.551   1.286  -1.289  0.00  0.00    +0.026 A 
ATOM     18  C   UNL     1       1.742   0.605  -1.452  0.00  0.00    +0.005 A 
BRANCH  13  20
ATOM     19  C   UNL     1       3.366  -2.196  -0.849  0.00  0.00    +0.009 C 
ATOM     20  C   UNL     1       3.657  -0.725  -0.544  0.00  0.00    +0.032 C 
ENDBRANCH  13  20
ENDBRANCH   1  16
BRANCH   6  21
ATOM     21  C   UNL     1      -4.534   7.341   0.354  0.00  0.00    +0.253 C 
ATOM     22  O   UNL     1      -3.750   8.270   0.302  0.00  0.00    -0.269 OA
ATOM     23  N   UNL     1      -5.860   7.580   0.404  0.00  0.00    -0.303 N 
ATOM     24  C   UNL     1      -6.358   8.957   0.364  0.00  0.00    +0.132 C 
ATOM     25  C   UNL     1      -6.802   6.462   0.498  0.00  0.00    +0.132 C 
ENDBRANCH   6  21
BRANCH   9  26
ATOM     26  C   UNL     1      -4.737   1.171   0.831  0.00  0.00    +0.223 C 
BRANCH  26  27
ATOM     27  C   UNL     1      -4.896   0.996   2.319  0.00  0.00    +0.233 C 
ATOM     28  O   UNL     1      -4.091   1.493   3.077  0.00  0.00    -0.274 OA
ATOM     29  N   UNL     1      -5.933   0.287   2.807  0.00  0.00    -0.314 N 
ATOM     30  H   UNL     1      -6.577  -0.111   2.200  0.00  0.00    +0.149 HD
BRANCH  29  31
ATOM     31  C   UNL     1      -6.087   0.116   4.254  0.00  0.00    +0.108 C 
BRANCH  31  32
ATOM     32  C   UNL     1      -7.335  -0.723   4.538  0.00  0.00    +0.049 C 
BRANCH  32  33
ATOM     33  C   UNL     1      -7.494  -0.898   6.027  0.00  0.00    -0.072 C 
ATOM     34  C   UNL     1      -8.268  -0.073   6.655  0.00  0.00    -0.028 C 
ATOM     35  C   UNL     1      -8.518  -0.116   8.134  0.00  0.00    +0.027 C 
ATOM     36  C   UNL     1      -8.095  -1.473   8.702  0.00  0.00    +0.004 C 
ATOM     37  C   UNL     1      -6.681  -1.790   8.199  0.00  0.00    +0.005 C 
ATOM     38  C   UNL     1      -6.749  -2.021   6.686  0.00  0.00    +0.030 C 
ENDBRANCH  32  33
ENDBRANCH  31  32
ENDBRANCH  29  31
ENDBRANCH  26  27
ENDBRANCH   9  26
TORSDOF 8
