REMARK  Name = ZINC39884224
REMARK  4 active torsions:
REMARK  status: ('A' for Active; 'I' for Inactive)
REMARK    1  A    between atoms: C_1  and  C_2
REMARK    2  A    between atoms: C_5  and  N_11
REMARK    3  A    between atoms: C_6  and  N_8
REMARK    4  A    between atoms: C_12  and  C_14
REMARK                            x       y       z     vdW  Elec       q    Type
REMARK                         _______ _______ _______ _____ _____    ______ ____
ROOT
ATOM      1  N   UNL     1       0.038  -3.999  -0.027  0.00  0.00    -0.280 N 
ATOM      2  C   UNL     1      -0.100  -4.617  -1.217  0.00  0.00    +0.249 C 
ATOM      3  O   UNL     1      -0.138  -3.961  -2.241  0.00  0.00    -0.270 OA
ATOM      4  H   UNL     1       0.150  -4.524   0.781  0.00  0.00    +0.155 HD
ENDROOT
BRANCH   2   5
ATOM      5  C   UNL     1      -0.203  -6.083  -1.278  0.00  0.00    +0.047 A 
ATOM      6  C   UNL     1      -0.169  -6.849  -0.135  0.00  0.00    +0.058 A 
ATOM      7  S   UNL     1      -0.317  -8.427  -0.692  0.00  0.00    -0.101 S 
ATOM      8  C   UNL     1      -0.429  -8.121  -2.431  0.00  0.00    -0.006 A 
ATOM      9  C   UNL     1      -0.352  -6.775  -2.544  0.00  0.00    -0.025 A 
ATOM     10  C   UNL     1      -0.414  -6.092  -3.902  0.00  0.00    +0.037 C 
ATOM     11  C   UNL     1      -0.118  -7.130  -4.987  0.00  0.00    +0.005 C 
ATOM     12  C   UNL     1      -1.027  -8.349  -4.805  0.00  0.00    +0.005 C 
ATOM     13  C   UNL     1      -0.582  -9.110  -3.544  0.00  0.00    +0.043 C 
ENDBRANCH   2   5
BRANCH   1  18
ATOM     14  C   UNL     1      -0.040   1.666   0.256  0.00  0.00    +0.044 C 
ATOM     15  C   UNL     1      -0.019   0.161   0.181  0.00  0.00    -0.048 A 
ATOM     16  C   UNL     1      -0.652  -0.487  -0.864  0.00  0.00    +0.005 A 
ATOM     17  C   UNL     1      -0.635  -1.865  -0.936  0.00  0.00    +0.026 A 
ATOM     18  C   UNL     1       0.019  -2.603   0.043  0.00  0.00    +0.064 A 
ATOM     19  C   UNL     1       0.654  -1.950   1.091  0.00  0.00    +0.148 A 
ATOM     20  C   UNL     1       0.638  -0.570   1.154  0.00  0.00    +0.038 A 
BRANCH  19  21
ATOM     21  N   UNL     1       1.352  -2.731   2.136  0.00  0.00    +0.058 N 
ATOM     22  O   UNL     1       1.822  -2.169   3.098  0.00  0.00    -0.126 OA
ATOM     23  O   UNL     1       1.452  -3.931   2.028  0.00  0.00    -0.126 OA
ENDBRANCH  19  21
ENDBRANCH   1  18
TORSDOF 3
