REMARK  Name = ZINC09331308
REMARK  3 active torsions:
REMARK  status: ('A' for Active; 'I' for Inactive)
REMARK    1  A    between atoms: C_1  and  C_2
REMARK    2  A    between atoms: C_5  and  C_8
REMARK    3  A    between atoms: C_13  and  C_23
REMARK                            x       y       z     vdW  Elec       q    Type
REMARK                         _______ _______ _______ _____ _____    ______ ____
ROOT
ATOM      1  C   UNL     1      -0.076   5.774   0.032  0.00  0.00    +0.157 C 
ATOM      2  C   UNL     1      -0.646   6.233   1.361  0.00  0.00    +0.129 C 
ATOM      3  C   UNL     1      -0.063   5.866   2.509  0.00  0.00    +0.144 C 
ATOM      4  C   UNL     1      -0.608   6.311   3.840  0.00  0.00    +0.078 C 
ATOM      5  C   UNL     1      -2.122   6.510   3.727  0.00  0.00    -0.002 C 
ATOM      6  C   UNL     1      -2.407   7.532   2.623  0.00  0.00    +0.055 C 
ATOM      7  C   UNL     1      -1.798   7.047   1.330  0.00  0.00    +0.036 C 
ATOM      8  N   UNL     1      -2.345   7.386   0.193  0.00  0.00    -0.219 NA
ATOM      9  C   UNL     1      -1.892   7.013  -1.024  0.00  0.00    +0.249 A 
ATOM     10  N   UNL     1      -0.791   6.228  -1.167  0.00  0.00    -0.221 N 
ATOM     11  N   UNL     1      -0.601   6.034  -2.537  0.00  0.00    -0.156 NA
ATOM     12  C   UNL     1      -1.558   6.684  -3.148  0.00  0.00    +0.247 A 
ATOM     13  N   UNL     1      -2.337   7.275  -2.247  0.00  0.00    -0.198 NA
ATOM     14  C   UNL     1      -2.672   7.027   5.058  0.00  0.00    +0.008 C 
ATOM     15  O   UNL     1       1.035   5.082   2.473  0.00  0.00    -0.297 OA
ENDROOT
BRANCH   1  20
ATOM     16  C   UNL     1       0.002  -0.004   0.002  0.00  0.00    +0.044 C 
ATOM     17  C   UNL     1      -0.018   1.503   0.010  0.00  0.00    -0.050 A 
ATOM     18  C   UNL     1      -1.225   2.178   0.020  0.00  0.00    +0.004 A 
ATOM     19  C   UNL     1      -1.244   3.560   0.032  0.00  0.00    +0.006 A 
ATOM     20  C   UNL     1      -0.056   4.267   0.025  0.00  0.00    -0.022 A 
ATOM     21  C   UNL     1       1.151   3.592   0.010  0.00  0.00    +0.006 A 
ATOM     22  C   UNL     1       1.169   2.210   0.003  0.00  0.00    +0.004 A 
ENDBRANCH   1  20
TORSDOF 1
