REMARK  Name = ZINC56519449
REMARK  9 active torsions:
REMARK  status: ('A' for Active; 'I' for Inactive)
REMARK    1  A    between atoms: C_1  and  C_2
REMARK    2  A    between atoms: C_3  and  N_15
REMARK    3  A    between atoms: N_6  and  C_9
REMARK    4  A    between atoms: N_7  and  C_8
REMARK    5  A    between atoms: N_18  and  C_19
REMARK    6  A    between atoms: C_19  and  C_21
REMARK    7  A    between atoms: C_19  and  C_22
REMARK    8  A    between atoms: C_22  and  C_23
REMARK    9  A    between atoms: C_26  and  O_29
REMARK                            x       y       z     vdW  Elec       q    Type
REMARK                         _______ _______ _______ _____ _____    ______ ____
ROOT
ATOM      1  N   UNL     1      -0.407  -0.857  -2.371  0.00  0.00    -0.264 N 
ATOM      2  C   UNL     1      -0.319  -1.969  -3.128  0.00  0.00    +0.304 C 
ATOM      3  O   UNL     1       0.041  -3.018  -2.629  0.00  0.00    -0.252 OA
ATOM      4  N   UNL     1      -0.629  -1.918  -4.439  0.00  0.00    -0.296 N 
ATOM      5  H   UNL     1      -0.623  -0.006  -2.783  0.00  0.00    +0.157 HD
ATOM      6  H   UNL     1      -0.917  -1.081  -4.837  0.00  0.00    +0.151 HD
ENDROOT
BRANCH   1   9
ATOM      7  C   UNL     1      -2.426   0.026  -0.244  0.00  0.00    +0.067 C 
ATOM      8  C   UNL     1      -1.053  -0.552  -0.017  0.00  0.00    +0.059 A 
ATOM      9  C   UNL     1      -0.186  -0.932  -0.981  0.00  0.00    +0.122 A 
ATOM     10  C   UNL     1       0.987  -1.420  -0.348  0.00  0.00    +0.293 A 
ATOM     11  O   UNL     1       1.980  -1.847  -0.908  0.00  0.00    -0.264 OA
ATOM     12  N   UNL     1       0.803  -1.324   0.984  0.00  0.00    -0.216 N 
ATOM     13  N   UNL     1      -0.468  -0.776   1.203  0.00  0.00    -0.282 N 
ATOM     14  C   UNL     1      -1.069  -0.496   2.509  0.00  0.00    +0.171 C 
BRANCH  12  15
ATOM     15  C   UNL     1       1.720  -1.698   1.971  0.00  0.00    +0.067 A 
ATOM     16  C   UNL     1       1.308  -2.479   3.044  0.00  0.00    +0.028 A 
ATOM     17  C   UNL     1       2.217  -2.847   4.017  0.00  0.00    +0.002 A 
ATOM     18  C   UNL     1       3.535  -2.439   3.925  0.00  0.00    +0.000 A 
ATOM     19  C   UNL     1       3.948  -1.663   2.858  0.00  0.00    +0.002 A 
ATOM     20  C   UNL     1       3.046  -1.296   1.879  0.00  0.00    +0.028 A 
ENDBRANCH  12  15
ENDBRANCH   1   9
BRANCH   4  21
ATOM     21  C   UNL     1      -0.533  -3.126  -5.262  0.00  0.00    +0.076 C 
ATOM     22  C   UNL     1       0.904  -3.292  -5.759  0.00  0.00    +0.028 C 
BRANCH  21  23
ATOM     23  C   UNL     1      -1.477  -3.003  -6.460  0.00  0.00    +0.057 C 
BRANCH  23  24
ATOM     24  C   UNL     1      -2.903  -2.964  -5.975  0.00  0.00    -0.045 A 
ATOM     25  C   UNL     1      -3.613  -4.141  -5.823  0.00  0.00    +0.007 A 
ATOM     26  C   UNL     1      -4.921  -4.107  -5.379  0.00  0.00    +0.045 A 
ATOM     27  C   UNL     1      -5.521  -2.892  -5.084  0.00  0.00    +0.117 A 
ATOM     28  C   UNL     1      -4.806  -1.713  -5.237  0.00  0.00    +0.045 A 
ATOM     29  C   UNL     1      -3.497  -1.752  -5.676  0.00  0.00    +0.007 A 
BRANCH  27  30
ATOM     30  O   UNL     1      -6.807  -2.857  -4.647  0.00  0.00    -0.507 OA
ATOM     31  H   UNL     1      -6.898  -2.909  -3.686  0.00  0.00    +0.292 HD
ENDBRANCH  27  30
ENDBRANCH  23  24
ENDBRANCH  21  23
ENDBRANCH   4  21
TORSDOF 6
