REMARK  Name = ZINC06788272
REMARK  6 active torsions:
REMARK  status: ('A' for Active; 'I' for Inactive)
REMARK    1  A    between atoms: C_1  and  C_2
REMARK    2  A    between atoms: C_7  and  C_8
REMARK    3  A    between atoms: C_8  and  N_9
REMARK    4  A    between atoms: C_14  and  C_21
REMARK    5  A    between atoms: C_17  and  C_19
REMARK    6  A    between atoms: C_17  and  C_20
REMARK                            x       y       z     vdW  Elec       q    Type
REMARK                         _______ _______ _______ _____ _____    ______ ____
ROOT
ATOM      1  N   UNL     1      -2.038   2.644   0.581  0.00  0.00    -0.220 N 
ATOM      2  C   UNL     1      -0.949   2.064   1.128  0.00  0.00    +0.247 C 
ATOM      3  O   UNL     1      -0.678   1.977   2.306  0.00  0.00    -0.273 OA
ATOM      4  C   UNL     1      -0.141   1.544  -0.038  0.00  0.00    +0.113 C 
ATOM      5  C   UNL     1       1.229   2.213  -0.077  0.00  0.00    +0.038 C 
ATOM      6  C   UNL     1       2.016   1.698  -1.285  0.00  0.00    -0.011 C 
ATOM      7  C   UNL     1       2.174   0.180  -1.179  0.00  0.00    +0.009 C 
ATOM      8  C   UNL     1       0.794  -0.479  -1.162  0.00  0.00    -0.032 C 
ATOM      9  C   UNL     1       0.002   0.028   0.046  0.00  0.00    +0.041 C 
ATOM     10  C   UNL     1       0.954  -1.997  -1.066  0.00  0.00    +0.011 C 
ATOM     11  C   UNL     1       0.044  -0.126  -2.449  0.00  0.00    +0.011 C 
ATOM     12  C   UNL     1       3.398   2.355  -1.311  0.00  0.00    +0.007 C 
ATOM     13  N   UNL     1      -0.931   1.921  -1.217  0.00  0.00    -0.285 N 
ATOM     14  C   UNL     1      -2.023   2.560  -0.755  0.00  0.00    +0.310 C 
ATOM     15  O   UNL     1      -2.896   3.010  -1.470  0.00  0.00    -0.252 OA
ATOM     16  H   UNL     1      -0.710   1.745  -2.145  0.00  0.00    +0.151 HD
ENDROOT
BRANCH   1  17
ATOM     17  C   UNL     1      -3.104   3.287   1.354  0.00  0.00    +0.153 C 
BRANCH  17  24
ATOM     18  C   UNL     1      -5.500   4.100   2.749  0.00  0.00    +0.044 C 
ATOM     19  C   UNL     1      -5.295   2.652   2.383  0.00  0.00    -0.046 A 
ATOM     20  C   UNL     1      -6.256   1.714   2.711  0.00  0.00    +0.003 A 
ATOM     21  C   UNL     1      -6.066   0.385   2.380  0.00  0.00    +0.000 A 
ATOM     22  C   UNL     1      -4.917  -0.004   1.717  0.00  0.00    +0.000 A 
ATOM     23  C   UNL     1      -3.959   0.934   1.385  0.00  0.00    +0.005 A 
ATOM     24  C   UNL     1      -4.149   2.263   1.716  0.00  0.00    -0.027 A 
ENDBRANCH  17  24
ENDBRANCH   1  17
TORSDOF 2
