REMARK  Name = ZINC45795940
REMARK  2 active torsions:
REMARK  status: ('A' for Active; 'I' for Inactive)
REMARK    1  A    between atoms: N_9  and  C_12
REMARK    2  A    between atoms: C_12  and  C_13
REMARK                            x       y       z     vdW  Elec       q    Type
REMARK                         _______ _______ _______ _____ _____    ______ ____
ROOT
ATOM      1  C   UNL     1      -0.017   1.382   0.010  0.00  0.00    +0.001 A 
ATOM      2  C   UNL     1       1.165   2.099   0.002  0.00  0.00    +0.001 A 
ATOM      3  C   UNL     1       2.385   1.442  -0.013  0.00  0.00    +0.014 A 
ATOM      4  C   UNL     1       2.420   0.056  -0.021  0.00  0.00    +0.049 A 
ATOM      5  C   UNL     1       1.215  -0.675  -0.013  0.00  0.00    +0.049 A 
ATOM      6  C   UNL     1       0.002  -0.004   0.002  0.00  0.00    +0.014 A 
ATOM      7  C   UNL     1       1.606  -2.100  -0.025  0.00  0.00    +0.254 C 
ATOM      8  O   UNL     1       0.843  -3.045  -0.023  0.00  0.00    -0.270 OA
ATOM      9  N   UNL     1       2.949  -2.175  -0.039  0.00  0.00    -0.230 N 
ATOM     10  C   UNL     1       3.503  -0.949  -0.038  0.00  0.00    +0.254 C 
ATOM     11  O   UNL     1       4.693  -0.709  -0.049  0.00  0.00    -0.270 OA
ENDROOT
BRANCH   9  12
ATOM     12  C   UNL     1       3.709  -3.428  -0.053  0.00  0.00    +0.152 C 
BRANCH  12  13
ATOM     13  C   UNL     1       3.955  -3.850  -1.479  0.00  0.00    -0.029 A 
ATOM     14  C   UNL     1       3.042  -4.660  -2.129  0.00  0.00    +0.007 A 
ATOM     15  C   UNL     1       3.265  -5.048  -3.433  0.00  0.00    +0.023 A 
ATOM     16  C   UNL     1       4.413  -4.627  -4.107  0.00  0.00    +0.030 A 
ATOM     17  C   UNL     1       5.321  -3.814  -3.447  0.00  0.00    -0.025 A 
ATOM     18  C   UNL     1       5.091  -3.424  -2.141  0.00  0.00    +0.010 A 
ATOM     19  C   UNL     1       6.462  -3.503  -4.389  0.00  0.00    +0.055 C 
ATOM     20  C   UNL     1       6.101  -4.241  -5.689  0.00  0.00    +0.106 C 
ATOM     21  N   UNL     1       4.823  -4.902  -5.413  0.00  0.00    -0.343 N 
ATOM     22  H   UNL     1       4.333  -5.450  -6.045  0.00  0.00    +0.146 HD
ENDBRANCH  12  13
ENDBRANCH   9  12
TORSDOF 2
