REMARK  Name = ZINC39684710
REMARK  8 active torsions:
REMARK  status: ('A' for Active; 'I' for Inactive)
REMARK    1  A    between atoms: C_1  and  C_2
REMARK    2  A    between atoms: C_2  and  C_4
REMARK    3  A    between atoms: C_2  and  N_8
REMARK    4  A    between atoms: C_4  and  C_5
REMARK    5  A    between atoms: C_4  and  C_6
REMARK    6  A    between atoms: C_4  and  C_7
REMARK    7  A    between atoms: C_9  and  C_11
REMARK    8  A    between atoms: C_22  and  C_24
REMARK                            x       y       z     vdW  Elec       q    Type
REMARK                         _______ _______ _______ _____ _____    ______ ____
ROOT
ATOM      1  C   UNL     1       2.772  -1.098   2.390  0.00  0.00    +0.100 C 
ATOM      2  C   UNL     1       2.275  -2.505   2.791  0.00  0.00    +0.121 C 
ATOM      3  N   UNL     1       3.224  -3.438   2.139  0.00  0.00    -0.295 N 
ATOM      4  C   UNL     1       4.546  -2.783   2.288  0.00  0.00    +0.115 C 
ATOM      5  C   UNL     1       4.263  -1.284   2.063  0.00  0.00    -0.004 C 
ATOM      6  C   UNL     1       5.118  -0.439   3.002  0.00  0.00    -0.010 C 
ATOM      7  C   UNL     1       6.593  -0.594   2.621  0.00  0.00    -0.082 C 
ATOM      8  N   UNL     1       6.789  -0.167   1.230  0.00  0.00    +0.379 N 
ATOM      9  C   UNL     1       6.035  -1.044   0.326  0.00  0.00    -0.082 C 
ATOM     10  C   UNL     1       4.537  -0.907   0.611  0.00  0.00    -0.010 C 
ATOM     11  C   UNL     1       2.949  -4.615   1.544  0.00  0.00    +0.265 C 
ATOM     12  O   UNL     1       1.795  -4.974   1.413  0.00  0.00    -0.268 OA
ATOM     13  H   UNL     1       6.465   0.783   1.123  0.00  0.00    -0.086 HD
ATOM     14  H   UNL     1       7.770  -0.212   1.001  0.00  0.00    -0.086 HD
ENDROOT
BRANCH  11  15
ATOM     15  C   UNL     1       4.053  -5.473   1.050  0.00  0.00    +0.126 A 
ATOM     16  C   UNL     1       3.746  -6.637   0.330  0.00  0.00    +0.033 A 
ATOM     17  C   UNL     1       4.753  -7.435  -0.131  0.00  0.00    +0.012 A 
ATOM     18  C   UNL     1       6.081  -7.053   0.137  0.00  0.00    +0.000 A 
ATOM     19  C   UNL     1       7.166  -7.826  -0.307  0.00  0.00    +0.010 A 
ATOM     20  C   UNL     1       8.437  -7.426  -0.029  0.00  0.00    +0.001 A 
ATOM     21  C   UNL     1       8.678  -6.257   0.692  0.00  0.00    +0.002 A 
ATOM     22  C   UNL     1       7.653  -5.483   1.138  0.00  0.00    +0.028 A 
ATOM     23  C   UNL     1       6.324  -5.863   0.871  0.00  0.00    +0.072 A 
ATOM     24  N   UNL     1       5.300  -5.120   1.292  0.00  0.00    -0.242 NA
ENDBRANCH  11  15
BRANCH   1  26
ATOM     25  N   UNL     1       1.814   0.714   1.005  0.00  0.00    -0.312 N 
ATOM     26  C   UNL     1       2.026  -0.606   1.176  0.00  0.00    +0.218 C 
ATOM     27  O   UNL     1       1.617  -1.397   0.353  0.00  0.00    -0.275 OA
ATOM     28  H   UNL     1       2.141   1.347   1.663  0.00  0.00    +0.149 HD
BRANCH  25  30
ATOM     29  C   UNL     1       2.064   1.348  -1.344  0.00  0.00    +0.028 C 
ATOM     30  C   UNL     1       1.090   1.193  -0.175  0.00  0.00    +0.075 C 
BRANCH  30  31
ATOM     31  C   UNL     1       0.447   2.546   0.136  0.00  0.00    -0.020 C 
ATOM     32  C   UNL     1      -0.309   3.046  -1.096  0.00  0.00    +0.012 C 
ATOM     33  C   UNL     1      -0.528   2.392   1.305  0.00  0.00    +0.012 C 
ATOM     34  C   UNL     1       1.536   3.554   0.510  0.00  0.00    +0.012 C 
ENDBRANCH  30  31
ENDBRANCH  25  30
ENDBRANCH   1  26
TORSDOF 4
