REMARK  Name = ZINC48367793
REMARK  7 active torsions:
REMARK  status: ('A' for Active; 'I' for Inactive)
REMARK    1  A    between atoms: C_1  and  N_2
REMARK    2  A    between atoms: N_2  and  C_3
REMARK    3  A    between atoms: N_2  and  C_10
REMARK    4  A    between atoms: C_3  and  C_4
REMARK    5  A    between atoms: C_10  and  C_11
REMARK    6  A    between atoms: N_13  and  C_14
REMARK    7  A    between atoms: C_19  and  N_20
REMARK                            x       y       z     vdW  Elec       q    Type
REMARK                         _______ _______ _______ _____ _____    ______ ____
ROOT
ATOM      1  C   UNL     1      -2.070  -0.135  -1.268  0.00  0.00    +0.201 C 
ATOM      2  O   UNL     1      -1.475   0.519  -2.098  0.00  0.00    -0.278 OA
ATOM      3  N   UNL     1      -3.352  -0.491  -1.484  0.00  0.00    -0.285 N 
ATOM      4  H   UNL     1      -3.808  -1.068  -0.851  0.00  0.00    +0.155 HD
ENDROOT
BRANCH   3   5
ATOM      5  C   UNL     1      -4.025  -0.028  -2.619  0.00  0.00    +0.064 A 
ATOM      6  C   UNL     1      -3.340   0.132  -3.817  0.00  0.00    +0.025 A 
ATOM      7  C   UNL     1      -4.007   0.590  -4.936  0.00  0.00    +0.002 A 
ATOM      8  C   UNL     1      -5.356   0.888  -4.866  0.00  0.00    +0.002 A 
ATOM      9  C   UNL     1      -6.040   0.730  -3.675  0.00  0.00    +0.034 A 
ATOM     10  C   UNL     1      -5.380   0.267  -2.554  0.00  0.00    +0.147 A 
BRANCH  10  11
ATOM     11  N   UNL     1      -6.116   0.091  -1.281  0.00  0.00    +0.058 N 
ATOM     12  O   UNL     1      -7.313   0.254  -1.247  0.00  0.00    -0.126 OA
ATOM     13  O   UNL     1      -5.519  -0.215  -0.275  0.00  0.00    -0.126 OA
ENDBRANCH  10  11
ENDBRANCH   3   5
BRANCH   1  14
ATOM     14  C   UNL     1      -1.377  -0.549   0.004  0.00  0.00    +0.019 C 
BRANCH  14  16
ATOM     15  C   UNL     1      -0.017   1.427   0.027  0.00  0.00    -0.095 C 
ATOM     16  N   UNL     1       0.002  -0.042  -0.001  0.00  0.00    +0.387 N 
ATOM     17  H   UNL     1       0.472  -0.356  -0.837  0.00  0.00    -0.081 HD
BRANCH  16  18
ATOM     18  C   UNL     1       0.714  -0.545   1.181  0.00  0.00    -0.035 C 
BRANCH  18  19
ATOM     19  C   UNL     1       2.160  -0.127   1.112  0.00  0.00    -0.026 A 
ATOM     20  C   UNL     1       2.748   0.995   1.596  0.00  0.00    +0.024 A 
ATOM     21  C   UNL     1       4.107   1.171   1.414  0.00  0.00    +0.025 A 
ATOM     22  C   UNL     1       4.811   0.217   0.758  0.00  0.00    +0.060 A 
ATOM     23  S   UNL     1       3.545  -0.983   0.379  0.00  0.00    -0.102 S 
ATOM     24 BR   UNL     1       4.970   2.720   2.071  0.00  0.00    -0.050 Br
ENDBRANCH  18  19
ENDBRANCH  16  18
ENDBRANCH  14  16
ENDBRANCH   1  14
TORSDOF 6
