REMARK  Name = ZINC06877655
REMARK  7 active torsions:
REMARK  status: ('A' for Active; 'I' for Inactive)
REMARK    1  A    between atoms: C_1  and  C_2
REMARK    2  A    between atoms: C_5  and  C_7
REMARK    3  A    between atoms: C_7  and  N_8
REMARK    4  A    between atoms: N_8  and  C_9
REMARK    5  A    between atoms: C_14  and  C_15
REMARK    6  A    between atoms: C_14  and  N_59
REMARK    7  A    between atoms: N_23  and  C_24
REMARK                            x       y       z     vdW  Elec       q    Type
REMARK                         _______ _______ _______ _____ _____    ______ ____
ROOT
ATOM      1  N   UNL     1      -1.851   4.784   1.431  0.00  0.00    -0.275 N 
ATOM      2  C   UNL     1      -2.935   4.301   2.070  0.00  0.00    +0.307 C 
ATOM      3  O   UNL     1      -3.162   4.632   3.217  0.00  0.00    -0.252 OA
ATOM      4  N   UNL     1      -3.767   3.450   1.437  0.00  0.00    -0.267 N 
ATOM      5  H   UNL     1      -3.633   3.249   0.497  0.00  0.00    +0.156 HD
ENDROOT
BRANCH   1   6
ATOM      6  C   UNL     1      -0.947   5.708   2.119  0.00  0.00    +0.075 C 
ATOM      7  C   UNL     1      -0.375   5.030   3.367  0.00  0.00    +0.004 C 
ATOM      8  C   UNL     1       0.521   6.021   4.115  0.00  0.00    -0.077 C 
ATOM      9  C   UNL     1      -0.784   7.897   3.309  0.00  0.00    -0.077 C 
ATOM     10  C   UNL     1      -1.718   6.963   2.537  0.00  0.00    +0.004 C 
ATOM     11  N   UNL     1      -0.287   7.194   4.511  0.00  0.00    +0.382 N 
ATOM     12  H   UNL     1      -1.090   6.874   5.065  0.00  0.00    -0.081 HD
BRANCH  11  13
ATOM     13  C   UNL     1       0.527   8.113   5.332  0.00  0.00    -0.043 C 
BRANCH  13  14
ATOM     14  C   UNL     1       0.836   7.444   6.647  0.00  0.00    -0.064 A 
ATOM     15  C   UNL     1      -0.028   7.590   7.716  0.00  0.00    +0.002 A 
ATOM     16  C   UNL     1       0.252   6.972   8.921  0.00  0.00    +0.000 A 
ATOM     17  C   UNL     1       1.401   6.217   9.059  0.00  0.00    +0.000 A 
ATOM     18  C   UNL     1       2.268   6.076   7.992  0.00  0.00    +0.000 A 
ATOM     19  C   UNL     1       1.985   6.689   6.786  0.00  0.00    +0.002 A 
ENDBRANCH  13  14
ENDBRANCH  11  13
ENDBRANCH   1   6
BRANCH   4  20
ATOM     20  C   UNL     1      -4.826   2.856   2.135  0.00  0.00    +0.070 A 
ATOM     21  C   UNL     1      -4.752   2.703   3.513  0.00  0.00    +0.026 A 
ATOM     22  C   UNL     1      -5.800   2.122   4.200  0.00  0.00    +0.002 A 
ATOM     23  C   UNL     1      -6.918   1.682   3.516  0.00  0.00    +0.003 A 
ATOM     24  C   UNL     1      -6.995   1.827   2.143  0.00  0.00    +0.040 A 
ATOM     25  C   UNL     1      -5.952   2.413   1.450  0.00  0.00    +0.145 A 
ATOM     26  F   UNL     1      -6.026   2.554   0.108  0.00  0.00    -0.204 F 
ENDBRANCH   4  20
BRANCH   1  27
ATOM     27  C   UNL     1      -1.578   4.385   0.048  0.00  0.00    +0.183 C 
BRANCH  27  32
ATOM     28  C   UNL     1       2.492   1.405   0.026  0.00  0.00    +0.086 C 
ATOM     29  C   UNL     1       1.053   1.852   0.034  0.00  0.00    +0.102 A 
ATOM     30  C   UNL     1      -0.022   1.044   0.037  0.00  0.00    +0.045 A 
ATOM     31  C   UNL     1      -1.163   1.879   0.037  0.00  0.00    +0.046 A 
ATOM     32  C   UNL     1      -0.717   3.148   0.043  0.00  0.00    +0.122 A 
ATOM     33  O   UNL     1       0.626   3.126   0.038  0.00  0.00    -0.463 OA
ENDBRANCH  27  32
ENDBRANCH   1  27
TORSDOF 6
