REMARK  Name = ZINC60726017
REMARK  3 active torsions:
REMARK  status: ('A' for Active; 'I' for Inactive)
REMARK    1  A    between atoms: C_5  and  O_7
REMARK    2  A    between atoms: N_8  and  S_12
REMARK    3  A    between atoms: S_12  and  C_15
REMARK                            x       y       z     vdW  Elec       q    Type
REMARK                         _______ _______ _______ _____ _____    ______ ____
ROOT
ATOM      1  C   UNL     1       3.228   2.041  -2.641  0.00  0.00    +0.004 A 
ATOM      2  C   UNL     1       4.410   2.217  -1.948  0.00  0.00    +0.006 A 
ATOM      3  C   UNL     1       4.930   1.189  -1.177  0.00  0.00    -0.021 A 
ATOM      4  C   UNL     1       4.256  -0.018  -1.102  0.00  0.00    +0.096 A 
ATOM      5  C   UNL     1       3.064  -0.196  -1.804  0.00  0.00    +0.140 A 
ATOM      6  C   UNL     1       2.554   0.836  -2.572  0.00  0.00    +0.047 A 
ATOM      7  N   UNL     1       4.754  -1.072  -0.323  0.00  0.00    -0.199 N 
ATOM      8  C   UNL     1       6.136  -0.999   0.172  0.00  0.00    +0.132 C 
ATOM      9  C   UNL     1       6.365   0.419   0.712  0.00  0.00    +0.025 C 
ATOM     10  C   UNL     1       6.224   1.415  -0.439  0.00  0.00    +0.039 C 
ENDROOT
BRANCH   7  11
ATOM     11  S   UNL     1       3.800  -2.378   0.035  0.00  0.00    +0.075 S 
ATOM     12  O   UNL     1       4.549  -3.198   0.921  0.00  0.00    -0.150 OA
ATOM     13  O   UNL     1       2.519  -1.864   0.373  0.00  0.00    -0.150 OA
BRANCH  11  14
ATOM     14  C   UNL     1       3.597  -3.298  -1.453  0.00  0.00    +0.109 A 
ATOM     15  C   UNL     1       2.329  -3.624  -1.896  0.00  0.00    +0.030 A 
ATOM     16  C   UNL     1       2.169  -4.347  -3.064  0.00  0.00    +0.022 A 
ATOM     17  C   UNL     1       3.278  -4.743  -3.789  0.00  0.00    +0.041 A 
ATOM     18  C   UNL     1       4.547  -4.417  -3.345  0.00  0.00    +0.022 A 
ATOM     19  C   UNL     1       4.705  -3.690  -2.180  0.00  0.00    +0.030 A 
ATOM     20 CL   UNL     1       3.078  -5.651  -5.255  0.00  0.00    -0.084 Cl
ENDBRANCH  11  14
ENDBRANCH   7  11
BRANCH   5  21
ATOM     21  O   UNL     1       2.404  -1.383  -1.734  0.00  0.00    -0.505 OA
ATOM     22  H   UNL     1       1.694  -1.400  -1.077  0.00  0.00    +0.292 HD
ENDBRANCH   5  21
TORSDOF 3
