REMARK  Name = ZINC39485918
REMARK  5 active torsions:
REMARK  status: ('A' for Active; 'I' for Inactive)
REMARK    1  A    between atoms: C_4  and  C_7
REMARK    2  A    between atoms: C_7  and  C_8
REMARK    3  A    between atoms: N_17  and  C_20
REMARK    4  A    between atoms: C_20  and  C_21
REMARK    5  A    between atoms: C_26  and  C_27
REMARK                            x       y       z     vdW  Elec       q    Type
REMARK                         _______ _______ _______ _____ _____    ______ ____
ROOT
ATOM      1  C   UNL     1       4.171  -0.963   1.399  0.00  0.00    +0.022 C 
ATOM      2  N   UNL     1       3.261  -1.927   2.064  0.00  0.00    -0.271 NA
ATOM      3  N   UNL     1       3.925  -3.233   1.906  0.00  0.00    -0.272 NA
ATOM      4  C   UNL     1       5.365  -2.883   2.034  0.00  0.00    +0.019 C 
ATOM      5  N   UNL     1       5.506  -1.602   1.401  0.00  0.00    +0.403 N 
ATOM      6  C   UNL     1       6.460  -0.748   2.133  0.00  0.00    -0.059 C 
ATOM      7  C   UNL     1       7.837  -1.210   1.857  0.00  0.00    +0.066 C 
ATOM      8  N   UNL     1       8.079  -2.597   2.271  0.00  0.00    -0.303 NA
ATOM      9  C   UNL     1       7.668  -3.512   1.234  0.00  0.00    +0.084 C 
ATOM     10  C   UNL     1       6.222  -4.021   1.487  0.00  0.00    +0.016 C 
ATOM     11  H   UNL     1       2.352  -1.929   1.625  0.00  0.00    +0.139 HD
ATOM     12  H   UNL     1       3.729  -3.631   1.000  0.00  0.00    +0.139 HD
ATOM     13  H   UNL     1       5.826  -1.725   0.452  0.00  0.00    -0.077 HD
ENDROOT
BRANCH   1  14
ATOM     14  C   UNL     1       3.711  -0.707  -0.038  0.00  0.00    +0.036 C 
BRANCH  14  18
ATOM     15  C   UNL     1      -0.017   1.378   0.010  0.00  0.00    +0.000 A 
ATOM     16  C   UNL     1       1.171   2.086   0.002  0.00  0.00    +0.000 A 
ATOM     17  C   UNL     1       2.377   1.411  -0.013  0.00  0.00    +0.003 A 
ATOM     18  C   UNL     1       2.396   0.029  -0.020  0.00  0.00    -0.048 A 
ATOM     19  C   UNL     1       1.208  -0.679  -0.012  0.00  0.00    +0.003 A 
ATOM     20  C   UNL     1       0.002  -0.004   0.002  0.00  0.00    +0.000 A 
ENDBRANCH  14  18
ENDBRANCH   1  14
BRANCH   8  21
ATOM     21  C   UNL     1       9.490  -2.802   2.625  0.00  0.00    +0.099 C 
BRANCH  21  22
ATOM     22  C   UNL     1       9.657  -4.174   3.282  0.00  0.00    +0.097 C 
ATOM     23  C   UNL     1       8.989  -4.198   4.643  0.00  0.00    +0.118 C 
ATOM     24  N   UNL     1       9.930  -4.433   5.500  0.00  0.00    -0.161 NA
ATOM     25  N   UNL     1      11.175  -4.575   4.897  0.00  0.00    -0.153 NA
ATOM     26  C   UNL     1      11.115  -4.441   3.597  0.00  0.00    +0.080 C 
BRANCH  26  27
ATOM     27  C   UNL     1      12.228  -4.531   2.639  0.00  0.00    -0.001 A 
ATOM     28  C   UNL     1      11.994  -4.355   1.271  0.00  0.00    +0.011 A 
ATOM     29  C   UNL     1      13.041  -4.440   0.380  0.00  0.00    +0.020 A 
ATOM     30  C   UNL     1      14.324  -4.698   0.835  0.00  0.00    +0.041 A 
ATOM     31  C   UNL     1      14.564  -4.873   2.188  0.00  0.00    +0.020 A 
ATOM     32  C   UNL     1      13.527  -4.786   3.092  0.00  0.00    +0.011 A 
ATOM     33 CL   UNL     1      15.638  -4.803  -0.295  0.00  0.00    -0.084 Cl
ENDBRANCH  26  27
ENDBRANCH  21  22
ENDBRANCH   8  21
TORSDOF 5
