REMARK  Name = ZINC07766214
REMARK  8 active torsions:
REMARK  status: ('A' for Active; 'I' for Inactive)
REMARK    1  A    between atoms: C_1  and  C_2
REMARK    2  A    between atoms: C_7  and  N_8
REMARK    3  A    between atoms: C_9  and  C_11
REMARK    4  A    between atoms: C_11  and  C_13
REMARK    5  A    between atoms: C_11  and  S_14
REMARK    6  A    between atoms: S_14  and  C_15
REMARK    7  A    between atoms: N_19  and  C_20
REMARK    8  A    between atoms: C_23  and  O_26
REMARK                            x       y       z     vdW  Elec       q    Type
REMARK                         _______ _______ _______ _____ _____    ______ ____
ROOT
ATOM      1  C   UNL     1      -4.894   1.348   0.248  0.00  0.00    +0.137 C 
ATOM      2  C   UNL     1      -5.133   0.972   1.711  0.00  0.00    +0.029 C 
ENDROOT
BRANCH   1   4
ATOM      3  N   UNL     1      -2.433   1.467   0.021  0.00  0.00    -0.284 N 
ATOM      4  C   UNL     1      -3.606   2.122   0.132  0.00  0.00    +0.230 C 
ATOM      5  O   UNL     1      -3.624   3.335   0.139  0.00  0.00    -0.274 OA
ATOM      6  H   UNL     1      -2.424   0.501  -0.065  0.00  0.00    +0.155 HD
BRANCH   3  13
ATOM      7  C   UNL     1      -0.166   0.292  -1.232  0.00  0.00    +0.045 C 
ATOM      8  C   UNL     1      -0.098   1.644  -0.570  0.00  0.00    -0.029 A 
ATOM      9  C   UNL     1       1.087   2.352  -0.565  0.00  0.00    +0.006 A 
ATOM     10  C   UNL     1       1.151   3.592   0.043  0.00  0.00    +0.020 A 
ATOM     11  C   UNL     1       0.027   4.128   0.648  0.00  0.00    +0.043 A 
ATOM     12  C   UNL     1      -1.162   3.424   0.645  0.00  0.00    +0.043 A 
ATOM     13  C   UNL     1      -1.229   2.180   0.031  0.00  0.00    +0.038 A 
ATOM     14 CL   UNL     1       0.111   5.686   1.410  0.00  0.00    -0.083 Cl
ENDBRANCH   3  13
ENDBRANCH   1   4
BRANCH   1  15
ATOM     15  S   UNL     1      -6.266   2.368  -0.346  0.00  0.00    -0.072 S 
BRANCH  15  16
ATOM     16  C   UNL     1      -7.581   1.200  -0.245  0.00  0.00    +0.215 A 
ATOM     17  N   UNL     1      -7.489  -0.049   0.157  0.00  0.00    -0.101 NA
ATOM     18  N   UNL     1      -8.637  -0.623   0.111  0.00  0.00    -0.022 NA
ATOM     19  N   UNL     1      -9.532   0.197  -0.324  0.00  0.00    -0.038 NA
ATOM     20  N   UNL     1      -8.880   1.417  -0.573  0.00  0.00    -0.187 N 
BRANCH  20  21
ATOM     21  C   UNL     1      -9.449   2.605  -1.058  0.00  0.00    +0.070 A 
ATOM     22  C   UNL     1      -8.984   3.833  -0.607  0.00  0.00    +0.031 A 
ATOM     23  C   UNL     1      -9.541   5.001  -1.087  0.00  0.00    +0.047 A 
ATOM     24  C   UNL     1     -10.573   4.948  -2.013  0.00  0.00    +0.117 A 
ATOM     25  C   UNL     1     -11.043   3.721  -2.459  0.00  0.00    +0.047 A 
ATOM     26  C   UNL     1     -10.482   2.552  -1.984  0.00  0.00    +0.031 A 
BRANCH  24  27
ATOM     27  O   UNL     1     -11.125   6.098  -2.482  0.00  0.00    -0.507 OA
ATOM     28  H   UNL     1     -11.874   6.417  -1.960  0.00  0.00    +0.292 HD
ENDBRANCH  24  27
ENDBRANCH  20  21
ENDBRANCH  15  16
ENDBRANCH   1  15
TORSDOF 6
