REMARK  Name = ZINC48523033
REMARK  3 active torsions:
REMARK  status: ('A' for Active; 'I' for Inactive)
REMARK    1  A    between atoms: N_9  and  C_19
REMARK    2  A    between atoms: C_10  and  C_11
REMARK    3  A    between atoms: C_10  and  O_18
REMARK                            x       y       z     vdW  Elec       q    Type
REMARK                         _______ _______ _______ _____ _____    ______ ____
ROOT
ATOM      1  C   UNL     1      -0.017   1.375   0.010  0.00  0.00    +0.001 A 
ATOM      2  C   UNL     1       1.168   2.090   0.002  0.00  0.00    +0.000 A 
ATOM      3  C   UNL     1       2.383   1.425  -0.013  0.00  0.00    +0.009 A 
ATOM      4  C   UNL     1       2.413   0.049  -0.021  0.00  0.00    +0.019 A 
ATOM      5  C   UNL     1       1.223  -0.682  -0.013  0.00  0.00    +0.045 A 
ATOM      6  C   UNL     1       0.002  -0.004   0.002  0.00  0.00    +0.013 A 
ATOM      7  C   UNL     1       1.562  -2.118  -0.024  0.00  0.00    +0.250 C 
ATOM      8  O   UNL     1       0.751  -3.023  -0.021  0.00  0.00    -0.270 OA
ATOM      9  N   UNL     1       2.896  -2.281  -0.038  0.00  0.00    -0.259 N 
ATOM     10  C   UNL     1       3.533  -0.960  -0.038  0.00  0.00    +0.189 C 
ENDROOT
BRANCH  10  11
ATOM     11  C   UNL     1       4.368  -0.786  -1.280  0.00  0.00    +0.007 A 
ATOM     12  C   UNL     1       4.024  -1.453  -2.442  0.00  0.00    +0.010 A 
ATOM     13  C   UNL     1       4.789  -1.295  -3.582  0.00  0.00    +0.020 A 
ATOM     14  C   UNL     1       5.899  -0.469  -3.561  0.00  0.00    +0.041 A 
ATOM     15  C   UNL     1       6.242   0.198  -2.398  0.00  0.00    +0.020 A 
ATOM     16  C   UNL     1       5.473   0.043  -1.260  0.00  0.00    +0.010 A 
ATOM     17 CL   UNL     1       6.861  -0.270  -4.992  0.00  0.00    -0.084 Cl
ENDBRANCH  10  11
BRANCH   9  18
ATOM     18  C   UNL     1       3.598  -3.567  -0.052  0.00  0.00    +0.080 C 
ATOM     19  C   UNL     1       3.197  -4.354  -1.302  0.00  0.00    +0.022 C 
ATOM     20  C   UNL     1       3.931  -5.696  -1.316  0.00  0.00    +0.002 C 
ATOM     21  C   UNL     1       3.554  -6.497  -0.068  0.00  0.00    +0.000 C 
ATOM     22  C   UNL     1       3.954  -5.710   1.182  0.00  0.00    +0.002 C 
ATOM     23  C   UNL     1       3.221  -4.367   1.196  0.00  0.00    +0.022 C 
ENDBRANCH   9  18
BRANCH  10  24
ATOM     24  O   UNL     1       4.348  -0.808   1.127  0.00  0.00    -0.364 OA
ATOM     25  H   UNL     1       4.776   0.057   1.198  0.00  0.00    +0.213 HD
ENDBRANCH  10  24
TORSDOF 3
