REMARK  Name = ZINC15679774
REMARK  9 active torsions:
REMARK  status: ('A' for Active; 'I' for Inactive)
REMARK    1  A    between atoms: C_1  and  C_2
REMARK    2  A    between atoms: C_2  and  N_56
REMARK    3  A    between atoms: C_5  and  N_8
REMARK    4  A    between atoms: N_8  and  C_9
REMARK    5  A    between atoms: C_9  and  C_10
REMARK    6  A    between atoms: N_17  and  C_18
REMARK    7  A    between atoms: C_20  and  C_26
REMARK    8  A    between atoms: C_23  and  O_24
REMARK    9  A    between atoms: O_24  and  C_25
REMARK                            x       y       z     vdW  Elec       q    Type
REMARK                         _______ _______ _______ _____ _____    ______ ____
ROOT
ATOM      1  N   UNL     1      -4.747  -0.068  -0.134  0.00  0.00    -0.278 N 
ATOM      2  C   UNL     1      -3.574  -0.727  -0.053  0.00  0.00    +0.307 C 
ATOM      3  O   UNL     1      -3.558  -1.942  -0.059  0.00  0.00    -0.252 OA
ATOM      4  N   UNL     1      -2.419  -0.038   0.036  0.00  0.00    -0.266 N 
ATOM      5  H   UNL     1      -2.435   0.928   0.124  0.00  0.00    +0.156 HD
ENDROOT
BRANCH   1   8
ATOM      6  C   UNL     1      -7.269  -2.515  -1.551  0.00  0.00    -0.077 C 
ATOM      7  C   UNL     1      -5.982  -1.690  -1.488  0.00  0.00    +0.004 C 
ATOM      8  C   UNL     1      -6.002  -0.816  -0.231  0.00  0.00    +0.074 C 
ATOM      9  C   UNL     1      -6.160  -1.712   1.001  0.00  0.00    +0.004 C 
ATOM     10  C   UNL     1      -7.442  -2.536   0.866  0.00  0.00    -0.077 C 
ATOM     11  N   UNL     1      -7.349  -3.373  -0.349  0.00  0.00    +0.380 N 
ATOM     12  H   UNL     1      -6.500  -3.947  -0.293  0.00  0.00    -0.082 HD
BRANCH  11  14
ATOM     13  C   UNL     1      -8.751  -4.937   0.913  0.00  0.00    -0.017 C 
ATOM     14  C   UNL     1      -8.525  -4.262  -0.442  0.00  0.00    -0.082 C 
ENDBRANCH  11  14
ENDBRANCH   1   8
BRANCH   4  15
ATOM     15  C   UNL     1      -1.193  -0.717   0.002  0.00  0.00    +0.077 A 
ATOM     16  C   UNL     1      -1.102  -1.957  -0.614  0.00  0.00    +0.030 A 
ATOM     17  C   UNL     1       0.106  -2.628  -0.641  0.00  0.00    -0.048 A 
ATOM     18  C   UNL     1       1.227  -2.063  -0.061  0.00  0.00    +0.007 A 
ATOM     19  C   UNL     1       1.145  -0.826   0.549  0.00  0.00    +0.048 A 
ATOM     20  C   UNL     1      -0.062  -0.147   0.581  0.00  0.00    +0.141 A 
ATOM     21  C   UNL     1       0.201  -3.978  -1.304  0.00  0.00    +0.044 C 
BRANCH  20  22
ATOM     22  O   UNL     1      -0.144   1.070   1.182  0.00  0.00    -0.493 OA
ATOM     23  C   UNL     1       1.054   1.591   1.760  0.00  0.00    +0.277 C 
ENDBRANCH  20  22
ENDBRANCH   4  15
BRANCH   1  24
ATOM     24  C   UNL     1      -4.766   1.397  -0.127  0.00  0.00    +0.152 C 
BRANCH  24  25
ATOM     25  C   UNL     1      -4.669   1.908  -1.541  0.00  0.00    +0.007 A 
ATOM     26  C   UNL     1      -5.664   2.184  -2.419  0.00  0.00    +0.013 A 
ATOM     27  C   UNL     1      -5.337   2.650  -3.679  0.00  0.00    +0.008 A 
ATOM     28  C   UNL     1      -4.030   2.817  -3.998  0.00  0.00    +0.045 A 
ATOM     29  S   UNL     1      -3.214   2.315  -2.492  0.00  0.00    -0.100 S 
ENDBRANCH  24  25
ENDBRANCH   1  24
TORSDOF 6
