REMARK  Name = ZINC40695777
REMARK  4 active torsions:
REMARK  status: ('A' for Active; 'I' for Inactive)
REMARK    1  A    between atoms: C_6  and  C_7
REMARK    2  A    between atoms: C_7  and  S_8
REMARK    3  A    between atoms: S_8  and  C_9
REMARK    4  A    between atoms: C_14  and  C_19
REMARK                            x       y       z     vdW  Elec       q    Type
REMARK                         _______ _______ _______ _____ _____    ______ ____
ROOT
ATOM      1  C   UNL     1      -3.335  -1.973  -1.518  0.00  0.00    +0.171 A 
ATOM      2  N   UNL     1      -3.781  -2.246  -0.310  0.00  0.00    -0.185 NA
ATOM      3  C   UNL     1      -4.916  -2.923  -0.106  0.00  0.00    +0.283 A 
ATOM      4  O   UNL     1      -5.301  -3.159   1.029  0.00  0.00    -0.265 OA
ATOM      5  C   UNL     1      -5.699  -3.382  -1.272  0.00  0.00    +0.086 A 
ATOM      6  C   UNL     1      -6.954  -4.128  -1.347  0.00  0.00    +0.085 A 
ATOM      7  C   UNL     1      -7.447  -4.414  -2.584  0.00  0.00    +0.063 A 
ATOM      8  S   UNL     1      -6.342  -3.751  -3.659  0.00  0.00    -0.078 S 
ATOM      9  C   UNL     1      -5.175  -3.063  -2.521  0.00  0.00    +0.093 A 
ATOM     10  N   UNL     1      -4.012  -2.364  -2.634  0.00  0.00    -0.328 N 
ATOM     11  H   UNL     1      -3.663  -2.146  -3.513  0.00  0.00    +0.168 HD
ENDROOT
BRANCH   6  12
ATOM     12  C   UNL     1      -7.656  -4.554  -0.134  0.00  0.00    +0.388 C 
ATOM     13  O   UNL     1      -8.706  -5.178  -0.222  0.00  0.00    -0.241 OA
ATOM     14  O   UNL     1      -7.194  -4.287   0.967  0.00  0.00    -0.241 OA
ENDBRANCH   6  12
BRANCH   1  15
ATOM     15  S   UNL     1      -1.829  -1.075  -1.696  0.00  0.00    -0.083 S 
BRANCH  15  16
ATOM     16  C   UNL     1      -1.293  -0.775   0.011  0.00  0.00    +0.112 C 
BRANCH  16  22
ATOM     17  C   UNL     1      -0.017   1.378   0.010  0.00  0.00    +0.006 A 
ATOM     18  C   UNL     1       1.171   2.086   0.002  0.00  0.00    +0.020 A 
ATOM     19  C   UNL     1       2.378   1.410  -0.013  0.00  0.00    +0.041 A 
ATOM     20  C   UNL     1       2.396   0.027  -0.021  0.00  0.00    +0.020 A 
ATOM     21  C   UNL     1       1.208  -0.679  -0.013  0.00  0.00    +0.006 A 
ATOM     22  C   UNL     1       0.002  -0.004   0.002  0.00  0.00    -0.037 A 
ATOM     23 CL   UNL     1       3.870   2.298  -0.023  0.00  0.00    -0.084 Cl
ENDBRANCH  16  22
ENDBRANCH  15  16
ENDBRANCH   1  15
TORSDOF 4
