REMARK  Name = ZINC65341730
REMARK  5 active torsions:
REMARK  status: ('A' for Active; 'I' for Inactive)
REMARK    1  A    between atoms: C_3  and  S_16
REMARK    2  A    between atoms: C_6  and  C_7
REMARK    3  A    between atoms: C_10  and  C_14
REMARK    4  A    between atoms: C_11  and  O_13
REMARK    5  A    between atoms: S_16  and  N_19
REMARK                            x       y       z     vdW  Elec       q    Type
REMARK                         _______ _______ _______ _____ _____    ______ ____
ROOT
ATOM      1  C   UNL     1      -0.017   1.390   0.010  0.00  0.00    +0.010 A 
ATOM      2  C   UNL     1       1.170   2.093   0.002  0.00  0.00    +0.029 A 
ATOM      3  C   UNL     1       2.377   1.418  -0.013  0.00  0.00    +0.106 A 
ATOM      4  C   UNL     1       2.402   0.035  -0.022  0.00  0.00    +0.029 A 
ATOM      5  C   UNL     1       1.222  -0.679  -0.014  0.00  0.00    +0.010 A 
ATOM      6  C   UNL     1       0.002  -0.004   0.002  0.00  0.00    -0.018 A 
ENDROOT
BRANCH   6   7
ATOM      7  C   UNL     1      -1.270  -0.766   0.010  0.00  0.00    -0.014 A 
ATOM      8  C   UNL     1      -2.489  -0.085   0.020  0.00  0.00    +0.010 A 
ATOM      9  C   UNL     1      -3.666  -0.779   0.028  0.00  0.00    +0.023 A 
ATOM     10  C   UNL     1      -3.656  -2.177   0.026  0.00  0.00    +0.093 A 
ATOM     11  C   UNL     1      -2.435  -2.868   0.016  0.00  0.00    +0.135 A 
ATOM     12  C   UNL     1      -1.247  -2.158   0.002  0.00  0.00    +0.055 A 
BRANCH  11  13
ATOM     13  O   UNL     1      -2.419  -4.225   0.014  0.00  0.00    -0.505 OA
ATOM     14  H   UNL     1      -2.421  -4.617  -0.870  0.00  0.00    +0.292 HD
ENDBRANCH  11  13
BRANCH  10  15
ATOM     15  C   UNL     1      -4.891  -2.903   0.034  0.00  0.00    +0.103 C 
ATOM     16  N   UNL     1      -5.870  -3.478   0.041  0.00  0.00    -0.191 NA
ENDBRANCH  10  15
ENDBRANCH   6   7
BRANCH   3  17
ATOM     17  S   UNL     1       3.889   2.323  -0.024  0.00  0.00    +0.061 S 
ATOM     18  O   UNL     1       4.872   1.466  -0.589  0.00  0.00    -0.153 OA
ATOM     19  O   UNL     1       3.593   3.603  -0.565  0.00  0.00    -0.153 OA
BRANCH  17  20
ATOM     20  N   UNL     1       4.325   2.566   1.555  0.00  0.00    -0.177 NA
ATOM     21  C   UNL     1       3.868   3.757   2.283  0.00  0.00    +0.109 C 
ATOM     22  C   UNL     1       3.186   3.311   3.580  0.00  0.00    +0.017 C 
ATOM     23  C   UNL     1       4.142   2.418   4.374  0.00  0.00    +0.003 C 
ATOM     24  C   UNL     1       4.479   1.172   3.552  0.00  0.00    +0.017 C 
ATOM     25  C   UNL     1       5.171   1.591   2.257  0.00  0.00    +0.109 C 
ENDBRANCH  17  20
ENDBRANCH   3  17
TORSDOF 5
