REMARK  Name = ZINC27811105
REMARK  6 active torsions:
REMARK  status: ('A' for Active; 'I' for Inactive)
REMARK    1  A    between atoms: C_1  and  C_2
REMARK    2  A    between atoms: C_2  and  C_4
REMARK    3  A    between atoms: C_2  and  S_17
REMARK    4  A    between atoms: N_6  and  C_7
REMARK    5  A    between atoms: S_17  and  C_18
REMARK    6  A    between atoms: N_22  and  C_23
REMARK                            x       y       z     vdW  Elec       q    Type
REMARK                         _______ _______ _______ _____ _____    ______ ____
ROOT
ATOM      1  C   UNL     1      -0.019   1.526   0.010  0.00  0.00    +0.029 C 
ATOM      2  C   UNL     1       0.002  -0.004   0.002  0.00  0.00    +0.137 C 
ENDROOT
BRANCH   2   3
ATOM      3  C   UNL     1       0.731  -0.503   1.223  0.00  0.00    +0.227 C 
ATOM      4  O   UNL     1       0.105  -0.891   2.187  0.00  0.00    -0.275 OA
ATOM      5  N   UNL     1       2.079  -0.519   1.244  0.00  0.00    -0.309 N 
ATOM      6  H   UNL     1       2.579  -0.208   0.473  0.00  0.00    +0.149 HD
BRANCH   5   7
ATOM      7  C   UNL     1       2.787  -1.004   2.431  0.00  0.00    +0.035 C 
ATOM      8  C   UNL     1       2.397  -2.459   2.699  0.00  0.00    +0.029 C 
ATOM      9  C   UNL     1       3.136  -2.966   3.938  0.00  0.00    -0.008 C 
ATOM     10  C   UNL     1       4.646  -2.878   3.703  0.00  0.00    +0.007 C 
ATOM     11  C   UNL     1       5.036  -1.423   3.435  0.00  0.00    -0.008 C 
ATOM     12  C   UNL     1       4.296  -0.916   2.195  0.00  0.00    +0.029 C 
ATOM     13  C   UNL     1       4.657  -0.563   4.642  0.00  0.00    +0.007 C 
ATOM     14  C   UNL     1       3.148  -0.651   4.878  0.00  0.00    -0.008 C 
ATOM     15  C   UNL     1       2.758  -2.106   5.145  0.00  0.00    +0.007 C 
ATOM     16  C   UNL     1       2.408  -0.144   3.638  0.00  0.00    +0.029 C 
ENDBRANCH   5   7
ENDBRANCH   2   3
BRANCH   2  17
ATOM     17  S   UNL     1      -1.700  -0.632   0.015  0.00  0.00    -0.072 S 
BRANCH  17  18
ATOM     18  C   UNL     1      -2.365  -0.093  -1.525  0.00  0.00    +0.210 A 
ATOM     19  N   UNL     1      -1.734   0.599  -2.450  0.00  0.00    -0.101 NA
ATOM     20  N   UNL     1      -2.509   0.825  -3.449  0.00  0.00    -0.022 NA
ATOM     21  N   UNL     1      -3.670   0.305  -3.242  0.00  0.00    -0.043 NA
ATOM     22  N   UNL     1      -3.619  -0.319  -1.983  0.00  0.00    -0.217 N 
BRANCH  22  23
ATOM     23  C   UNL     1      -4.693  -1.053  -1.310  0.00  0.00    +0.112 C 
ATOM     24  C   UNL     1      -5.116  -2.243  -2.174  0.00  0.00    +0.027 C 
ATOM     25  C   UNL     1      -6.238  -3.010  -1.471  0.00  0.00    +0.002 C 
ATOM     26  C   UNL     1      -7.436  -2.081  -1.259  0.00  0.00    +0.000 C 
ATOM     27  C   UNL     1      -7.012  -0.891  -0.395  0.00  0.00    +0.002 C 
ATOM     28  C   UNL     1      -5.890  -0.125  -1.098  0.00  0.00    +0.027 C 
ENDBRANCH  22  23
ENDBRANCH  17  18
ENDBRANCH   2  17
TORSDOF 5
