REMARK  Name = ZINC48374409
REMARK  7 active torsions:
REMARK  status: ('A' for Active; 'I' for Inactive)
REMARK    1  A    between atoms: C_1  and  C_2
REMARK    2  A    between atoms: C_5  and  C_9
REMARK    3  A    between atoms: C_6  and  C_8
REMARK    4  A    between atoms: C_9  and  C_11
REMARK    5  A    between atoms: N_14  and  S_17
REMARK    6  A    between atoms: S_17  and  C_20
REMARK    7  A    between atoms: C_23  and  C_26
REMARK                            x       y       z     vdW  Elec       q    Type
REMARK                         _______ _______ _______ _____ _____    ______ ____
ROOT
ATOM      1  C   UNL     1       0.739  -5.022  -1.016  0.00  0.00    +0.063 C 
ATOM      2  C   UNL     1      -0.640  -5.487  -1.490  0.00  0.00    +0.028 C 
ATOM      3  C   UNL     1      -0.484  -6.314  -2.770  0.00  0.00    +0.110 C 
ATOM      4  N   UNL     1       0.466  -7.405  -2.516  0.00  0.00    -0.177 NA
ATOM      5  C   UNL     1       1.791  -7.076  -1.973  0.00  0.00    +0.110 C 
ATOM      6  C   UNL     1       1.609  -6.241  -0.702  0.00  0.00    +0.028 C 
ENDROOT
BRANCH   4   7
ATOM      7  S   UNL     1       0.051  -8.976  -2.834  0.00  0.00    +0.061 S 
ATOM      8  O   UNL     1       0.873  -9.789  -2.008  0.00  0.00    -0.153 OA
ATOM      9  O   UNL     1      -1.368  -9.038  -2.793  0.00  0.00    -0.153 OA
BRANCH   7  10
ATOM     10  C   UNL     1       0.521  -9.312  -4.498  0.00  0.00    +0.106 A 
ATOM     11  C   UNL     1      -0.373  -9.077  -5.528  0.00  0.00    +0.030 A 
ATOM     12  C   UNL     1      -0.011  -9.338  -6.833  0.00  0.00    +0.021 A 
ATOM     13  C   UNL     1       1.261  -9.840  -7.114  0.00  0.00    +0.052 A 
ATOM     14  C   UNL     1       2.158 -10.075  -6.071  0.00  0.00    +0.021 A 
ATOM     15  C   UNL     1       1.785  -9.806  -4.771  0.00  0.00    +0.030 A 
BRANCH  13  16
ATOM     16  C   UNL     1       1.643 -10.114  -8.467  0.00  0.00    +0.099 C 
ATOM     17  N   UNL     1       1.946 -10.331  -9.540  0.00  0.00    -0.191 NA
ENDBRANCH  13  16
ENDBRANCH   7  10
ENDBRANCH   4   7
BRANCH   1  18
ATOM     18  C   UNL     1       0.586  -4.180   0.224  0.00  0.00    +0.167 C 
ATOM     19  O   UNL     1       0.702  -4.687   1.319  0.00  0.00    -0.292 OA
BRANCH  18  24
ATOM     20  C   UNL     1      -0.548   1.437  -0.237  0.00  0.00    +0.044 C 
ATOM     21  C   UNL     1      -0.251  -0.036  -0.116  0.00  0.00    -0.050 A 
ATOM     22  C   UNL     1       0.012  -0.780  -1.253  0.00  0.00    +0.004 A 
ATOM     23  C   UNL     1       0.285  -2.128  -1.151  0.00  0.00    +0.012 A 
ATOM     24  C   UNL     1       0.296  -2.742   0.106  0.00  0.00    +0.021 A 
ATOM     25  C   UNL     1       0.029  -1.983   1.250  0.00  0.00    -0.040 A 
ATOM     26  C   UNL     1      -0.237  -0.635   1.131  0.00  0.00    +0.007 A 
ATOM     27  C   UNL     1       0.037  -2.635   2.608  0.00  0.00    +0.044 C 
ENDBRANCH  18  24
ENDBRANCH   1  18
TORSDOF 5
