REMARK  Name = ZINC06759252
REMARK  2 active torsions:
REMARK  status: ('A' for Active; 'I' for Inactive)
REMARK    1  A    between atoms: C_10  and  C_12
REMARK    2  A    between atoms: C_12  and  N_13
REMARK                            x       y       z     vdW  Elec       q    Type
REMARK                         _______ _______ _______ _____ _____    ______ ____
ROOT
ATOM      1  C   UNL     1       1.784  -1.058  -0.020  0.00  0.00    +0.224 C 
ENDROOT
BRANCH   1  11
ATOM      2  C   UNL     1      -1.245   3.128   0.029  0.00  0.00    +0.000 A 
ATOM      3  C   UNL     1      -1.217   1.746   0.017  0.00  0.00    +0.002 A 
ATOM      4  C   UNL     1      -0.013   1.076   0.008  0.00  0.00    +0.024 A 
ATOM      5  C   UNL     1       1.189   1.787   0.000  0.00  0.00    +0.040 A 
ATOM      6  C   UNL     1       1.150   3.172   0.008  0.00  0.00    -0.024 A 
ATOM      7  C   UNL     1      -0.060   3.840   0.023  0.00  0.00    +0.005 A 
ATOM      8  C   UNL     1       2.570   3.693  -0.003  0.00  0.00    +0.056 C 
ATOM      9  C   UNL     1       3.446   2.430  -0.018  0.00  0.00    +0.118 C 
ATOM     10  N   UNL     1       2.502   1.308  -0.015  0.00  0.00    -0.269 N 
ATOM     11  C   UNL     1       2.850   0.006  -0.024  0.00  0.00    +0.240 C 
ATOM     12  O   UNL     1       4.021  -0.308  -0.037  0.00  0.00    -0.273 OA
ENDBRANCH   1  11
BRANCH   1  13
ATOM     13  N   UNL     1       2.414  -2.381  -0.032  0.00  0.00    -0.265 N 
ATOM     14  C   UNL     1       2.753  -3.122  -1.163  0.00  0.00    +0.092 A 
ATOM     15  C   UNL     1       2.639  -2.887  -2.525  0.00  0.00    +0.049 A 
ATOM     16  C   UNL     1       3.084  -3.836  -3.426  0.00  0.00    +0.043 A 
ATOM     17  C   UNL     1       3.649  -5.016  -2.972  0.00  0.00    +0.024 A 
ATOM     18  C   UNL     1       3.771  -5.253  -1.617  0.00  0.00    +0.050 A 
ATOM     19  C   UNL     1       3.327  -4.308  -0.706  0.00  0.00    +0.157 A 
ATOM     20  O   UNL     1       3.315  -4.264   0.649  0.00  0.00    -0.407 OA
ATOM     21  C   UNL     1       2.766  -3.106   1.048  0.00  0.00    +0.422 A 
ATOM     22  O   UNL     1       2.612  -2.764   2.204  0.00  0.00    -0.223 OA
ATOM     23 CL   UNL     1       2.935  -3.547  -5.131  0.00  0.00    -0.083 Cl
ENDBRANCH   1  13
TORSDOF 2
