REMARK  Name = ZINC40634973
REMARK  6 active torsions:
REMARK  status: ('A' for Active; 'I' for Inactive)
REMARK    1  A    between atoms: C_1  and  C_2
REMARK    2  A    between atoms: C_5  and  S_9
REMARK    3  A    between atoms: C_6  and  C_8
REMARK    4  A    between atoms: S_9  and  N_12
REMARK    5  A    between atoms: C_13  and  C_21
REMARK    6  A    between atoms: C_18  and  C_20
REMARK                            x       y       z     vdW  Elec       q    Type
REMARK                         _______ _______ _______ _____ _____    ______ ____
ROOT
ATOM      1  S   UNL     1      -0.088  -5.625  -0.327  0.00  0.00    +0.062 S 
ATOM      2  O   UNL     1      -0.834  -5.478   0.874  0.00  0.00    -0.153 OA
ATOM      3  O   UNL     1      -0.363  -6.648  -1.274  0.00  0.00    -0.153 OA
ENDROOT
BRANCH   1   8
ATOM      4  C   UNL     1      -0.519  -0.380  -3.278  0.00  0.00    +0.044 C 
ATOM      5  C   UNL     1      -0.411  -1.690  -2.541  0.00  0.00    -0.050 A 
ATOM      6  C   UNL     1      -0.717  -2.874  -3.186  0.00  0.00    +0.005 A 
ATOM      7  C   UNL     1      -0.618  -4.075  -2.510  0.00  0.00    +0.029 A 
ATOM      8  C   UNL     1      -0.213  -4.094  -1.189  0.00  0.00    +0.108 A 
ATOM      9  C   UNL     1       0.095  -2.911  -0.544  0.00  0.00    -0.024 A 
ATOM     10  C   UNL     1      -0.000  -1.709  -1.221  0.00  0.00    +0.008 A 
ATOM     11  C   UNL     1       0.536  -2.931   0.897  0.00  0.00    +0.046 C 
ENDBRANCH   1   8
BRANCH   1  12
ATOM     12  N   UNL     1       1.496  -5.808   0.120  0.00  0.00    -0.167 NA
ATOM     13  C   UNL     1       2.563  -5.889  -0.890  0.00  0.00    +0.103 C 
ATOM     14  C   UNL     1       3.425  -7.120  -0.586  0.00  0.00    +0.180 C 
ATOM     15  O   UNL     1       3.845  -7.074   0.780  0.00  0.00    -0.377 OA
ATOM     16  C   UNL     1       2.773  -7.125   1.724  0.00  0.00    +0.180 C 
ATOM     17  C   UNL     1       1.879  -5.888   1.538  0.00  0.00    +0.103 C 
ATOM     18  C   UNL     1       0.625  -6.022   2.404  0.00  0.00    +0.028 C 
ATOM     19  C   UNL     1       1.945  -6.024  -2.283  0.00  0.00    +0.028 C 
ENDBRANCH   1  12
TORSDOF 2
