REMARK  Name = ZINC63964845
REMARK  9 active torsions:
REMARK  status: ('A' for Active; 'I' for Inactive)
REMARK    1  A    between atoms: C_1  and  O_2
REMARK    2  A    between atoms: O_2  and  C_3
REMARK    3  A    between atoms: C_6  and  O_9
REMARK    4  A    between atoms: O_9  and  C_10
REMARK    5  A    between atoms: C_12  and  C_28
REMARK    6  A    between atoms: N_14  and  C_17
REMARK    7  A    between atoms: C_17  and  C_18
REMARK    8  A    between atoms: C_18  and  C_19
REMARK    9  A    between atoms: C_31  and  C_34
REMARK                            x       y       z     vdW  Elec       q    Type
REMARK                         _______ _______ _______ _____ _____    ______ ____
ROOT
ATOM      1  C   UNL     1       2.580  -4.091   4.243  0.00  0.00    +0.283 C 
ATOM      2  C   UNL     1       2.366  -4.458   5.715  0.00  0.00    +0.156 C 
ATOM      3  N   UNL     1       3.710  -5.037   5.604  0.00  0.00    -0.287 N 
ATOM      4  C   UNL     1       3.943  -4.735   4.302  0.00  0.00    +0.259 C 
ATOM      5  O   UNL     1       4.854  -4.909   3.520  0.00  0.00    -0.271 OA
ENDROOT
BRANCH   2   6
ATOM      6  C   UNL     1       1.272  -5.469   5.945  0.00  0.00    -0.023 A 
ATOM      7  C   UNL     1       1.490  -6.800   5.638  0.00  0.00    +0.007 A 
ATOM      8  C   UNL     1       0.494  -7.731   5.846  0.00  0.00    +0.019 A 
ATOM      9  C   UNL     1      -0.737  -7.327   6.368  0.00  0.00    +0.052 A 
ATOM     10  C   UNL     1      -0.949  -5.982   6.677  0.00  0.00    +0.019 A 
ATOM     11  C   UNL     1       0.058  -5.063   6.468  0.00  0.00    +0.007 A 
BRANCH   9  12
ATOM     12  C   UNL     1      -1.776  -8.288   6.587  0.00  0.00    +0.099 C 
ATOM     13  N   UNL     1      -2.600  -9.051   6.760  0.00  0.00    -0.191 NA
ENDBRANCH   9  12
ENDBRANCH   2   6
BRANCH   1  14
ATOM     14  O   UNL     1       2.631  -2.681   4.014  0.00  0.00    -0.477 OA
BRANCH  14  18
ATOM     15  C   UNL     1       2.699  -1.422   0.083  0.00  0.00    +0.120 A 
ATOM     16  C   UNL     1       2.752  -2.776   0.379  0.00  0.00    +0.049 A 
ATOM     17  C   UNL     1       2.729  -3.198   1.694  0.00  0.00    +0.049 A 
ATOM     18  C   UNL     1       2.654  -2.267   2.719  0.00  0.00    +0.122 A 
ATOM     19  C   UNL     1       2.602  -0.912   2.424  0.00  0.00    +0.049 A 
ATOM     20  C   UNL     1       2.629  -0.491   1.109  0.00  0.00    +0.049 A 
BRANCH  15  22
ATOM     21  C   UNL     1       2.794  -2.021  -2.216  0.00  0.00    +0.277 C 
ATOM     22  O   UNL     1       2.721  -1.008  -1.212  0.00  0.00    -0.495 OA
ENDBRANCH  15  22
ENDBRANCH  14  18
ENDBRANCH   1  14
BRANCH   3  23
ATOM     23  C   UNL     1       4.541  -5.728   6.592  0.00  0.00    +0.113 C 
BRANCH  23  24
ATOM     24  C   UNL     1       5.480  -4.722   7.262  0.00  0.00    +0.052 C 
BRANCH  24  25
ATOM     25  C   UNL     1       6.402  -5.448   8.206  0.00  0.00    -0.040 C 
ATOM     26  C   UNL     1       7.655  -5.886   7.943  0.00  0.00    -0.001 A 
ATOM     27  C   UNL     1       8.500  -5.822   6.745  0.00  0.00    +0.010 A 
ATOM     28  C   UNL     1       9.739  -6.362   6.786  0.00  0.00    +0.001 A 
ATOM     29  C   UNL     1      10.235  -6.982   7.941  0.00  0.00    +0.002 A 
ATOM     30  C   UNL     1       9.518  -7.081   9.081  0.00  0.00    +0.026 A 
ATOM     31  C   UNL     1       8.202  -6.546   9.151  0.00  0.00    +0.043 A 
ATOM     32  N   UNL     1       7.322  -6.516  10.122  0.00  0.00    -0.380 N 
ATOM     33  C   UNL     1       6.118  -5.829   9.642  0.00  0.00    +0.144 C 
ATOM     34  H   UNL     1       7.448  -6.884  11.011  0.00  0.00    +0.160 HD
ENDBRANCH  24  25
ENDBRANCH  23  24
ENDBRANCH   3  23
TORSDOF 8
