REMARK  Name = ZINC20760439
REMARK  5 active torsions:
REMARK  status: ('A' for Active; 'I' for Inactive)
REMARK    1  A    between atoms: C_4  and  C_24
REMARK    2  A    between atoms: C_5  and  C_7
REMARK    3  A    between atoms: C_10  and  C_12
REMARK    4  A    between atoms: N_13  and  N_14
REMARK    5  A    between atoms: C_15  and  C_17
REMARK                            x       y       z     vdW  Elec       q    Type
REMARK                         _______ _______ _______ _____ _____    ______ ____
ROOT
ATOM      1  C   UNL     1      -1.299   2.117   0.020  0.00  0.00    +0.137 A 
ATOM      2  C   UNL     1      -2.345   1.896  -0.830  0.00  0.00    +0.050 A 
ATOM      3  C   UNL     1      -3.358   2.793  -0.475  0.00  0.00    +0.051 A 
ATOM      4  C   UNL     1      -2.880   3.538   0.583  0.00  0.00    +0.148 A 
ATOM      5  O   UNL     1      -1.633   3.111   0.865  0.00  0.00    -0.454 OA
ENDROOT
BRANCH   1  10
ATOM      6  C   UNL     1       1.205  -0.677  -0.013  0.00  0.00    +0.001 A 
ATOM      7  C   UNL     1       2.402   0.023  -0.021  0.00  0.00    +0.001 A 
ATOM      8  C   UNL     1       2.408   1.401  -0.013  0.00  0.00    +0.016 A 
ATOM      9  C   UNL     1       1.202   2.104   0.002  0.00  0.00    +0.074 A 
ATOM     10  C   UNL     1      -0.017   1.392   0.010  0.00  0.00    +0.031 A 
ATOM     11  C   UNL     1       0.002  -0.004   0.002  0.00  0.00    +0.012 A 
BRANCH   9  12
ATOM     12  C   UNL     1       1.201   3.577   0.009  0.00  0.00    +0.387 C 
ATOM     13  O   UNL     1       0.148   4.184   0.022  0.00  0.00    -0.241 OA
ATOM     14  O   UNL     1       2.368   4.251   0.002  0.00  0.00    -0.241 OA
ENDBRANCH   9  12
ENDBRANCH   1  10
BRANCH   4  15
ATOM     15  C   UNL     1      -3.601   4.605   1.278  0.00  0.00    +0.176 C 
ATOM     16  N   UNL     1      -3.035   5.236   2.267  0.00  0.00    -0.184 NA
BRANCH  16  17
ATOM     17  N   UNL     1      -3.725   6.258   2.932  0.00  0.00    -0.203 N 
ATOM     18  C   UNL     1      -3.140   6.911   3.955  0.00  0.00    +0.264 C 
ATOM     19  O   UNL     1      -2.012   6.613   4.301  0.00  0.00    -0.268 OA
ATOM     20  H   UNL     1      -4.745   6.527   2.619  0.00  0.00    +0.178 HD
BRANCH  18  21
ATOM     21  C   UNL     1      -3.867   7.988   4.657  0.00  0.00    +0.052 A 
ATOM     22  C   UNL     1      -5.160   8.336   4.259  0.00  0.00    +0.014 A 
ATOM     23  C   UNL     1      -5.835   9.339   4.922  0.00  0.00    +0.001 A 
ATOM     24  C   UNL     1      -5.232  10.008   5.973  0.00  0.00    +0.001 A 
ATOM     25  C   UNL     1      -3.950   9.673   6.369  0.00  0.00    +0.016 A 
ATOM     26  C   UNL     1      -3.263   8.667   5.718  0.00  0.00    +0.030 A 
ATOM     27 BR   UNL     1      -1.510   8.210   6.261  0.00  0.00    -0.050 Br
ENDBRANCH  18  21
ENDBRANCH  16  17
ENDBRANCH   4  15
TORSDOF 5
