REMARK  Name = ZINC03545676
REMARK  5 active torsions:
REMARK  status: ('A' for Active; 'I' for Inactive)
REMARK    1  A    between atoms: C_1  and  C_2
REMARK    2  A    between atoms: C_2  and  C_4
REMARK    3  A    between atoms: C_2  and  N_11
REMARK    4  A    between atoms: C_12  and  C_14
REMARK    5  A    between atoms: C_14  and  N_15
REMARK                            x       y       z     vdW  Elec       q    Type
REMARK                         _______ _______ _______ _____ _____    ______ ____
ROOT
ATOM      1  N   UNL     1       3.114   4.810  -0.119  0.00  0.00    -0.215 N 
ATOM      2  C   UNL     1       2.263   4.120  -0.906  0.00  0.00    +0.252 C 
ATOM      3  O   UNL     1       2.341   3.957  -2.105  0.00  0.00    -0.272 OA
ATOM      4  C   UNL     1       1.193   3.592   0.021  0.00  0.00    +0.144 C 
ATOM      5  C   UNL     1      -0.171   4.152  -0.368  0.00  0.00    +0.081 C 
ATOM      6  C   UNL     1      -1.248   3.393   0.418  0.00  0.00    +0.232 C 
ATOM      7  O   UNL     1      -1.217   2.022   0.019  0.00  0.00    -0.492 OA
ATOM      8  C   UNL     1      -0.017   1.386   0.010  0.00  0.00    +0.126 A 
ATOM      9  C   UNL     1       1.177   2.089   0.002  0.00  0.00    +0.027 A 
ATOM     10  C   UNL     1       2.379   1.403  -0.018  0.00  0.00    +0.010 A 
ATOM     11  C   UNL     1       2.394   0.021  -0.028  0.00  0.00    +0.001 A 
ATOM     12  C   UNL     1       1.204  -0.682  -0.017  0.00  0.00    +0.004 A 
ATOM     13  C   UNL     1       0.002  -0.004   0.002  0.00  0.00    +0.046 A 
ATOM     14  N   UNL     1       1.593   4.085   1.345  0.00  0.00    -0.281 N 
ATOM     15  C   UNL     1       2.728   4.787   1.163  0.00  0.00    +0.310 C 
ATOM     16  O   UNL     1       3.334   5.339   2.060  0.00  0.00    -0.252 OA
ATOM     17  H   UNL     1       1.131   3.936   2.185  0.00  0.00    +0.152 HD
ENDROOT
BRANCH   1  18
ATOM     18  C   UNL     1       4.312   5.498  -0.606  0.00  0.00    +0.213 C 
BRANCH  18  20
ATOM     19  N   UNL     1       4.912   7.741  -1.460  0.00  0.00    -0.307 N 
ATOM     20  C   UNL     1       3.960   6.914  -0.983  0.00  0.00    +0.231 C 
ATOM     21  O   UNL     1       2.821   7.309  -0.857  0.00  0.00    -0.274 OA
ATOM     22  H   UNL     1       5.823   7.424  -1.561  0.00  0.00    +0.149 HD
BRANCH  19  24
ATOM     23  C   UNL     1       4.628  10.006  -0.583  0.00  0.00    +0.033 C 
ATOM     24  C   UNL     1       4.569   9.117  -1.827  0.00  0.00    +0.100 C 
BRANCH  24  25
ATOM     25  C   UNL     1       5.551   9.623  -2.852  0.00  0.00    -0.027 A 
ATOM     26  C   UNL     1       6.894   9.317  -2.732  0.00  0.00    +0.008 A 
ATOM     27  C   UNL     1       7.794   9.777  -3.675  0.00  0.00    +0.038 A 
ATOM     28  C   UNL     1       7.353  10.552  -4.733  0.00  0.00    +0.123 A 
ATOM     29  C   UNL     1       6.008  10.862  -4.849  0.00  0.00    +0.038 A 
ATOM     30  C   UNL     1       5.109  10.398  -3.908  0.00  0.00    +0.008 A 
ATOM     31  F   UNL     1       8.233  11.006  -5.652  0.00  0.00    -0.205 F 
ENDBRANCH  24  25
ENDBRANCH  19  24
ENDBRANCH  18  20
ENDBRANCH   1  18
TORSDOF 4
