REMARK  Name = ZINC65406129
REMARK  8 active torsions:
REMARK  status: ('A' for Active; 'I' for Inactive)
REMARK    1  A    between atoms: C_1  and  C_2
REMARK    2  A    between atoms: C_2  and  C_3
REMARK    3  A    between atoms: C_2  and  C_4
REMARK    4  A    between atoms: N_7  and  C_9
REMARK    5  A    between atoms: C_14  and  C_16
REMARK    6  A    between atoms: C_19  and  S_21
REMARK    7  A    between atoms: S_21  and  C_22
REMARK    8  A    between atoms: N_26  and  C_27
REMARK                            x       y       z     vdW  Elec       q    Type
REMARK                         _______ _______ _______ _____ _____    ______ ____
ROOT
ATOM      1  C   UNL     1       0.707  -0.490  -1.238  0.00  0.00    +0.071 A 
ATOM      2  C   UNL     1       1.847  -1.280  -1.269  0.00  0.00    +0.026 A 
ATOM      3  C   UNL     1       2.168  -1.506  -2.582  0.00  0.00    +0.127 A 
ATOM      4  N   UNL     1       1.262  -0.870  -3.338  0.00  0.00    -0.253 N 
ATOM      5  N   UNL     1       0.347  -0.244  -2.476  0.00  0.00    -0.174 NA
ATOM      6  C   UNL     1       1.231  -0.836  -4.802  0.00  0.00    +0.174 C 
ATOM      7  N   UNL     1       3.262  -2.290  -2.948  0.00  0.00    -0.270 N 
ATOM      8  C   UNL     1       3.891  -2.994  -1.983  0.00  0.00    +0.219 C 
ATOM      9  O   UNL     1       4.949  -3.528  -2.241  0.00  0.00    -0.275 OA
ATOM     10  C   UNL     1       3.321  -3.139  -0.601  0.00  0.00    +0.112 C 
ATOM     11  C   UNL     1       2.664  -1.836  -0.131  0.00  0.00    +0.099 C 
ATOM     12  H   UNL     1       3.563  -2.327  -3.869  0.00  0.00    +0.156 HD
ENDROOT
BRANCH  11  13
ATOM     13  C   UNL     1       3.729  -0.844   0.262  0.00  0.00    +0.114 A 
ATOM     14  C   UNL     1       3.867  -0.281   1.475  0.00  0.00    +0.046 A 
ATOM     15  C   UNL     1       4.985   0.581   1.404  0.00  0.00    +0.057 A 
ATOM     16  C   UNL     1       5.468   0.492   0.142  0.00  0.00    +0.169 A 
ATOM     17  O   UNL     1       4.704  -0.378  -0.540  0.00  0.00    -0.453 OA
BRANCH  16  18
ATOM     18  S   UNL     1       6.862   1.361  -0.494  0.00  0.00    -0.012 S 
BRANCH  18  19
ATOM     19  C   UNL     1       6.973   0.823  -2.168  0.00  0.00    +0.199 A 
ATOM     20  N   UNL     1       6.175  -0.029  -2.768  0.00  0.00    -0.122 NA
ATOM     21  N   UNL     1       6.548  -0.191  -3.988  0.00  0.00    -0.137 NA
ATOM     22  C   UNL     1       7.597   0.540  -4.236  0.00  0.00    +0.225 A 
ATOM     23  N   UNL     1       7.902   1.217  -3.087  0.00  0.00    -0.311 N 
ATOM     24  C   UNL     1       9.001   2.165  -2.885  0.00  0.00    +0.152 C 
ENDBRANCH  18  19
ENDBRANCH  16  18
ENDBRANCH  11  13
BRANCH   1  26
ATOM     25  C   UNL     1      -0.019   1.526   0.010  0.00  0.00    +0.014 C 
ATOM     26  C   UNL     1       0.002  -0.004   0.002  0.00  0.00    +0.034 C 
ATOM     27  C   UNL     1      -1.433  -0.534   0.013  0.00  0.00    +0.014 C 
ENDBRANCH   1  26
TORSDOF 4
