REMARK  Name = ZINC45411571
REMARK  7 active torsions:
REMARK  status: ('A' for Active; 'I' for Inactive)
REMARK    1  A    between atoms: C_1  and  C_2
REMARK    2  A    between atoms: C_5  and  C_7
REMARK    3  A    between atoms: C_7  and  C_9
REMARK    4  A    between atoms: C_7  and  C_11
REMARK    5  A    between atoms: C_11  and  C_13
REMARK    6  A    between atoms: C_13  and  S_14
REMARK    7  A    between atoms: S_14  and  C_15
REMARK                            x       y       z     vdW  Elec       q    Type
REMARK                         _______ _______ _______ _____ _____    ______ ____
ROOT
ATOM      1  C   UNL     1       3.788  -6.151   4.624  0.00  0.00    +0.191 A 
ATOM      2  N   UNL     1       3.096  -5.853   5.718  0.00  0.00    -0.207 NA
ATOM      3  C   UNL     1       3.536  -6.148   6.930  0.00  0.00    +0.129 A 
ATOM      4  C   UNL     1       4.790  -6.804   7.074  0.00  0.00    +0.051 A 
ATOM      5  C   UNL     1       5.470  -7.221   8.303  0.00  0.00    -0.025 A 
ATOM      6  C   UNL     1       6.663  -7.832   8.165  0.00  0.00    -0.004 A 
ATOM      7  S   UNL     1       6.954  -7.890   6.417  0.00  0.00    -0.073 S 
ATOM      8  C   UNL     1       5.468  -7.090   5.872  0.00  0.00    +0.115 A 
ATOM      9  N   UNL     1       4.960  -6.768   4.698  0.00  0.00    -0.215 NA
ATOM     10  C   UNL     1       7.550  -8.348   9.257  0.00  0.00    +0.043 C 
ATOM     11  C   UNL     1       7.077  -7.749  10.589  0.00  0.00    +0.005 C 
ATOM     12  C   UNL     1       5.558  -7.912  10.688  0.00  0.00    +0.005 C 
ATOM     13  C   UNL     1       4.870  -6.984   9.686  0.00  0.00    +0.037 C 
ATOM     14  N   UNL     1       2.786  -5.820   8.045  0.00  0.00    -0.343 N 
ATOM     15  H   UNL     1       1.847  -5.595   7.949  0.00  0.00    +0.144 HD
ATOM     16  H   UNL     1       3.198  -5.817   8.923  0.00  0.00    +0.144 HD
ENDROOT
BRANCH   1  17
ATOM     17  S   UNL     1       3.133  -5.725   3.045  0.00  0.00    -0.078 S 
BRANCH  17  18
ATOM     18  C   UNL     1       1.554  -4.919   3.427  0.00  0.00    +0.153 C 
BRANCH  18  19
ATOM     19  C   UNL     1       0.880  -4.499   2.146  0.00  0.00    +0.167 C 
ATOM     20  O   UNL     1       1.411  -4.721   1.084  0.00  0.00    -0.295 OA
BRANCH  19  21
ATOM     21  C   UNL     1      -0.455  -3.803   2.189  0.00  0.00    +0.213 C 
BRANCH  21  26
ATOM     22  C   UNL     1      -1.150   0.405  -0.429  0.00  0.00    +0.066 C 
ATOM     23  C   UNL     1      -0.943  -1.084  -0.317  0.00  0.00    +0.046 A 
ATOM     24  C   UNL     1      -0.888  -1.877  -1.417  0.00  0.00    +0.070 A 
ATOM     25  S   UNL     1      -0.636  -3.474  -0.659  0.00  0.00    -0.079 S 
ATOM     26  C   UNL     1      -0.627  -2.969   0.946  0.00  0.00    +0.103 A 
ATOM     27  N   UNL     1      -0.802  -1.674   0.853  0.00  0.00    -0.247 NA
ENDBRANCH  21  26
BRANCH  21  28
ATOM     28  C   UNL     1      -1.530  -4.806   2.260  0.00  0.00    +0.080 C 
ATOM     29  N   UNL     1      -2.359  -5.581   2.314  0.00  0.00    -0.195 NA
ENDBRANCH  21  28
ENDBRANCH  19  21
ENDBRANCH  18  19
ENDBRANCH  17  18
ENDBRANCH   1  17
TORSDOF 6
