REMARK  Name = ZINC43715214
REMARK  6 active torsions:
REMARK  status: ('A' for Active; 'I' for Inactive)
REMARK    1  A    between atoms: C_1  and  N_2
REMARK    2  A    between atoms: N_2  and  C_3
REMARK    3  A    between atoms: C_4  and  C_6
REMARK    4  A    between atoms: C_6  and  N_7
REMARK    5  A    between atoms: N_10  and  N_11
REMARK    6  A    between atoms: N_11  and  C_12
REMARK                            x       y       z     vdW  Elec       q    Type
REMARK                         _______ _______ _______ _____ _____    ______ ____
ROOT
ATOM      1  N   UNL     1      -2.538  -2.725   0.449  0.00  0.00    -0.290 N 
ATOM      2  C   UNL     1      -2.757  -4.048   0.314  0.00  0.00    +0.316 C 
ATOM      3  O   UNL     1      -1.827  -4.828   0.380  0.00  0.00    -0.251 OA
ATOM      4  N   UNL     1      -4.008  -4.506   0.107  0.00  0.00    -0.220 N 
ATOM      5  H   UNL     1      -3.280  -2.103   0.397  0.00  0.00    +0.151 HD
ATOM      6  H   UNL     1      -4.166  -5.458   0.010  0.00  0.00    +0.174 HD
ENDROOT
BRANCH   4   7
ATOM      7  N   UNL     1      -5.080  -3.607   0.031  0.00  0.00    -0.261 N 
ATOM      8  H   UNL     1      -4.913  -2.651   0.045  0.00  0.00    +0.170 HD
BRANCH   7   9
ATOM      9  C   UNL     1      -6.390  -4.087  -0.065  0.00  0.00    +0.081 A 
ATOM     10  C   UNL     1      -7.324  -3.410  -0.839  0.00  0.00    +0.066 A 
ATOM     11  C   UNL     1      -8.619  -3.887  -0.931  0.00  0.00    +0.042 A 
ATOM     12  C   UNL     1      -8.984  -5.037  -0.253  0.00  0.00    +0.044 A 
ATOM     13  C   UNL     1      -8.056  -5.713   0.519  0.00  0.00    +0.042 A 
ATOM     14  C   UNL     1      -6.758  -5.244   0.610  0.00  0.00    +0.066 A 
ATOM     15 CL   UNL     1      -5.593  -6.097   1.573  0.00  0.00    -0.081 Cl
ATOM     16 CL   UNL     1     -10.611  -5.632  -0.371  0.00  0.00    -0.083 Cl
ATOM     17 CL   UNL     1      -6.867  -1.967  -1.689  0.00  0.00    -0.081 Cl
ENDBRANCH   7   9
ENDBRANCH   4   7
BRANCH   1  18
ATOM     18  C   UNL     1      -1.179  -2.227   0.674  0.00  0.00    +0.201 C 
BRANCH  18  22
ATOM     19  C   UNL     1      -0.089   1.417   1.111  0.00  0.00    +0.131 C 
ATOM     20  N   UNL     1      -0.062  -0.044   1.000  0.00  0.00    -0.306 N 
ATOM     21  C   UNL     1       1.208  -0.764   1.117  0.00  0.00    +0.131 C 
ATOM     22  C   UNL     1      -1.206  -0.725   0.789  0.00  0.00    +0.232 C 
ATOM     23  O   UNL     1      -2.258  -0.129   0.692  0.00  0.00    -0.274 OA
ENDBRANCH  18  22
ENDBRANCH   1  18
TORSDOF 4
