REMARK  Name = ZINC55296638
REMARK  4 active torsions:
REMARK  status: ('A' for Active; 'I' for Inactive)
REMARK    1  A    between atoms: C_1  and  C_2
REMARK    2  A    between atoms: C_4  and  C_7
REMARK    3  A    between atoms: C_7  and  C_8
REMARK    4  A    between atoms: C_12  and  N_14
REMARK                            x       y       z     vdW  Elec       q    Type
REMARK                         _______ _______ _______ _____ _____    ______ ____
ROOT
ATOM      1  C   UNL     1      -2.899  -2.787   1.164  0.00  0.00    +0.137 A 
ATOM      2  N   UNL     1      -2.678  -3.385   2.315  0.00  0.00    -0.236 NA
ATOM      3  C   UNL     1      -3.445  -3.145   3.377  0.00  0.00    +0.050 A 
ATOM      4  C   UNL     1      -4.482  -2.253   3.259  0.00  0.00    +0.013 A 
ATOM      5  C   UNL     1      -4.693  -1.636   2.020  0.00  0.00    +0.123 A 
ATOM      6  N   UNL     1      -3.883  -1.925   1.008  0.00  0.00    -0.217 NA
ATOM      7  C   UNL     1      -5.393  -1.905   4.403  0.00  0.00    +0.040 C 
ATOM      8  C   UNL     1      -5.290  -2.957   5.507  0.00  0.00    +0.005 C 
ATOM      9  C   UNL     1      -3.808  -3.167   5.841  0.00  0.00    +0.006 C 
ATOM     10  C   UNL     1      -3.140  -3.869   4.660  0.00  0.00    +0.056 C 
ENDROOT
BRANCH   5  11
ATOM     11  N   UNL     1      -5.731  -0.734   1.853  0.00  0.00    -0.343 N 
ATOM     12  H   UNL     1      -6.317  -0.525   2.597  0.00  0.00    +0.144 HD
ATOM     13  H   UNL     1      -5.872  -0.311   0.991  0.00  0.00    +0.144 HD
ENDBRANCH   5  11
BRANCH   1  14
ATOM     14  C   UNL     1      -1.999  -3.093  -0.006  0.00  0.00    +0.132 C 
BRANCH  14  18
ATOM     15  C   UNL     1      -0.018   1.503   0.010  0.00  0.00    +0.073 C 
ATOM     16  C   UNL     1       0.002  -0.004   0.002  0.00  0.00    +0.076 A 
ATOM     17  N   UNL     1      -1.013  -0.832   0.002  0.00  0.00    -0.249 NA
ATOM     18  C   UNL     1      -0.834  -2.137  -0.006  0.00  0.00    +0.056 A 
ATOM     19  C   UNL     1       0.449  -2.582  -0.014  0.00  0.00    +0.070 A 
ATOM     20  S   UNL     1       1.335  -1.032  -0.017  0.00  0.00    -0.081 S 
ENDBRANCH  14  18
ENDBRANCH   1  14
TORSDOF 3
