REMARK  Name = ZINC67089554
REMARK  4 active torsions:
REMARK  status: ('A' for Active; 'I' for Inactive)
REMARK    1  A    between atoms: C_6  and  C_7
REMARK    2  A    between atoms: C_7  and  C_10
REMARK    3  A    between atoms: C_10  and  N_11
REMARK    4  A    between atoms: C_20  and  C_22
REMARK                            x       y       z     vdW  Elec       q    Type
REMARK                         _______ _______ _______ _____ _____    ______ ____
ROOT
ATOM      1  N   UNL     1      -2.262   1.396   0.620  0.00  0.00    -0.298 N 
ATOM      2  C   UNL     1      -3.045   2.252   1.305  0.00  0.00    +0.302 C 
ATOM      3  O   UNL     1      -3.929   1.825   2.024  0.00  0.00    -0.253 OA
ATOM      4  N   UNL     1      -2.850   3.580   1.195  0.00  0.00    -0.283 N 
ATOM      5  C   UNL     1      -1.867   4.115   0.242  0.00  0.00    +0.128 C 
ATOM      6  C   UNL     1      -2.573   5.119  -0.679  0.00  0.00    +0.127 C 
ATOM      7  N   UNL     1      -3.339   6.059   0.151  0.00  0.00    -0.294 N 
ATOM      8  C   UNL     1      -4.321   5.524   1.104  0.00  0.00    +0.127 C 
ATOM      9  C   UNL     1      -3.620   4.521   2.021  0.00  0.00    +0.128 C 
ATOM     10  C   UNL     1      -3.143   7.388   0.041  0.00  0.00    +0.250 C 
ATOM     11  O   UNL     1      -3.701   8.150   0.806  0.00  0.00    -0.270 OA
ATOM     12  H   UNL     1      -1.605   1.736  -0.008  0.00  0.00    +0.150 HD
ENDROOT
BRANCH  10  13
ATOM     13  C   UNL     1      -2.253   7.917  -1.008  0.00  0.00    +0.074 A 
ATOM     14  C   UNL     1      -2.063   7.383  -2.365  0.00  0.00    +0.054 A 
ATOM     15  C   UNL     1      -1.165   8.186  -2.955  0.00  0.00    +0.195 A 
ATOM     16  O   UNL     1      -0.799   9.146  -2.091  0.00  0.00    -0.470 OA
ATOM     17  C   UNL     1      -1.439   9.008  -0.926  0.00  0.00    +0.207 A 
ENDBRANCH  10  13
BRANCH   1  18
ATOM     18  C   UNL     1      -2.401  -0.048   0.823  0.00  0.00    +0.117 C 
BRANCH  18  19
ATOM     19  C   UNL     1      -1.321  -0.782   0.026  0.00  0.00    +0.011 C 
ATOM     20  C   UNL     1      -0.971  -2.208   0.457  0.00  0.00    +0.014 C 
ATOM     21  C   UNL     1       0.008  -1.064   0.731  0.00  0.00    +0.014 C 
BRANCH  19  27
ATOM     22  C   UNL     1      -2.449  -0.311  -2.158  0.00  0.00    +0.005 A 
ATOM     23  C   UNL     1      -2.407  -0.023  -3.509  0.00  0.00    +0.020 A 
ATOM     24  C   UNL     1      -1.188   0.107  -4.151  0.00  0.00    +0.041 A 
ATOM     25  C   UNL     1      -0.012  -0.051  -3.439  0.00  0.00    +0.020 A 
ATOM     26  C   UNL     1      -0.056  -0.339  -2.088  0.00  0.00    +0.005 A 
ATOM     27  C   UNL     1      -1.274  -0.469  -1.447  0.00  0.00    -0.040 A 
ATOM     28 CL   UNL     1      -1.135   0.468  -5.848  0.00  0.00    -0.084 Cl
ENDBRANCH  19  27
ENDBRANCH  18  19
ENDBRANCH   1  18
TORSDOF 4
