REMARK  Name = ZINC65610518
REMARK  7 active torsions:
REMARK  status: ('A' for Active; 'I' for Inactive)
REMARK    1  A    between atoms: C_1  and  C_2
REMARK    2  A    between atoms: C_4  and  C_15
REMARK    3  A    between atoms: C_6  and  C_12
REMARK    4  A    between atoms: N_9  and  C_11
REMARK    5  A    between atoms: C_19  and  C_25
REMARK    6  A    between atoms: C_21  and  C_23
REMARK    7  A    between atoms: C_21  and  C_24
REMARK                            x       y       z     vdW  Elec       q    Type
REMARK                         _______ _______ _______ _____ _____    ______ ____
ROOT
ATOM      1  C   UNL     1       0.605   1.464  -0.103  0.00  0.00    +0.068 C 
ATOM      2  C   UNL     1       0.524  -0.041  -0.105  0.00  0.00    +0.070 A 
ATOM      3  C   UNL     1       0.158  -0.844  -1.206  0.00  0.00    +0.054 A 
ATOM      4  C   UNL     1      -0.218  -0.567  -2.539  0.00  0.00    +0.051 A 
ATOM      5  C   UNL     1      -0.519  -1.645  -3.368  0.00  0.00    +0.037 A 
ATOM      6  C   UNL     1      -0.439  -2.934  -2.862  0.00  0.00    +0.047 A 
ATOM      7  N   UNL     1      -0.086  -3.167  -1.617  0.00  0.00    -0.232 NA
ATOM      8  C   UNL     1       0.213  -2.186  -0.777  0.00  0.00    +0.159 A 
ATOM      9  N   UNL     1       0.600  -2.155   0.537  0.00  0.00    -0.249 N 
ATOM     10  N   UNL     1       0.785  -0.818   0.907  0.00  0.00    -0.174 NA
ATOM     11  C   UNL     1       0.792  -3.321   1.403  0.00  0.00    +0.174 C 
ENDROOT
BRANCH   4  12
ATOM     12  C   UNL     1      -0.291   0.823  -3.039  0.00  0.00    +0.248 C 
ATOM     13  O   UNL     1       0.663   1.565  -2.911  0.00  0.00    -0.270 OA
ATOM     14  N   UNL     1      -1.416   1.267  -3.635  0.00  0.00    -0.292 N 
ATOM     15  C   UNL     1      -2.626   0.432  -3.685  0.00  0.00    +0.139 C 
ATOM     16  C   UNL     1      -3.124   0.388  -5.134  0.00  0.00    +0.133 C 
ATOM     17  O   UNL     1      -3.253   1.724  -5.628  0.00  0.00    -0.368 OA
ATOM     18  C   UNL     1      -2.023   2.451  -5.676  0.00  0.00    +0.080 C 
ATOM     19  C   UNL     1      -1.470   2.603  -4.250  0.00  0.00    +0.142 C 
ATOM     20  C   UNL     1      -1.014   1.693  -6.541  0.00  0.00    +0.043 C 
ATOM     21  C   UNL     1      -2.271   3.837  -6.276  0.00  0.00    +0.043 C 
ATOM     22  C   UNL     1      -4.485  -0.309  -5.187  0.00  0.00    +0.039 C 
ENDBRANCH   4  12
BRANCH   6  23
ATOM     23  C   UNL     1      -0.765  -4.098  -3.762  0.00  0.00    +0.038 C 
ATOM     24  C   UNL     1      -0.794  -3.839  -5.270  0.00  0.00    +0.010 C 
ATOM     25  C   UNL     1       0.355  -4.638  -4.653  0.00  0.00    +0.010 C 
ENDBRANCH   6  23
TORSDOF 2
