REMARK  Name = ZINC05863745
REMARK  8 active torsions:
REMARK  status: ('A' for Active; 'I' for Inactive)
REMARK    1  A    between atoms: C_1  and  C_2
REMARK    2  A    between atoms: C_4  and  C_28
REMARK    3  A    between atoms: C_5  and  N_9
REMARK    4  A    between atoms: C_6  and  C_8
REMARK    5  A    between atoms: C_11  and  C_18
REMARK    6  A    between atoms: C_13  and  C_16
REMARK    7  A    between atoms: C_18  and  C_20
REMARK    8  A    between atoms: C_25  and  O_26
REMARK                            x       y       z     vdW  Elec       q    Type
REMARK                         _______ _______ _______ _____ _____    ______ ____
ROOT
ATOM      1  N   UNL     1      -0.010   3.861   0.047  0.00  0.00    -0.282 N 
ATOM      2  C   UNL     1       1.153   3.187   0.034  0.00  0.00    +0.106 A 
ATOM      3  C   UNL     1       1.188   1.806  -0.002  0.00  0.00    +0.040 A 
ATOM      4  C   UNL     1      -0.013   1.066  -0.027  0.00  0.00    +0.037 A 
ATOM      5  C   UNL     1      -1.220   1.753  -0.019  0.00  0.00    +0.117 A 
ATOM      6  C   UNL     1      -1.192   3.217   0.025  0.00  0.00    +0.273 A 
ATOM      7  O   UNL     1      -2.234   3.849   0.037  0.00  0.00    -0.266 OA
ENDROOT
BRANCH   1  12
ATOM      8  C   UNL     1       0.061   9.533   0.196  0.00  0.00    +0.044 C 
ATOM      9  C   UNL     1       0.043   8.027   0.157  0.00  0.00    -0.050 A 
ATOM     10  C   UNL     1       0.039   7.368  -1.060  0.00  0.00    +0.008 A 
ATOM     11  C   UNL     1       0.022   5.988  -1.099  0.00  0.00    -0.026 A 
ATOM     12  C   UNL     1       0.008   5.261   0.084  0.00  0.00    +0.055 A 
ATOM     13  C   UNL     1       0.006   5.925   1.303  0.00  0.00    -0.026 A 
ATOM     14  C   UNL     1       0.028   7.306   1.336  0.00  0.00    +0.008 A 
ATOM     15  C   UNL     1      -0.014   5.140   2.590  0.00  0.00    +0.046 C 
ATOM     16  C   UNL     1       0.018   5.271  -2.425  0.00  0.00    +0.046 C 
ENDBRANCH   1  12
BRANCH   5  17
ATOM     17  C   UNL     1      -2.464   1.045  -0.050  0.00  0.00    +0.105 C 
ATOM     18  N   UNL     1      -3.451   0.484  -0.073  0.00  0.00    -0.191 NA
ENDBRANCH   5  17
BRANCH   3  19
ATOM     19  C   UNL     1       2.484   1.103  -0.016  0.00  0.00    +0.198 C 
ATOM     20  O   UNL     1       3.225   1.210  -0.975  0.00  0.00    -0.286 OA
BRANCH  19  21
ATOM     21  C   UNL     1       2.883   0.270   1.134  0.00  0.00    +0.065 A 
ATOM     22  C   UNL     1       1.998   0.068   2.197  0.00  0.00    +0.035 A 
ATOM     23  C   UNL     1       2.376  -0.716   3.266  0.00  0.00    +0.042 A 
ATOM     24  C   UNL     1       3.634  -1.298   3.296  0.00  0.00    +0.023 A 
ATOM     25  C   UNL     1       4.520  -1.102   2.255  0.00  0.00    +0.047 A 
ATOM     26  C   UNL     1       4.155  -0.321   1.169  0.00  0.00    +0.128 A 
ATOM     27 CL   UNL     1       1.274  -0.971   4.583  0.00  0.00    -0.084 Cl
BRANCH  26  28
ATOM     28  O   UNL     1       5.024  -0.128   0.146  0.00  0.00    -0.506 OA
ATOM     29  H   UNL     1       5.597   0.644   0.256  0.00  0.00    +0.292 HD
ENDBRANCH  26  28
ENDBRANCH  19  21
ENDBRANCH   3  19
TORSDOF 5
