REMARK  Name = ZINC66956177
REMARK  9 active torsions:
REMARK  status: ('A' for Active; 'I' for Inactive)
REMARK    1  A    between atoms: C_1  and  C_2
REMARK    2  A    between atoms: C_7  and  C_11
REMARK    3  A    between atoms: C_11  and  N_12
REMARK    4  A    between atoms: N_15  and  C_16
REMARK    5  A    between atoms: C_21  and  S_22
REMARK    6  A    between atoms: S_22  and  C_23
REMARK    7  A    between atoms: C_23  and  C_25
REMARK    8  A    between atoms: C_23  and  C_26
REMARK    9  A    between atoms: C_26  and  C_27
REMARK                            x       y       z     vdW  Elec       q    Type
REMARK                         _______ _______ _______ _____ _____    ______ ____
ROOT
ATOM      1  N   UNL     1       1.444  -5.982   2.479  0.00  0.00    -0.294 N 
ATOM      2  C   UNL     1       1.667  -7.065   3.248  0.00  0.00    +0.304 C 
ATOM      3  O   UNL     1       0.739  -7.616   3.808  0.00  0.00    -0.252 OA
ATOM      4  N   UNL     1       2.920  -7.539   3.397  0.00  0.00    -0.268 N 
ATOM      5  H   UNL     1       2.185  -5.543   2.032  0.00  0.00    +0.151 HD
ATOM      6  H   UNL     1       3.653  -7.137   2.904  0.00  0.00    +0.156 HD
ENDROOT
BRANCH   4   7
ATOM      7  C   UNL     1       3.165  -8.614   4.263  0.00  0.00    +0.048 A 
ATOM      8  C   UNL     1       2.203  -9.597   4.441  0.00  0.00    +0.024 A 
ATOM      9  C   UNL     1       2.446 -10.655   5.296  0.00  0.00    +0.002 A 
ATOM     10  C   UNL     1       3.647 -10.739   5.976  0.00  0.00    +0.001 A 
ATOM     11  C   UNL     1       4.612  -9.764   5.805  0.00  0.00    +0.016 A 
ATOM     12  C   UNL     1       4.379  -8.701   4.944  0.00  0.00    +0.029 A 
BRANCH  12  13
ATOM     13  S   UNL     1       5.610  -7.461   4.718  0.00  0.00    -0.119 S 
BRANCH  13  14
ATOM     14  C   UNL     1       7.031  -8.075   5.665  0.00  0.00    +0.062 C 
ATOM     15  C   UNL     1       7.600  -9.320   4.981  0.00  0.00    +0.020 C 
BRANCH  14  16
ATOM     16  C   UNL     1       8.108  -6.991   5.728  0.00  0.00    +0.132 C 
BRANCH  16  17
ATOM     17  C   UNL     1       7.601  -5.838   6.490  0.00  0.00    +0.064 C 
ATOM     18  N   UNL     1       7.209  -4.949   7.079  0.00  0.00    -0.197 NA
ENDBRANCH  16  17
ENDBRANCH  14  16
ENDBRANCH  13  14
ENDBRANCH  12  13
ENDBRANCH   4   7
BRANCH   1  19
ATOM     19  C   UNL     1       0.082  -5.466   2.317  0.00  0.00    +0.160 C 
BRANCH  19  26
ATOM     20  C   UNL     1       0.252   1.178  -0.915  0.00  0.00    +0.045 C 
ATOM     21  C   UNL     1       0.200  -0.317  -0.730  0.00  0.00    -0.034 A 
ATOM     22  C   UNL     1       0.140  -1.159  -1.853  0.00  0.00    +0.008 A 
ATOM     23  C   UNL     1       0.094  -2.508  -1.682  0.00  0.00    +0.045 A 
ATOM     24  C   UNL     1       0.107  -3.039  -0.377  0.00  0.00    +0.115 A 
ATOM     25  N   UNL     1       0.071  -4.282   0.081  0.00  0.00    -0.342 N 
ATOM     26  C   UNL     1       0.105  -4.259   1.416  0.00  0.00    +0.051 A 
ATOM     27  C   UNL     1       0.165  -2.972   1.823  0.00  0.00    +0.115 A 
ATOM     28  N   UNL     1       0.166  -2.192   0.699  0.00  0.00    -0.308 N 
ATOM     29  C   UNL     1       0.217  -0.841   0.513  0.00  0.00    +0.096 A 
ATOM     30  H   UNL     1       0.027  -5.082  -0.466  0.00  0.00    +0.167 HD
ENDBRANCH  19  26
ENDBRANCH   1  19
TORSDOF 7
