REMARK  Name = ZINC00503808
REMARK  5 active torsions:
REMARK  status: ('A' for Active; 'I' for Inactive)
REMARK    1  A    between atoms: C_1  and  N_2
REMARK    2  A    between atoms: C_4  and  C_11
REMARK    3  A    between atoms: C_12  and  C_13
REMARK    4  A    between atoms: C_12  and  C_15
REMARK    5  A    between atoms: N_17  and  C_18
REMARK                            x       y       z     vdW  Elec       q    Type
REMARK                         _______ _______ _______ _____ _____    ______ ____
ROOT
ATOM      1  C   UNL     1       1.740  -1.778   0.103  0.00  0.00    +0.034 C 
ATOM      2  C   UNL     1       0.825  -2.815   0.162  0.00  0.00    +0.114 C 
ENDROOT
BRANCH   1   6
ATOM      3  C   UNL     1      -1.089   2.137   1.187  0.00  0.00    +0.149 C 
ATOM      4  N   UNL     1       0.046   1.335   0.723  0.00  0.00    -0.349 N 
ATOM      5  C   UNL     1       0.097  -0.011   0.759  0.00  0.00    +0.094 A 
ATOM      6  C   UNL     1       1.304  -0.442   0.240  0.00  0.00    +0.002 A 
ATOM      7  C   UNL     1       2.044   0.777  -0.144  0.00  0.00    +0.007 A 
ATOM      8  C   UNL     1       1.205   1.854   0.183  0.00  0.00    +0.049 A 
ATOM      9  C   UNL     1       1.637   3.153  -0.066  0.00  0.00    +0.026 A 
ATOM     10  C   UNL     1       2.876   3.370  -0.629  0.00  0.00    +0.002 A 
ATOM     11  C   UNL     1       3.703   2.305  -0.951  0.00  0.00    +0.001 A 
ATOM     12  C   UNL     1       3.293   1.010  -0.711  0.00  0.00    +0.010 A 
ENDBRANCH   1   6
BRANCH   2  13
ATOM     13  C   UNL     1       1.293  -4.205   0.229  0.00  0.00    +0.259 C 
ATOM     14  O   UNL     1       2.486  -4.445   0.233  0.00  0.00    -0.269 OA
ATOM     15  N   UNL     1       0.402  -5.214   0.286  0.00  0.00    -0.280 N 
ATOM     16  H   UNL     1      -0.545  -5.030   0.189  0.00  0.00    +0.155 HD
BRANCH  15  17
ATOM     17  C   UNL     1       0.843  -6.527   0.485  0.00  0.00    +0.052 A 
ATOM     18  C   UNL     1       2.076  -6.764   1.079  0.00  0.00    +0.025 A 
ATOM     19  C   UNL     1       2.507  -8.061   1.278  0.00  0.00    +0.002 A 
ATOM     20  C   UNL     1       1.717  -9.123   0.878  0.00  0.00    +0.002 A 
ATOM     21  C   UNL     1       0.492  -8.891   0.282  0.00  0.00    +0.022 A 
ATOM     22  C   UNL     1       0.052  -7.596   0.084  0.00  0.00    +0.062 A 
ATOM     23 CL   UNL     1      -1.487  -7.306  -0.665  0.00  0.00    -0.082 Cl
ENDBRANCH  15  17
ENDBRANCH   2  13
BRANCH   2  24
ATOM     24  C   UNL     1      -0.579  -2.532   0.158  0.00  0.00    +0.104 C 
ATOM     25  N   UNL     1      -1.692  -2.307   0.154  0.00  0.00    -0.191 NA
ENDBRANCH   2  24
TORSDOF 4
