REMARK  Name = ZINC40038458
REMARK  9 active torsions:
REMARK  status: ('A' for Active; 'I' for Inactive)
REMARK    1  A    between atoms: C_1  and  C_2
REMARK    2  A    between atoms: C_6  and  C_34
REMARK    3  A    between atoms: C_7  and  C_12
REMARK    4  A    between atoms: C_10  and  C_11
REMARK    5  A    between atoms: N_14  and  C_15
REMARK    6  A    between atoms: C_18  and  S_21
REMARK    7  A    between atoms: S_21  and  N_24
REMARK    8  A    between atoms: C_26  and  C_33
REMARK    9  A    between atoms: C_29  and  C_32
REMARK                            x       y       z     vdW  Elec       q    Type
REMARK                         _______ _______ _______ _____ _____    ______ ____
ROOT
ATOM      1  C   UNL     1       0.024  -6.586   4.586  0.00  0.00    +0.034 A 
ATOM      2  C   UNL     1       0.049  -7.843   3.995  0.00  0.00    +0.025 A 
ATOM      3  C   UNL     1      -0.022  -8.975   4.782  0.00  0.00    +0.030 A 
ATOM      4  C   UNL     1      -0.118  -8.859   6.157  0.00  0.00    +0.106 A 
ATOM      5  C   UNL     1      -0.143  -7.609   6.748  0.00  0.00    +0.030 A 
ATOM      6  C   UNL     1      -0.067  -6.473   5.967  0.00  0.00    +0.025 A 
ENDROOT
BRANCH   1   9
ATOM      7  C   UNL     1      -0.496  -5.417   2.581  0.00  0.00    +0.284 C 
ATOM      8  O   UNL     1      -1.019  -6.424   2.143  0.00  0.00    -0.266 OA
ATOM      9  N   UNL     1       0.095  -5.437   3.792  0.00  0.00    -0.279 N 
ATOM     10  H   UNL     1       0.570  -4.654   4.113  0.00  0.00    +0.155 HD
BRANCH   7  17
ATOM     11  C   UNL     1       0.286   1.458  -0.068  0.00  0.00    +0.044 C 
ATOM     12  C   UNL     1      -0.111   0.007   0.022  0.00  0.00    -0.044 A 
ATOM     13  C   UNL     1      -0.806  -0.581  -1.026  0.00  0.00    +0.004 A 
ATOM     14  C   UNL     1      -1.174  -1.895  -0.962  0.00  0.00    +0.012 A 
ATOM     15  C   UNL     1      -0.847  -2.652   0.166  0.00  0.00    +0.024 A 
ATOM     16  C   UNL     1      -1.073  -4.041   0.562  0.00  0.00    +0.008 A 
ATOM     17  C   UNL     1      -0.509  -4.178   1.790  0.00  0.00    +0.194 A 
ATOM     18  O   UNL     1       0.036  -3.006   2.175  0.00  0.00    -0.450 OA
ATOM     19  C   UNL     1      -0.142  -2.061   1.231  0.00  0.00    +0.139 A 
ATOM     20  C   UNL     1       0.226  -0.723   1.141  0.00  0.00    -0.005 A 
ATOM     21  C   UNL     1       0.985  -0.071   2.268  0.00  0.00    +0.048 C 
ATOM     22  C   UNL     1      -1.788  -5.104  -0.231  0.00  0.00    +0.048 C 
ENDBRANCH   7  17
ENDBRANCH   1   9
BRANCH   4  23
ATOM     23  S   UNL     1      -0.207 -10.307   7.157  0.00  0.00    +0.061 S 
ATOM     24  O   UNL     1      -0.840  -9.924   8.370  0.00  0.00    -0.153 OA
ATOM     25  O   UNL     1      -0.715 -11.343   6.327  0.00  0.00    -0.153 OA
BRANCH  23  26
ATOM     26  N   UNL     1       1.345 -10.730   7.546  0.00  0.00    -0.172 NA
ATOM     27  C   UNL     1       2.121 -11.638   6.686  0.00  0.00    +0.140 C 
ATOM     28  C   UNL     1       2.710 -12.749   7.563  0.00  0.00    +0.131 C 
ATOM     29  O   UNL     1       3.411 -12.161   8.661  0.00  0.00    -0.371 OA
ATOM     30  C   UNL     1       2.585 -11.391   9.538  0.00  0.00    +0.131 C 
ATOM     31  C   UNL     1       1.992 -10.205   8.759  0.00  0.00    +0.140 C 
ATOM     32  C   UNL     1       3.426 -10.866  10.703  0.00  0.00    +0.039 C 
ATOM     33  C   UNL     1       3.676 -13.597   6.733  0.00  0.00    +0.039 C 
ENDBRANCH  23  26
ENDBRANCH   4  23
TORSDOF 4
