REMARK  Name = ZINC46642549
REMARK  6 active torsions:
REMARK  status: ('A' for Active; 'I' for Inactive)
REMARK    1  A    between atoms: C_1  and  C_2
REMARK    2  A    between atoms: C_5  and  N_9
REMARK    3  A    between atoms: C_11  and  C_16
REMARK    4  A    between atoms: N_18  and  N_19
REMARK    5  A    between atoms: C_20  and  C_22
REMARK    6  A    between atoms: C_23  and  C_31
REMARK                            x       y       z     vdW  Elec       q    Type
REMARK                         _______ _______ _______ _____ _____    ______ ____
ROOT
ATOM      1  C   UNL     1      -0.793  -6.581  -1.968  0.00  0.00    +0.234 C 
ATOM      2  O   UNL     1      -1.232  -5.674  -2.642  0.00  0.00    -0.274 OA
ATOM      3  N   UNL     1      -0.423  -7.738  -2.552  0.00  0.00    -0.234 N 
ATOM      4  H   UNL     1      -0.072  -8.464  -2.012  0.00  0.00    +0.173 HD
ENDROOT
BRANCH   1   7
ATOM      5  N   UNL     1       0.059  -4.172  -0.025  0.00  0.00    -0.268 N 
ATOM      6  C   UNL     1      -1.142  -5.016  -0.030  0.00  0.00    +0.127 C 
ATOM      7  C   UNL     1      -0.661  -6.415  -0.475  0.00  0.00    +0.103 C 
ATOM      8  C   UNL     1       0.826  -6.387  -0.051  0.00  0.00    +0.110 C 
ATOM      9  C   UNL     1       1.178  -4.916  -0.037  0.00  0.00    +0.221 C 
ATOM     10  O   UNL     1       2.307  -4.472  -0.034  0.00  0.00    -0.275 OA
BRANCH   5  15
ATOM     11  C   UNL     1      -0.018   1.503   0.010  0.00  0.00    +0.044 C 
ATOM     12  C   UNL     1       0.002  -0.004   0.002  0.00  0.00    -0.048 A 
ATOM     13  C   UNL     1       0.006  -0.687  -1.200  0.00  0.00    +0.005 A 
ATOM     14  C   UNL     1       0.025  -2.068  -1.212  0.00  0.00    +0.026 A 
ATOM     15  C   UNL     1       0.040  -2.772  -0.016  0.00  0.00    +0.072 A 
ATOM     16  C   UNL     1       0.037  -2.083   1.192  0.00  0.00    +0.145 A 
ATOM     17  C   UNL     1       0.023  -0.700   1.196  0.00  0.00    +0.043 A 
ATOM     18  F   UNL     1       0.051  -2.764   2.359  0.00  0.00    -0.204 F 
ENDBRANCH   5  15
ENDBRANCH   1   7
BRANCH   3  19
ATOM     19  N   UNL     1      -0.546  -7.893  -3.939  0.00  0.00    -0.228 N 
ATOM     20  C   UNL     1      -0.176  -9.049  -4.524  0.00  0.00    +0.296 C 
ATOM     21  O   UNL     1       0.264  -9.959  -3.847  0.00  0.00    -0.265 OA
ATOM     22  H   UNL     1      -0.897  -7.167  -4.479  0.00  0.00    +0.173 HD
BRANCH  20  23
ATOM     23  C   UNL     1      -0.305  -9.211  -5.979  0.00  0.00    +0.195 A 
ATOM     24  C   UNL     1       0.029 -10.329  -6.673  0.00  0.00    +0.008 A 
ATOM     25  C   UNL     1      -0.265 -10.038  -8.076  0.00  0.00    +0.024 A 
ATOM     26  C   UNL     1      -0.146 -10.760  -9.266  0.00  0.00    +0.012 A 
ATOM     27  C   UNL     1      -0.519 -10.184 -10.447  0.00  0.00    +0.001 A 
ATOM     28  C   UNL     1      -1.016  -8.888 -10.472  0.00  0.00    +0.004 A 
ATOM     29  C   UNL     1      -1.141  -8.159  -9.310  0.00  0.00    +0.047 A 
ATOM     30  C   UNL     1      -0.768  -8.724  -8.095  0.00  0.00    +0.136 A 
ATOM     31  O   UNL     1      -0.779  -8.274  -6.826  0.00  0.00    -0.450 OA
ATOM     32  C   UNL     1       0.590 -11.611  -6.112  0.00  0.00    +0.048 C 
ENDBRANCH  20  23
ENDBRANCH   3  19
TORSDOF 4
