REMARK  Name = ZINC55527733
REMARK  8 active torsions:
REMARK  status: ('A' for Active; 'I' for Inactive)
REMARK    1  A    between atoms: C_1  and  C_2
REMARK    2  A    between atoms: C_2  and  N_3
REMARK    3  A    between atoms: C_9  and  C_11
REMARK    4  A    between atoms: C_11  and  N_12
REMARK    5  A    between atoms: C_18  and  C_21
REMARK    6  A    between atoms: C_21  and  C_22
REMARK    7  A    between atoms: C_21  and  C_23
REMARK    8  A    between atoms: C_21  and  C_24
REMARK                            x       y       z     vdW  Elec       q    Type
REMARK                         _______ _______ _______ _____ _____    ______ ____
ROOT
ATOM      1  N   UNL     1      -5.231  -4.972  -2.287  0.00  0.00    -0.215 N 
ATOM      2  C   UNL     1      -6.557  -5.153  -2.109  0.00  0.00    +0.247 C 
ATOM      3  O   UNL     1      -7.225  -4.798  -1.162  0.00  0.00    -0.273 OA
ATOM      4  C   UNL     1      -7.032  -5.891  -3.340  0.00  0.00    +0.113 C 
ATOM      5  C   UNL     1      -7.611  -7.248  -2.955  0.00  0.00    +0.035 C 
ATOM      6  C   UNL     1      -8.058  -7.991  -4.217  0.00  0.00    +0.006 C 
ATOM      7  C   UNL     1      -9.110  -7.158  -4.952  0.00  0.00    -0.005 C 
ATOM      8  C   UNL     1      -8.508  -5.810  -5.351  0.00  0.00    +0.006 C 
ATOM      9  C   UNL     1      -8.063  -5.058  -4.094  0.00  0.00    +0.035 C 
ATOM     10  N   UNL     1      -5.816  -6.060  -4.146  0.00  0.00    -0.285 N 
ATOM     11  C   UNL     1      -4.816  -5.486  -3.451  0.00  0.00    +0.310 C 
ATOM     12  O   UNL     1      -3.664  -5.442  -3.836  0.00  0.00    -0.252 OA
ATOM     13  H   UNL     1      -5.748  -6.495  -5.010  0.00  0.00    +0.151 HD
ENDROOT
BRANCH   7  14
ATOM     14  C   UNL     1      -9.566  -7.905  -6.207  0.00  0.00    -0.035 C 
ATOM     15  C   UNL     1     -10.170  -9.253  -5.807  0.00  0.00    +0.011 C 
ATOM     16  C   UNL     1     -10.619  -7.072  -6.942  0.00  0.00    +0.011 C 
ATOM     17  C   UNL     1      -8.366  -8.136  -7.127  0.00  0.00    +0.011 C 
ENDBRANCH   7  14
BRANCH   1  18
ATOM     18  C   UNL     1      -4.357  -4.292  -1.328  0.00  0.00    +0.213 C 
BRANCH  18  25
ATOM     19  N   UNL     1      -1.376  -0.512   0.012  0.00  0.00    +0.382 N 
ATOM     20  C   UNL     1      -2.051  -0.116  -1.230  0.00  0.00    -0.060 C 
ATOM     21  C   UNL     1      -3.521  -0.546  -1.171  0.00  0.00    +0.089 C 
ATOM     22  N   UNL     1      -3.574  -1.988  -0.884  0.00  0.00    -0.304 N 
ATOM     23  C   UNL     1      -2.790  -2.499   0.251  0.00  0.00    +0.089 C 
ATOM     24  C   UNL     1      -1.355  -1.976   0.125  0.00  0.00    -0.060 C 
ATOM     25  C   UNL     1      -4.319  -2.818  -1.641  0.00  0.00    +0.233 C 
ATOM     26  O   UNL     1      -4.959  -2.379  -2.572  0.00  0.00    -0.274 OA
ATOM     27  H   UNL     1      -1.871  -0.123   0.801  0.00  0.00    -0.082 HD
BRANCH  19  29
ATOM     28  C   UNL     1      -0.019   1.526   0.010  0.00  0.00    -0.017 C 
ATOM     29  C   UNL     1       0.002  -0.004   0.002  0.00  0.00    -0.082 C 
ENDBRANCH  19  29
ENDBRANCH  18  25
ENDBRANCH   1  18
TORSDOF 4
