REMARK  Name = ZINC25414627
REMARK  8 active torsions:
REMARK  status: ('A' for Active; 'I' for Inactive)
REMARK    1  A    between atoms: C_1  and  O_2
REMARK    2  A    between atoms: O_2  and  C_3
REMARK    3  A    between atoms: C_6  and  C_9
REMARK    4  A    between atoms: N_14  and  C_15
REMARK    5  A    between atoms: C_15  and  C_16
REMARK    6  A    between atoms: N_18  and  C_19
REMARK    7  A    between atoms: C_24  and  O_25
REMARK    8  A    between atoms: O_25  and  C_26
REMARK                            x       y       z     vdW  Elec       q    Type
REMARK                         _______ _______ _______ _____ _____    ______ ____
ROOT
ATOM      1  C   UNL     1      -2.560   0.189  -0.947  0.00  0.00    -0.037 C 
ATOM      2  C   UNL     1      -3.557  -0.911  -0.504  0.00  0.00    -0.013 C 
ATOM      3  C   UNL     1      -3.356  -0.963   1.028  0.00  0.00    -0.020 C 
ATOM      4  C   UNL     1      -2.749   0.403   1.400  0.00  0.00    -0.077 C 
ATOM      5  N   UNL     1      -2.644   1.187   0.150  0.00  0.00    +0.390 N 
ATOM      6  H   UNL     1      -3.504   1.861   0.024  0.00  0.00    -0.080 HD
ENDROOT
BRANCH   1  10
ATOM      7  C   UNL     1      -3.779   1.922  -4.659  0.00  0.00    +0.120 A 
ATOM      8  C   UNL     1      -2.697   1.054  -4.619  0.00  0.00    +0.046 A 
ATOM      9  C   UNL     1      -2.305   0.495  -3.418  0.00  0.00    +0.005 A 
ATOM     10  C   UNL     1      -2.990   0.800  -2.256  0.00  0.00    -0.061 A 
ATOM     11  C   UNL     1      -4.071   1.660  -2.294  0.00  0.00    +0.005 A 
ATOM     12  C   UNL     1      -4.464   2.226  -3.491  0.00  0.00    +0.046 A 
BRANCH   7  14
ATOM     13  C   UNL     1      -5.288   3.358  -5.804  0.00  0.00    +0.277 C 
ATOM     14  O   UNL     1      -4.166   2.473  -5.839  0.00  0.00    -0.495 OA
ENDBRANCH   7  14
ENDBRANCH   1  10
BRANCH   5  15
ATOM     15  C   UNL     1      -1.457   2.051   0.168  0.00  0.00    +0.020 C 
BRANCH  15  16
ATOM     16  C   UNL     1      -1.610   3.092   1.247  0.00  0.00    +0.201 C 
ATOM     17  O   UNL     1      -2.567   3.058   1.991  0.00  0.00    -0.278 OA
ATOM     18  N   UNL     1      -0.680   4.058   1.389  0.00  0.00    -0.284 N 
ATOM     19  H   UNL     1       0.233   4.035   0.777  0.00  0.00    +0.155 HD
BRANCH  18  20
ATOM     20  C   UNL     1      -0.878   5.090   2.316  0.00  0.00    +0.077 A 
ATOM     21  C   UNL     1      -2.163   5.437   2.706  0.00  0.00    +0.047 A 
ATOM     22  C   UNL     1      -2.355   6.456   3.621  0.00  0.00    +0.043 A 
ATOM     23  C   UNL     1      -1.268   7.131   4.149  0.00  0.00    +0.024 A 
ATOM     24  C   UNL     1       0.015   6.789   3.764  0.00  0.00    +0.049 A 
ATOM     25  C   UNL     1       0.216   5.765   2.852  0.00  0.00    +0.141 A 
ATOM     26 CL   UNL     1      -3.964   6.890   4.109  0.00  0.00    -0.083 Cl
BRANCH  25  27
ATOM     27  O   UNL     1       1.478   5.424   2.477  0.00  0.00    -0.493 OA
ATOM     28  C   UNL     1       2.551   6.160   3.068  0.00  0.00    +0.277 C 
ENDBRANCH  25  27
ENDBRANCH  18  20
ENDBRANCH  15  16
ENDBRANCH   5  15
TORSDOF 6
