REMARK  Name = ZINC30924387
REMARK  7 active torsions:
REMARK  status: ('A' for Active; 'I' for Inactive)
REMARK    1  A    between atoms: C_1  and  C_2
REMARK    2  A    between atoms: C_2  and  C_4
REMARK    3  A    between atoms: C_2  and  N_19
REMARK    4  A    between atoms: N_6  and  C_7
REMARK    5  A    between atoms: C_12  and  C_13
REMARK    6  A    between atoms: N_22  and  S_25
REMARK    7  A    between atoms: S_25  and  C_28
REMARK                            x       y       z     vdW  Elec       q    Type
REMARK                         _______ _______ _______ _____ _____    ______ ____
ROOT
ATOM      1  C   UNL     1       3.220  -1.938   1.321  0.00  0.00    -0.004 C 
ATOM      2  C   UNL     1       3.241  -0.492   1.820  0.00  0.00    +0.017 C 
ENDROOT
BRANCH   2   3
ATOM      3  N   UNL     1       2.227   0.290   1.099  0.00  0.00    +0.389 N 
ATOM      4  C   UNL     1       2.319   0.063  -0.349  0.00  0.00    -0.060 C 
ATOM      5  C   UNL     1       1.374   1.027  -1.075  0.00  0.00    +0.091 C 
ATOM      6  N   UNL     1       0.026   0.876  -0.506  0.00  0.00    -0.180 NA
ATOM      7  C   UNL     1      -0.125   0.955   0.955  0.00  0.00    +0.091 C 
ATOM      8  C   UNL     1       0.879  -0.006   1.601  0.00  0.00    -0.060 C 
ATOM      9  H   UNL     1       2.426   1.356   1.284  0.00  0.00    -0.081 HD
BRANCH   6  10
ATOM     10  S   UNL     1      -1.287   0.632  -1.485  0.00  0.00    +0.066 S 
ATOM     11  O   UNL     1      -2.424   1.078  -0.758  0.00  0.00    -0.153 OA
ATOM     12  O   UNL     1      -0.945   1.155  -2.761  0.00  0.00    -0.153 OA
BRANCH  10  13
ATOM     13  C   UNL     1      -1.469  -1.109  -1.686  0.00  0.00    +0.175 A 
ATOM     14  C   UNL     1      -0.834  -1.755  -2.733  0.00  0.00    +0.152 A 
ATOM     15  C   UNL     1      -0.975  -3.124  -2.888  0.00  0.00    +0.040 A 
ATOM     16  C   UNL     1      -1.757  -3.843  -2.004  0.00  0.00    +0.006 A 
ATOM     17  C   UNL     1      -2.396  -3.198  -0.962  0.00  0.00    +0.040 A 
ATOM     18  C   UNL     1      -2.253  -1.830  -0.802  0.00  0.00    +0.152 A 
ATOM     19  F   UNL     1      -2.877  -1.200   0.216  0.00  0.00    -0.203 F 
ATOM     20  F   UNL     1      -0.074  -1.051  -3.600  0.00  0.00    -0.203 F 
ENDBRANCH  10  13
ENDBRANCH   6  10
ENDBRANCH   2   3
BRANCH   2  21
ATOM     21  C   UNL     1       4.603   0.104   1.576  0.00  0.00    +0.203 C 
ATOM     22  O   UNL     1       4.760   0.913   0.685  0.00  0.00    -0.277 OA
ATOM     23  N   UNL     1       5.646  -0.260   2.347  0.00  0.00    -0.286 N 
ATOM     24  H   UNL     1       5.520  -1.044   3.108  0.00  0.00    +0.155 HD
BRANCH  23  25
ATOM     25  C   UNL     1       6.889   0.357   2.179  0.00  0.00    +0.041 A 
ATOM     26  C   UNL     1       7.257   0.854   0.937  0.00  0.00    +0.024 A 
ATOM     27  C   UNL     1       8.484   1.469   0.775  0.00  0.00    +0.002 A 
ATOM     28  C   UNL     1       9.355   1.584   1.844  0.00  0.00    +0.001 A 
ATOM     29  C   UNL     1       9.004   1.089   3.084  0.00  0.00    +0.010 A 
ATOM     30  C   UNL     1       7.768   0.471   3.261  0.00  0.00    +0.003 A 
BRANCH  30  31
ATOM     31  C   UNL     1       7.386  -0.062   4.591  0.00  0.00    -0.016 A 
ATOM     32  C   UNL     1       6.154   0.271   5.151  0.00  0.00    +0.008 A 
ATOM     33  C   UNL     1       5.801  -0.232   6.387  0.00  0.00    +0.001 A 
ATOM     34  C   UNL     1       6.673  -1.056   7.075  0.00  0.00    +0.000 A 
ATOM     35  C   UNL     1       7.900  -1.386   6.527  0.00  0.00    +0.001 A 
ATOM     36  C   UNL     1       8.261  -0.893   5.289  0.00  0.00    +0.008 A 
ENDBRANCH  30  31
ENDBRANCH  23  25
ENDBRANCH   2  21
TORSDOF 6
