REMARK  Name = ZINC20600862
REMARK  6 active torsions:
REMARK  status: ('A' for Active; 'I' for Inactive)
REMARK    1  A    between atoms: C_1  and  C_2
REMARK    2  A    between atoms: C_2  and  O_3
REMARK    3  A    between atoms: O_3  and  C_4
REMARK    4  A    between atoms: N_9  and  C_12
REMARK    5  A    between atoms: N_17  and  C_19
REMARK    6  A    between atoms: C_19  and  C_20
REMARK                            x       y       z     vdW  Elec       q    Type
REMARK                         _______ _______ _______ _____ _____    ______ ____
ROOT
ATOM      1  C   UNL     1      -3.460   3.199   2.945  0.00  0.00    +0.040 C 
ATOM      2  C   UNL     1      -3.838   1.810   3.466  0.00  0.00    +0.015 C 
ATOM      3  C   UNL     1      -2.638   0.871   3.309  0.00  0.00    -0.017 C 
ATOM      4  C   UNL     1      -2.220   0.827   1.837  0.00  0.00    -0.078 C 
ATOM      5  N   UNL     1      -1.868   2.180   1.387  0.00  0.00    +0.384 N 
ATOM      6  C   UNL     1      -3.018   3.088   1.484  0.00  0.00    -0.059 C 
ATOM      7  H   UNL     1      -1.082   2.562   2.055  0.00  0.00    -0.081 HD
ENDROOT
BRANCH   1  13
ATOM      8  C   UNL     1      -6.532   7.454   4.325  0.00  0.00    +0.403 C 
ATOM      9  O   UNL     1      -7.010   7.469   5.442  0.00  0.00    -0.226 OA
ATOM     10  N   UNL     1      -6.191   6.282   3.754  0.00  0.00    -0.265 N 
ATOM     11  C   UNL     1      -6.389   5.010   4.465  0.00  0.00    +0.126 C 
ATOM     12  C   UNL     1      -5.075   4.222   4.430  0.00  0.00    +0.103 C 
ATOM     13  N   UNL     1      -4.622   4.092   3.039  0.00  0.00    -0.298 NA
ATOM     14  C   UNL     1      -4.327   5.405   2.449  0.00  0.00    +0.103 C 
ATOM     15  C   UNL     1      -5.611   6.240   2.403  0.00  0.00    +0.126 C 
BRANCH   8  16
ATOM     16  O   UNL     1      -6.342   8.608   3.658  0.00  0.00    -0.451 OA
BRANCH  16  18
ATOM     17  C   UNL     1      -6.444  11.030   3.427  0.00  0.00    +0.048 C 
ATOM     18  C   UNL     1      -6.732   9.832   4.334  0.00  0.00    +0.230 C 
ENDBRANCH  16  18
ENDBRANCH   8  16
ENDBRANCH   1  13
BRANCH   5  19
ATOM     19  C   UNL     1      -1.330   2.156   0.020  0.00  0.00    -0.036 C 
BRANCH  19  20
ATOM     20  C   UNL     1      -0.017   1.416   0.010  0.00  0.00    +0.018 A 
ATOM     21  C   UNL     1       1.143   2.096   0.002  0.00  0.00    +0.201 A 
ATOM     22  O   UNL     1       2.337   1.494  -0.012  0.00  0.00    -0.462 OA
ATOM     23  C   UNL     1       2.470   0.151  -0.021  0.00  0.00    +0.138 A 
ATOM     24  C   UNL     1       3.725  -0.444  -0.036  0.00  0.00    +0.048 A 
ATOM     25  C   UNL     1       3.836  -1.817  -0.044  0.00  0.00    +0.023 A 
ATOM     26  C   UNL     1       2.702  -2.619  -0.037  0.00  0.00    +0.042 A 
ATOM     27  C   UNL     1       1.447  -2.049  -0.022  0.00  0.00    +0.035 A 
ATOM     28  C   UNL     1       1.324  -0.660  -0.014  0.00  0.00    +0.066 A 
ATOM     29  C   UNL     1       0.002  -0.004   0.002  0.00  0.00    +0.194 A 
ATOM     30  O   UNL     1      -1.030  -0.653   0.008  0.00  0.00    -0.287 OA
ATOM     31 CL   UNL     1       2.866  -4.348  -0.047  0.00  0.00    -0.084 Cl
ENDBRANCH  19  20
ENDBRANCH   5  19
TORSDOF 5
