REMARK  Name = ZINC22340635
REMARK  10 active torsions:
REMARK  status: ('A' for Active; 'I' for Inactive)
REMARK    1  A    between atoms: C_1  and  C_2
REMARK    2  A    between atoms: C_9  and  C_10
REMARK    3  A    between atoms: C_9  and  C_11
REMARK    4  A    between atoms: C_12  and  S_17
REMARK    5  A    between atoms: N_15  and  O_16
REMARK    6  A    between atoms: S_17  and  N_20
REMARK    7  A    between atoms: N_20  and  C_21
REMARK    8  A    between atoms: C_21  and  C_22
REMARK    9  A    between atoms: C_21  and  C_23
REMARK   10  A    between atoms: C_21  and  C_24
REMARK                            x       y       z     vdW  Elec       q    Type
REMARK                         _______ _______ _______ _____ _____    ______ ____
ROOT
ATOM      1  C   UNL     1       1.259  -0.021   0.019  0.00  0.00    +0.009 C 
ATOM      2  C   UNL     1       0.135   0.900   0.495  0.00  0.00    +0.001 C 
ATOM      3  C   UNL     1      -1.251   0.212   0.303  0.00  0.00    +0.042 C 
ATOM      4  C   UNL     1      -2.081   0.910   1.439  0.00  0.00    +0.016 C 
ATOM      5  C   UNL     1      -1.083   0.567   2.601  0.00  0.00    +0.027 C 
ATOM      6  C   UNL     1       0.244   1.143   2.018  0.00  0.00    -0.027 C 
ATOM      7  C   UNL     1       1.449   0.394   2.593  0.00  0.00    +0.011 C 
ATOM      8  C   UNL     1       0.356   2.639   2.315  0.00  0.00    +0.011 C 
ATOM      9  C   UNL     1      -0.953  -0.975   2.407  0.00  0.00    +0.199 C 
ATOM     10  C   UNL     1      -1.071  -1.191   0.900  0.00  0.00    +0.087 C 
ATOM     11  N   UNL     1      -1.026  -2.303   0.269  0.00  0.00    -0.094 NA
ENDROOT
BRANCH   9  12
ATOM     12  S   UNL     1      -2.293  -1.836   3.274  0.00  0.00    +0.038 S 
ATOM     13  O   UNL     1      -2.080  -1.785   4.678  0.00  0.00    -0.158 OA
ATOM     14  O   UNL     1      -3.549  -1.471   2.718  0.00  0.00    -0.158 OA
BRANCH  12  15
ATOM     15  N   UNL     1      -2.102  -3.432   2.876  0.00  0.00    -0.189 NA
ATOM     16  H   UNL     1      -2.721  -3.864   2.075  0.00  0.00    +0.148 HD
BRANCH  15  17
ATOM     17  C   UNL     1      -0.979  -4.195   3.426  0.00  0.00    +0.031 C 
ATOM     18  C   UNL     1      -1.189  -4.399   4.928  0.00  0.00    +0.029 C 
ATOM     19  C   UNL     1      -0.899  -5.556   2.732  0.00  0.00    +0.029 C 
ATOM     20  C   UNL     1       0.323  -3.426   3.193  0.00  0.00    +0.029 C 
ENDBRANCH  15  17
ENDBRANCH  12  15
ENDBRANCH   9  12
BRANCH  11  21
ATOM     21  O   UNL     1      -1.149  -2.322  -1.142  0.00  0.00    -0.409 OA
ATOM     22  H   UNL     1      -1.111  -3.278  -1.685  0.00  0.00    +0.328 HD
ENDBRANCH  11  21
TORSDOF 4
