REMARK  Name = ZINC09137701
REMARK  6 active torsions:
REMARK  status: ('A' for Active; 'I' for Inactive)
REMARK    1  A    between atoms: C_1  and  N_2
REMARK    2  A    between atoms: C_10  and  C_12
REMARK    3  A    between atoms: C_12  and  C_14
REMARK    4  A    between atoms: C_12  and  N_64
REMARK    5  A    between atoms: C_14  and  N_15
REMARK    6  A    between atoms: C_16  and  C_18
REMARK                            x       y       z     vdW  Elec       q    Type
REMARK                         _______ _______ _______ _____ _____    ______ ____
ROOT
ATOM      1  C   UNL     1       5.752   7.917   0.112  0.00  0.00    -0.020 C 
ENDROOT
BRANCH   1  11
ATOM      2  C   UNL     1      10.700  11.005  -2.316  0.00  0.00    +0.129 C 
ATOM      3  N   UNL     1      10.762  10.336  -1.010  0.00  0.00    -0.333 N 
ATOM      4  C   UNL     1      11.260  11.247   0.023  0.00  0.00    +0.105 C 
ATOM      5  C   UNL     1      11.277  10.505   1.365  0.00  0.00    +0.024 C 
ATOM      6  C   UNL     1       9.827  10.247   1.780  0.00  0.00    +0.038 C 
ATOM      7  C   UNL     1       9.056   9.687   0.611  0.00  0.00    -0.026 A 
ATOM      8  C   UNL     1       9.535   9.759  -0.685  0.00  0.00    +0.033 A 
ATOM      9  C   UNL     1       8.772   9.231  -1.728  0.00  0.00    +0.023 A 
ATOM     10  C   UNL     1       7.556   8.633  -1.470  0.00  0.00    +0.004 A 
ATOM     11  C   UNL     1       7.082   8.566  -0.172  0.00  0.00    -0.059 A 
ATOM     12  C   UNL     1       7.832   9.089   0.863  0.00  0.00    +0.007 A 
ENDBRANCH   1  11
BRANCH   1  18
ATOM     13  C   UNL     1       4.648   9.750  -1.019  0.00  0.00    -0.078 C 
ATOM     14  C   UNL     1       3.755  10.108  -2.209  0.00  0.00    -0.019 C 
ATOM     15  C   UNL     1       2.383   9.452  -2.027  0.00  0.00    -0.004 C 
ATOM     16  C   UNL     1       2.564   7.938  -1.893  0.00  0.00    -0.019 C 
ATOM     17  C   UNL     1       3.492   7.643  -0.712  0.00  0.00    -0.078 C 
ATOM     18  N   UNL     1       4.802   8.281  -0.960  0.00  0.00    +0.385 N 
ATOM     19  H   UNL     1       5.170   7.949  -1.859  0.00  0.00    -0.081 HD
ENDBRANCH   1  18
BRANCH   1  20
ATOM     20  C   UNL     1       5.920   6.396   0.129  0.00  0.00    +0.094 C 
BRANCH  20  21
ATOM     21  N   UNL     1       6.816   6.016   1.224  0.00  0.00    -0.312 N 
ATOM     22  C   UNL     1       7.043   4.714   1.488  0.00  0.00    +0.251 C 
ATOM     23  O   UNL     1       6.503   3.855   0.818  0.00  0.00    -0.270 OA
ATOM     24  H   UNL     1       7.247   6.702   1.758  0.00  0.00    +0.149 HD
BRANCH  22  25
ATOM     25  C   UNL     1       7.944   4.332   2.588  0.00  0.00    +0.122 A 
ATOM     26  C   UNL     1       8.565   5.300   3.359  0.00  0.00    +0.031 A 
ATOM     27  C   UNL     1       9.425   4.888   4.408  0.00  0.00    +0.018 A 
ATOM     28  C   UNL     1      10.070   5.842   5.209  0.00  0.00    +0.011 A 
ATOM     29  C   UNL     1      10.895   5.438   6.218  0.00  0.00    +0.001 A 
ATOM     30  C   UNL     1      11.098   4.087   6.462  0.00  0.00    +0.004 A 
ATOM     31  C   UNL     1      10.479   3.131   5.685  0.00  0.00    +0.047 A 
ATOM     32  C   UNL     1       9.633   3.518   4.651  0.00  0.00    +0.139 A 
ATOM     33  O   UNL     1       9.023   2.580   3.894  0.00  0.00    -0.422 OA
ATOM     34  C   UNL     1       8.200   2.919   2.888  0.00  0.00    +0.350 A 
ATOM     35  O   UNL     1       7.665   2.051   2.224  0.00  0.00    -0.244 OA
ENDBRANCH  22  25
ENDBRANCH  20  21
ENDBRANCH   1  20
TORSDOF 5
