REMARK  Name = ZINC40473994
REMARK  4 active torsions:
REMARK  status: ('A' for Active; 'I' for Inactive)
REMARK    1  A    between atoms: C_1  and  C_2
REMARK    2  A    between atoms: C_9  and  C_13
REMARK    3  A    between atoms: C_13  and  N_14
REMARK    4  A    between atoms: C_25  and  C_27
REMARK                            x       y       z     vdW  Elec       q    Type
REMARK                         _______ _______ _______ _____ _____    ______ ____
ROOT
ATOM      1  N   UNL     1       1.290   0.858   4.919  0.00  0.00    -0.319 N 
ATOM      2  C   UNL     1       2.423   0.303   5.525  0.00  0.00    +0.052 A 
ATOM      3  C   UNL     1       2.473   0.121   6.898  0.00  0.00    +0.025 A 
ATOM      4  C   UNL     1       3.610  -0.407   7.481  0.00  0.00    +0.002 A 
ATOM      5  C   UNL     1       4.697  -0.753   6.700  0.00  0.00    +0.002 A 
ATOM      6  C   UNL     1       4.652  -0.584   5.328  0.00  0.00    +0.025 A 
ATOM      7  C   UNL     1       3.513  -0.065   4.736  0.00  0.00    +0.055 A 
ATOM      8  N   UNL     1       3.424   0.064   3.344  0.00  0.00    -0.284 N 
ATOM      9  C   UNL     1       2.990   1.217   2.790  0.00  0.00    +0.219 C 
ATOM     10  O   UNL     1       2.837   1.288   1.589  0.00  0.00    -0.275 OA
ATOM     11  C   UNL     1       2.695   2.415   3.654  0.00  0.00    +0.118 C 
ATOM     12  C   UNL     1       1.371   2.218   4.384  0.00  0.00    +0.080 C 
ATOM     13  C   UNL     1       1.274   3.223   5.533  0.00  0.00    +0.028 C 
ATOM     14  H   UNL     1       3.674  -0.680   2.774  0.00  0.00    +0.155 HD
ENDROOT
BRANCH   1  15
ATOM     15  C   UNL     1       0.047   0.089   4.816  0.00  0.00    +0.161 C 
BRANCH  15  24
ATOM     16  C   UNL     1      -0.018   1.503   0.010  0.00  0.00    +0.047 C 
ATOM     17  C   UNL     1       0.002  -0.004   0.002  0.00  0.00    -0.008 A 
ATOM     18  C   UNL     1       0.006  -0.685  -1.179  0.00  0.00    +0.008 A 
ATOM     19  C   UNL     1       0.025  -2.086  -1.169  0.00  0.00    +0.019 A 
ATOM     20  C   UNL     1       0.039  -2.757   0.005  0.00  0.00    +0.096 A 
ATOM     21  N   UNL     1       0.035  -2.087   1.190  0.00  0.00    -0.268 N 
ATOM     22  C   UNL     1       0.023  -0.720   1.213  0.00  0.00    +0.143 A 
ATOM     23  N   UNL     1       0.025  -0.056   2.368  0.00  0.00    -0.232 NA
ATOM     24  C   UNL     1       0.045  -0.693   3.528  0.00  0.00    +0.066 A 
ATOM     25  C   UNL     1       0.064  -2.074   3.559  0.00  0.00    +0.095 A 
ATOM     26  C   UNL     1       0.050  -2.779   2.349  0.00  0.00    +0.259 A 
ATOM     27  O   UNL     1       0.066  -3.999   2.343  0.00  0.00    -0.267 OA
ENDBRANCH  15  24
ENDBRANCH   1  15
TORSDOF 2
