REMARK  Name = ZINC67288663
REMARK  8 active torsions:
REMARK  status: ('A' for Active; 'I' for Inactive)
REMARK    1  A    between atoms: C_1  and  C_2
REMARK    2  A    between atoms: C_5  and  C_8
REMARK    3  A    between atoms: C_8  and  N_9
REMARK    4  A    between atoms: C_10  and  C_12
REMARK    5  A    between atoms: C_12  and  N_13
REMARK    6  A    between atoms: C_16  and  C_21
REMARK    7  A    between atoms: C_23  and  C_28
REMARK    8  A    between atoms: C_26  and  C_27
REMARK                            x       y       z     vdW  Elec       q    Type
REMARK                         _______ _______ _______ _____ _____    ______ ____
ROOT
ATOM      1  N   UNL     1       3.160  -8.039   0.299  0.00  0.00    -0.247 N 
ATOM      2  C   UNL     1       3.289  -8.841   1.395  0.00  0.00    +0.065 C 
ATOM      3  C   UNL     1       3.310 -10.186   1.278  0.00  0.00    +0.082 C 
ATOM      4  C   UNL     1       3.186 -10.776  -0.111  0.00  0.00    +0.144 C 
ATOM      5  N   UNL     1       3.051  -9.825  -1.228  0.00  0.00    -0.288 N 
ATOM      6  C   UNL     1       3.041  -8.506  -0.951  0.00  0.00    +0.307 C 
ATOM      7  O   UNL     1       2.925  -7.714  -1.865  0.00  0.00    -0.252 OA
ATOM      8  C   UNL     1       3.452 -10.771   2.550  0.00  0.00    +0.339 C 
ATOM      9  O   UNL     1       3.503 -11.969   2.756  0.00  0.00    -0.245 OA
ATOM     10  O   UNL     1       3.526  -9.827   3.507  0.00  0.00    -0.455 OA
ATOM     11  C   UNL     1       3.430  -8.546   2.871  0.00  0.00    +0.284 C 
ATOM     12  H   UNL     1       2.968 -10.140  -2.142  0.00  0.00    +0.151 HD
ENDROOT
BRANCH   4  13
ATOM     13  C   UNL     1       1.982 -11.682  -0.125  0.00  0.00    -0.019 A 
ATOM     14  C   UNL     1       1.003 -11.547   0.842  0.00  0.00    +0.009 A 
ATOM     15  C   UNL     1      -0.101 -12.378   0.829  0.00  0.00    -0.050 A 
ATOM     16  C   UNL     1      -0.227 -13.345  -0.152  0.00  0.00    +0.003 A 
ATOM     17  C   UNL     1       0.752 -13.480  -1.119  0.00  0.00    +0.004 A 
ATOM     18  C   UNL     1       1.854 -12.645  -1.108  0.00  0.00    -0.045 A 
ATOM     19  C   UNL     1       2.918 -12.789  -2.166  0.00  0.00    +0.044 C 
ATOM     20  C   UNL     1      -1.167 -12.231   1.883  0.00  0.00    +0.044 C 
ENDBRANCH   4  13
BRANCH   1  21
ATOM     21  C   UNL     1       3.144  -6.588   0.501  0.00  0.00    +0.210 C 
BRANCH  21  23
ATOM     22  N   UNL     1       1.468  -4.820   0.926  0.00  0.00    -0.310 N 
ATOM     23  C   UNL     1       1.726  -6.126   0.718  0.00  0.00    +0.231 C 
ATOM     24  O   UNL     1       0.818  -6.930   0.706  0.00  0.00    -0.274 OA
ATOM     25  H   UNL     1       2.194  -4.177   0.936  0.00  0.00    +0.149 HD
BRANCH  22  26
ATOM     26  C   UNL     1       0.089  -4.371   1.137  0.00  0.00    +0.139 C 
BRANCH  26  31
ATOM     27  C   UNL     1       0.024   1.353   1.932  0.00  0.00    +0.044 C 
ATOM     28  C   UNL     1       0.041  -0.140   1.725  0.00  0.00    -0.050 A 
ATOM     29  C   UNL     1      -0.078  -0.662   0.450  0.00  0.00    +0.003 A 
ATOM     30  C   UNL     1      -0.062  -2.031   0.260  0.00  0.00    +0.005 A 
ATOM     31  C   UNL     1       0.073  -2.878   1.344  0.00  0.00    -0.030 A 
ATOM     32  C   UNL     1       0.193  -2.356   2.618  0.00  0.00    +0.005 A 
ATOM     33  C   UNL     1       0.182  -0.987   2.808  0.00  0.00    +0.003 A 
ENDBRANCH  26  31
ENDBRANCH  22  26
ENDBRANCH  21  23
ENDBRANCH   1  21
TORSDOF 5
