REMARK  Name = ZINC16663227
REMARK  6 active torsions:
REMARK  status: ('A' for Active; 'I' for Inactive)
REMARK    1  A    between atoms: C_1  and  C_2
REMARK    2  A    between atoms: C_5  and  N_21
REMARK    3  A    between atoms: C_7  and  S_8
REMARK    4  A    between atoms: S_8  and  N_11
REMARK    5  A    between atoms: C_13  and  C_20
REMARK    6  A    between atoms: C_16  and  C_19
REMARK                            x       y       z     vdW  Elec       q    Type
REMARK                         _______ _______ _______ _____ _____    ______ ____
ROOT
ATOM      1  C   UNL     1      -0.425   1.488   0.077  0.00  0.00    +0.046 C 
ATOM      2  C   UNL     1      -0.200  -0.001   0.029  0.00  0.00    -0.024 A 
ATOM      3  C   UNL     1      -0.308  -0.677  -1.173  0.00  0.00    +0.007 A 
ATOM      4  C   UNL     1      -0.102  -2.042  -1.220  0.00  0.00    +0.025 A 
ATOM      5  C   UNL     1       0.213  -2.736  -0.059  0.00  0.00    +0.053 A 
ATOM      6  C   UNL     1       0.321  -2.054   1.146  0.00  0.00    +0.053 A 
ATOM      7  C   UNL     1       0.119  -0.688   1.186  0.00  0.00    +0.110 A 
ENDROOT
BRANCH   5   8
ATOM      8  N   UNL     1       0.422  -4.116  -0.103  0.00  0.00    -0.207 N 
ATOM      9  C   UNL     1       0.212  -4.954   1.087  0.00  0.00    +0.131 C 
ATOM     10  C   UNL     1       1.498  -5.712   1.410  0.00  0.00    +0.022 C 
ATOM     11  C   UNL     1       1.843  -6.691   0.290  0.00  0.00    +0.026 C 
ATOM     12  C   UNL     1       2.294  -5.918  -0.954  0.00  0.00    +0.189 C 
ATOM     13  S   UNL     1       0.909  -4.866  -1.507  0.00  0.00    +0.045 S 
ATOM     14  O   UNL     1      -0.198  -5.667  -1.901  0.00  0.00    -0.155 OA
ATOM     15  O   UNL     1       1.384  -3.818  -2.341  0.00  0.00    -0.155 OA
ENDBRANCH   5   8
BRANCH   7  16
ATOM     16  S   UNL     1       0.263   0.179   2.713  0.00  0.00    +0.061 S 
ATOM     17  O   UNL     1      -0.845   1.067   2.781  0.00  0.00    -0.153 OA
ATOM     18  O   UNL     1       0.518  -0.798   3.712  0.00  0.00    -0.153 OA
BRANCH  16  19
ATOM     19  N   UNL     1       1.620   1.122   2.615  0.00  0.00    -0.176 NA
ATOM     20  C   UNL     1       2.941   0.569   2.944  0.00  0.00    +0.112 C 
ATOM     21  C   UNL     1       3.889   0.824   1.768  0.00  0.00    +0.002 C 
ATOM     22  C   UNL     1       3.897   2.319   1.439  0.00  0.00    +0.009 C 
ATOM     23  C   UNL     1       2.490   2.761   1.030  0.00  0.00    +0.002 C 
ATOM     24  C   UNL     1       1.527   2.526   2.192  0.00  0.00    +0.112 C 
ATOM     25  C   UNL     1       2.507   4.247   0.669  0.00  0.00    +0.009 C 
ATOM     26  C   UNL     1       5.303   0.376   2.145  0.00  0.00    +0.009 C 
ENDBRANCH  16  19
ENDBRANCH   7  16
TORSDOF 3
