REMARK  Name = ZINC45562920
REMARK  5 active torsions:
REMARK  status: ('A' for Active; 'I' for Inactive)
REMARK    1  A    between atoms: C_1  and  C_2
REMARK    2  A    between atoms: C_2  and  S_3
REMARK    3  A    between atoms: S_3  and  N_6
REMARK    4  A    between atoms: C_9  and  N_12
REMARK    5  A    between atoms: C_18  and  N_21
REMARK                            x       y       z     vdW  Elec       q    Type
REMARK                         _______ _______ _______ _____ _____    ______ ____
ROOT
ATOM      1  N   UNL     1       1.788  -5.971  -3.031  0.00  0.00    -0.296 N 
ATOM      2  C   UNL     1       1.113  -7.128  -3.176  0.00  0.00    +0.302 C 
ATOM      3  O   UNL     1       0.123  -7.342  -2.503  0.00  0.00    -0.253 OA
ATOM      4  N   UNL     1       1.534  -8.047  -4.067  0.00  0.00    -0.286 N 
ATOM      5  C   UNL     1       2.791  -7.855  -4.803  0.00  0.00    +0.108 C 
ATOM      6  C   UNL     1       2.508  -7.986  -6.303  0.00  0.00    +0.004 C 
ATOM      7  C   UNL     1       1.819  -9.325  -6.574  0.00  0.00    -0.066 C 
ATOM      8  C   UNL     1       0.486  -9.376  -5.825  0.00  0.00    +0.004 C 
ATOM      9  C   UNL     1       0.749  -9.264  -4.315  0.00  0.00    +0.108 C 
ATOM     10  H   UNL     1       2.618  -5.830  -3.514  0.00  0.00    +0.151 HD
ENDROOT
BRANCH   1  14
ATOM     11  N   UNL     1       0.806  -2.240  -1.389  0.00  0.00    -0.181 NA
ATOM     12  C   UNL     1       1.884  -2.973  -0.713  0.00  0.00    +0.111 C 
ATOM     13  C   UNL     1       2.425  -4.044  -1.666  0.00  0.00    +0.039 C 
ATOM     14  C   UNL     1       1.270  -4.925  -2.146  0.00  0.00    +0.077 C 
ATOM     15  C   UNL     1       0.255  -4.069  -2.907  0.00  0.00    +0.039 C 
ATOM     16  C   UNL     1      -0.314  -2.999  -1.963  0.00  0.00    +0.111 C 
BRANCH  11  17
ATOM     17  S   UNL     1       0.848  -0.588  -1.497  0.00  0.00    +0.032 S 
ATOM     18  O   UNL     1       0.079  -0.280  -2.651  0.00  0.00    -0.158 OA
ATOM     19  O   UNL     1       2.228  -0.255  -1.436  0.00  0.00    -0.158 OA
BRANCH  17  21
ATOM     20  C   UNL     1      -0.024   1.528   0.002  0.00  0.00    +0.029 C 
ATOM     21  C   UNL     1      -0.003  -0.002  -0.005  0.00  0.00    +0.182 C 
ENDBRANCH  17  21
ENDBRANCH  11  17
ENDBRANCH   1  14
BRANCH   7  22
ATOM     22  N   UNL     1       1.577  -9.468  -8.016  0.00  0.00    +0.382 N 
ATOM     23  C   UNL     1       2.867  -9.511  -8.751  0.00  0.00    -0.079 C 
ATOM     24  C   UNL     1       2.493 -10.207 -10.083  0.00  0.00    -0.020 C 
ATOM     25  C   UNL     1       1.460 -11.268  -9.641  0.00  0.00    -0.020 C 
ATOM     26  C   UNL     1       0.911 -10.759  -8.295  0.00  0.00    -0.079 C 
ATOM     27  H   UNL     1       1.009  -8.704  -8.351  0.00  0.00    -0.081 HD
ENDBRANCH   7  22
TORSDOF 4
