REMARK  Name = ZINC47175174
REMARK  4 active torsions:
REMARK  status: ('A' for Active; 'I' for Inactive)
REMARK    1  A    between atoms: C_4  and  C_7
REMARK    2  A    between atoms: C_16  and  C_18
REMARK    3  A    between atoms: C_19  and  C_20
REMARK    4  A    between atoms: C_24  and  N_26
REMARK                            x       y       z     vdW  Elec       q    Type
REMARK                         _______ _______ _______ _____ _____    ______ ____
ROOT
ATOM      1  C   UNL     1       3.864  -0.655   0.076  0.00  0.00    +0.115 C 
ATOM      2  C   UNL     1       4.436  -1.133  -1.262  0.00  0.00    +0.123 C 
ATOM      3  C   UNL     1       5.934  -1.105  -1.217  0.00  0.00    +0.215 C 
ATOM      4  O   UNL     1       6.522  -0.526  -2.106  0.00  0.00    -0.276 OA
ATOM      5  N   UNL     1       6.655  -1.678  -0.262  0.00  0.00    -0.314 N 
ATOM      6  C   UNL     1       6.176  -2.267   0.979  0.00  0.00    +0.123 C 
ATOM      7  C   UNL     1       4.786  -2.887   0.802  0.00  0.00    +0.127 C 
ATOM      8  N   UNL     1       3.780  -1.818   0.962  0.00  0.00    -0.289 N 
ATOM      9  C   UNL     1       2.812  -1.910   1.895  0.00  0.00    +0.240 C 
ATOM     10  O   UNL     1       2.059  -0.974   2.084  0.00  0.00    -0.271 OA
ATOM     11  H   UNL     1       7.613  -1.708  -0.407  0.00  0.00    +0.149 HD
ENDROOT
BRANCH   1  15
ATOM     12  C   UNL     1      -0.031   0.996  -0.522  0.00  0.00    +0.000 A 
ATOM     13  C   UNL     1       1.060   1.833  -0.377  0.00  0.00    +0.000 A 
ATOM     14  C   UNL     1       2.320   1.299  -0.183  0.00  0.00    +0.005 A 
ATOM     15  C   UNL     1       2.490  -0.072  -0.134  0.00  0.00    -0.027 A 
ATOM     16  C   UNL     1       1.399  -0.909  -0.279  0.00  0.00    +0.005 A 
ATOM     17  C   UNL     1       0.139  -0.375  -0.474  0.00  0.00    +0.000 A 
ENDBRANCH   1  15
BRANCH   9  18
ATOM     18  C   UNL     1       2.667  -3.138   2.679  0.00  0.00    +0.068 C 
ATOM     19  C   UNL     1       1.772  -3.192   3.687  0.00  0.00    +0.013 C 
BRANCH  19  20
ATOM     20  C   UNL     1       1.626  -4.426   4.476  0.00  0.00    -0.023 A 
ATOM     21  C   UNL     1       2.417  -5.542   4.188  0.00  0.00    +0.008 A 
ATOM     22  C   UNL     1       2.275  -6.694   4.931  0.00  0.00    +0.003 A 
ATOM     23  C   UNL     1       1.351  -6.748   5.961  0.00  0.00    +0.033 A 
ATOM     24  C   UNL     1       0.564  -5.647   6.252  0.00  0.00    +0.127 A 
ATOM     25  C   UNL     1       0.699  -4.486   5.521  0.00  0.00    +0.040 A 
BRANCH  24  26
ATOM     26  N   UNL     1      -0.421  -5.715   7.355  0.00  0.00    +0.056 N 
ATOM     27  O   UNL     1      -0.538  -6.731   8.000  0.00  0.00    -0.126 OA
ATOM     28  O   UNL     1      -1.110  -4.755   7.610  0.00  0.00    -0.126 OA
ENDBRANCH  24  26
ENDBRANCH  19  20
ENDBRANCH   9  18
TORSDOF 4
