REMARK  Name = ZINC66393314
REMARK  5 active torsions:
REMARK  status: ('A' for Active; 'I' for Inactive)
REMARK    1  A    between atoms: C_3  and  C_9
REMARK    2  A    between atoms: C_9  and  C_11
REMARK    3  A    between atoms: C_9  and  N_13
REMARK    4  A    between atoms: C_14  and  C_16
REMARK    5  A    between atoms: C_19  and  C_21
REMARK                            x       y       z     vdW  Elec       q    Type
REMARK                         _______ _______ _______ _____ _____    ______ ____
ROOT
ATOM      1  N   UNL     1       3.454   3.508   0.570  0.00  0.00    -0.291 N 
ATOM      2  C   UNL     1       4.485   4.173   1.129  0.00  0.00    +0.264 C 
ATOM      3  O   UNL     1       5.594   3.675   1.142  0.00  0.00    -0.268 OA
ATOM      4  H   UNL     1       2.570   3.905   0.560  0.00  0.00    +0.151 HD
ENDROOT
BRANCH   2   5
ATOM      5  C   UNL     1       4.267   5.503   1.726  0.00  0.00    +0.133 A 
ATOM      6  C   UNL     1       5.315   6.198   2.298  0.00  0.00    +0.080 A 
ATOM      7  S   UNL     1       4.568   7.615   2.817  0.00  0.00    -0.072 S 
ATOM      8  C   UNL     1       2.912   7.247   2.266  0.00  0.00    +0.146 A 
ATOM      9  N   UNL     1       3.064   6.056   1.718  0.00  0.00    -0.231 NA
BRANCH   8  10
ATOM     10  C   UNL     1       1.686   8.066   2.388  0.00  0.00    +0.185 A 
ATOM     11  N   UNL     1       0.541   7.595   1.910  0.00  0.00    -0.234 NA
ATOM     12  C   UNL     1      -0.571   8.301   2.003  0.00  0.00    +0.115 A 
ATOM     13  C   UNL     1      -0.533   9.548   2.610  0.00  0.00    +0.039 A 
ATOM     14  C   UNL     1       0.680  10.011   3.100  0.00  0.00    +0.115 A 
ATOM     15  N   UNL     1       1.756   9.252   2.979  0.00  0.00    -0.234 NA
ENDBRANCH   8  10
ENDBRANCH   2   5
BRANCH   1  16
ATOM     16  C   UNL     1       3.671   2.186  -0.023  0.00  0.00    +0.208 C 
BRANCH  16  19
ATOM     17  C   UNL     1      -0.017   1.378   0.010  0.00  0.00    +0.002 A 
ATOM     18  C   UNL     1       1.171   2.086   0.002  0.00  0.00    +0.008 A 
ATOM     19  C   UNL     1       2.378   1.413  -0.013  0.00  0.00    +0.006 A 
ATOM     20  C   UNL     1       2.398   0.030  -0.021  0.00  0.00    +0.065 A 
ATOM     21  C   UNL     1       1.209  -0.679  -0.013  0.00  0.00    +0.060 A 
ATOM     22  C   UNL     1       0.002  -0.004   0.002  0.00  0.00    +0.021 A 
ATOM     23 CL   UNL     1       1.234  -2.415  -0.023  0.00  0.00    -0.082 Cl
ATOM     24 CL   UNL     1       3.914  -0.816  -0.041  0.00  0.00    -0.082 Cl
ENDBRANCH  16  19
BRANCH  16  25
ATOM     25  C   UNL     1       4.141   2.341  -1.409  0.00  0.00    +0.090 C 
ATOM     26  N   UNL     1       4.503   2.460  -2.479  0.00  0.00    -0.194 NA
ENDBRANCH  16  25
ENDBRANCH   1  16
TORSDOF 5
