REMARK  Name = ZINC42667135
REMARK  4 active torsions:
REMARK  status: ('A' for Active; 'I' for Inactive)
REMARK    1  A    between atoms: C_1  and  C_2
REMARK    2  A    between atoms: C_5  and  N_8
REMARK    3  A    between atoms: N_8  and  C_9
REMARK    4  A    between atoms: N_12  and  C_17
REMARK                            x       y       z     vdW  Elec       q    Type
REMARK                         _______ _______ _______ _____ _____    ______ ____
ROOT
ATOM      1  N   UNL     1      -1.358  -2.098   2.449  0.00  0.00    -0.339 N 
ATOM      2  H   UNL     1      -1.901  -1.294   2.415  0.00  0.00    +0.146 HD
ENDROOT
BRANCH   1   3
ATOM      3  C   UNL     1      -1.232  -2.798   3.637  0.00  0.00    +0.071 A 
ATOM      4  C   UNL     1      -0.440  -3.964   3.695  0.00  0.00    +0.157 A 
ATOM      5  N   UNL     1      -0.319  -4.625   4.812  0.00  0.00    -0.175 NA
ATOM      6  N   UNL     1      -0.968  -4.199   5.976  0.00  0.00    -0.231 N 
ATOM      7  C   UNL     1      -1.734  -3.091   5.966  0.00  0.00    +0.287 A 
ATOM      8  O   UNL     1      -2.298  -2.724   6.986  0.00  0.00    -0.265 OA
ATOM      9  C   UNL     1      -1.877  -2.358   4.779  0.00  0.00    +0.129 A 
ATOM     10 CL   UNL     1      -2.853  -0.923   4.741  0.00  0.00    -0.076 Cl
ATOM     11  C   UNL     1      -0.813  -4.964   7.216  0.00  0.00    +0.176 C 
ENDBRANCH   1   3
BRANCH   1  16
ATOM     12  C   UNL     1      -0.019   1.526   0.010  0.00  0.00    +0.007 C 
ATOM     13  C   UNL     1       0.002  -0.004   0.002  0.00  0.00    -0.014 C 
ATOM     14  C   UNL     1      -1.433  -0.534   0.013  0.00  0.00    +0.005 C 
ATOM     15  C   UNL     1      -1.413  -2.063   0.004  0.00  0.00    +0.022 C 
ATOM     16  C   UNL     1      -0.673  -2.570   1.244  0.00  0.00    +0.070 C 
ATOM     17  C   UNL     1       0.763  -2.041   1.233  0.00  0.00    +0.022 C 
ATOM     18  C   UNL     1       0.742  -0.511   1.242  0.00  0.00    +0.005 C 
ENDBRANCH   1  16
TORSDOF 2
