REMARK  Name = ZINC52426222
REMARK  12 active torsions:
REMARK  status: ('A' for Active; 'I' for Inactive)
REMARK    1  A    between atoms: C_1  and  C_2
REMARK    2  A    between atoms: C_2  and  C_4
REMARK    3  A    between atoms: C_2  and  O_40
REMARK    4  A    between atoms: C_4  and  N_5
REMARK    5  A    between atoms: N_5  and  C_6
REMARK    6  A    between atoms: C_6  and  C_7
REMARK    7  A    between atoms: C_6  and  C_8
REMARK    8  A    between atoms: C_6  and  C_9
REMARK    9  A    between atoms: N_11  and  C_12
REMARK   10  A    between atoms: C_12  and  C_14
REMARK   11  A    between atoms: C_12  and  C_24
REMARK   12  A    between atoms: C_14  and  C_15
REMARK                            x       y       z     vdW  Elec       q    Type
REMARK                         _______ _______ _______ _____ _____    ______ ____
ROOT
ATOM      1  C   UNL     1       0.742  -6.305   1.658  0.00  0.00    +0.163 C 
ENDROOT
BRANCH   1   2
ATOM      2  C   UNL     1      -0.647  -6.848   1.442  0.00  0.00    +0.236 C 
ATOM      3  O   UNL     1      -1.591  -6.090   1.380  0.00  0.00    -0.274 OA
ATOM      4  N   UNL     1      -0.839  -8.176   1.317  0.00  0.00    -0.300 N 
ATOM      5  C   UNL     1       0.276  -9.115   1.504  0.00  0.00    +0.108 C 
ATOM      6  C   UNL     1      -0.126 -10.152   2.558  0.00  0.00    +0.030 C 
ATOM      7  C   UNL     1      -1.446 -10.801   2.154  0.00  0.00    -0.001 C 
ATOM      8  C   UNL     1      -1.285 -11.529   0.806  0.00  0.00    +0.016 C 
ATOM      9  C   UNL     1      -2.208 -12.754   0.981  0.00  0.00    +0.036 C 
ATOM     10  C   UNL     1      -2.269 -12.996   2.474  0.00  0.00    -0.044 A 
ATOM     11  C   UNL     1      -1.831 -11.870   3.148  0.00  0.00    -0.038 A 
ATOM     12  C   UNL     1      -1.802 -11.866   4.533  0.00  0.00    +0.004 A 
ATOM     13  C   UNL     1      -2.208 -12.980   5.241  0.00  0.00    +0.000 A 
ATOM     14  C   UNL     1      -2.645 -14.104   4.567  0.00  0.00    +0.000 A 
ATOM     15  C   UNL     1      -2.676 -14.111   3.186  0.00  0.00    +0.004 A 
ATOM     16  C   UNL     1      -2.551  -9.753   2.050  0.00  0.00    +0.030 C 
ATOM     17  C   UNL     1      -2.170  -8.713   0.998  0.00  0.00    +0.108 C 
ENDBRANCH   1   2
BRANCH   1  20
ATOM     18  C   UNL     1       1.641  -4.412   2.901  0.00  0.00    +0.202 C 
ATOM     19  O   UNL     1       2.597  -5.098   3.197  0.00  0.00    -0.277 OA
ATOM     20  N   UNL     1       0.657  -4.922   2.134  0.00  0.00    -0.305 N 
ATOM     21  H   UNL     1      -0.107  -4.374   1.898  0.00  0.00    +0.149 HD
BRANCH  18  22
ATOM     22  C   UNL     1       1.554  -2.990   3.392  0.00  0.00    +0.004 C 
ATOM     23  C   UNL     1       2.962  -2.459   3.671  0.00  0.00    -0.001 C 
ATOM     24  C   UNL     1       0.727  -2.944   4.678  0.00  0.00    -0.001 C 
BRANCH  22  25
ATOM     25  N   UNL     1       0.911  -2.157   2.366  0.00  0.00    +0.390 N 
ATOM     26  H   UNL     1      -0.017  -2.507   2.182  0.00  0.00    -0.084 HD
ATOM     27  H   UNL     1       1.456  -2.188   1.518  0.00  0.00    -0.084 HD
BRANCH  25  28
ATOM     28  C   UNL     1       0.826  -0.771   2.844  0.00  0.00    -0.050 C 
BRANCH  28  30
ATOM     29  C   UNL     1       0.180   1.561   2.220  0.00  0.00    +0.035 C 
ATOM     30  C   UNL     1       0.156   0.097   1.776  0.00  0.00    +0.095 C 
BRANCH  30  31
ATOM     31  O   UNL     1      -1.197  -0.326   1.599  0.00  0.00    -0.394 OA
ATOM     32  H   UNL     1      -1.737  -0.262   2.398  0.00  0.00    +0.210 HD
ENDBRANCH  30  31
ENDBRANCH  28  30
ENDBRANCH  25  28
ENDBRANCH  22  25
ENDBRANCH  18  22
ENDBRANCH   1  20
BRANCH   1  33
ATOM     33  C   UNL     1       1.516  -6.343   0.339  0.00  0.00    +0.065 C 
BRANCH  33  34
ATOM     34  C   UNL     1       0.787  -5.524  -0.695  0.00  0.00    -0.039 C 
ATOM     35  C   UNL     1       1.021  -4.233  -1.024  0.00  0.00    -0.001 A 
ATOM     36  C   UNL     1       1.988  -3.243  -0.534  0.00  0.00    +0.010 A 
ATOM     37  C   UNL     1       1.981  -2.000  -1.068  0.00  0.00    +0.001 A 
ATOM     38  C   UNL     1       1.076  -1.635  -2.074  0.00  0.00    +0.002 A 
ATOM     39  C   UNL     1       0.159  -2.490  -2.575  0.00  0.00    +0.026 A 
ATOM     40  C   UNL     1       0.077  -3.823  -2.087  0.00  0.00    +0.043 A 
ATOM     41  N   UNL     1      -0.711  -4.822  -2.404  0.00  0.00    -0.380 N 
ATOM     42  C   UNL     1      -0.351  -5.981  -1.580  0.00  0.00    +0.144 C 
ATOM     43  H   UNL     1      -1.413  -4.799  -3.073  0.00  0.00    +0.160 HD
ENDBRANCH  33  34
ENDBRANCH   1  33
TORSDOF 9
