REMARK  Name = ZINC62138564
REMARK  5 active torsions:
REMARK  status: ('A' for Active; 'I' for Inactive)
REMARK    1  A    between atoms: C_4  and  N_19
REMARK    2  A    between atoms: C_5  and  C_7
REMARK    3  A    between atoms: C_7  and  C_8
REMARK    4  A    between atoms: C_8  and  C_10
REMARK    5  A    between atoms: C_8  and  O_18
REMARK                            x       y       z     vdW  Elec       q    Type
REMARK                         _______ _______ _______ _____ _____    ______ ____
ROOT
ATOM      1  C   UNL     1       1.318  -2.607   1.317  0.00  0.00    +0.150 C 
ENDROOT
BRANCH   1   2
ATOM      2  C   UNL     1       1.318  -4.112   1.407  0.00  0.00    +0.001 A 
ATOM      3  C   UNL     1       2.503  -4.792   1.614  0.00  0.00    +0.027 A 
ATOM      4  C   UNL     1       2.502  -6.173   1.697  0.00  0.00    +0.041 A 
ATOM      5  C   UNL     1       1.315  -6.873   1.572  0.00  0.00    +0.021 A 
ATOM      6  C   UNL     1       0.131  -6.193   1.365  0.00  0.00    +0.022 A 
ATOM      7  C   UNL     1       0.130  -4.811   1.288  0.00  0.00    +0.047 A 
ATOM      8 CL   UNL     1      -1.359  -3.956   1.035  0.00  0.00    -0.083 Cl
ATOM      9 CL   UNL     1       3.991  -7.027   1.956  0.00  0.00    -0.084 Cl
ENDBRANCH   1   2
BRANCH   1  10
ATOM     10  O   UNL     1       2.452  -2.089   2.014  0.00  0.00    -0.387 OA
ATOM     11  H   UNL     1       3.301  -2.390   1.663  0.00  0.00    +0.210 HD
ENDBRANCH   1  10
BRANCH   1  12
ATOM     12  C   UNL     1       1.386  -2.185  -0.152  0.00  0.00    +0.073 C 
BRANCH  12  17
ATOM     13  C   UNL     1       0.964   1.444   0.800  0.00  0.00    +0.000 A 
ATOM     14  C   UNL     1       1.113   2.070  -0.424  0.00  0.00    +0.002 A 
ATOM     15  C   UNL     1       1.349   1.318  -1.560  0.00  0.00    +0.033 A 
ATOM     16  C   UNL     1       1.438  -0.059  -1.472  0.00  0.00    +0.129 A 
ATOM     17  C   UNL     1       1.290  -0.684  -0.248  0.00  0.00    -0.014 A 
ATOM     18  C   UNL     1       1.052   0.068   0.888  0.00  0.00    +0.006 A 
BRANCH  16  19
ATOM     19  N   UNL     1       1.691  -0.863  -2.688  0.00  0.00    +0.057 N 
ATOM     20  O   UNL     1       1.740  -0.325  -3.770  0.00  0.00    -0.126 OA
ATOM     21  O   UNL     1       1.848  -2.059  -2.600  0.00  0.00    -0.126 OA
ENDBRANCH  16  19
ENDBRANCH  12  17
ENDBRANCH   1  12
TORSDOF 5
