REMARK  Name = ZINC09218709
REMARK  10 active torsions:
REMARK  status: ('A' for Active; 'I' for Inactive)
REMARK    1  A    between atoms: C_1  and  C_2
REMARK    2  A    between atoms: C_3  and  C_30
REMARK    3  A    between atoms: C_4  and  C_29
REMARK    4  A    between atoms: C_5  and  S_10
REMARK    5  A    between atoms: C_6  and  C_9
REMARK    6  A    between atoms: C_7  and  C_8
REMARK    7  A    between atoms: S_10  and  N_13
REMARK    8  A    between atoms: C_18  and  C_20
REMARK    9  A    between atoms: C_18  and  C_26
REMARK   10  A    between atoms: C_18  and  N_61
REMARK                            x       y       z     vdW  Elec       q    Type
REMARK                         _______ _______ _______ _____ _____    ______ ____
ROOT
ATOM      1  N   UNL     1      -0.460   0.761  -0.280  0.00  0.00    -0.180 NA
ATOM      2  C   UNL     1       0.947   1.042   0.042  0.00  0.00    +0.091 C 
ATOM      3  C   UNL     1       1.478  -0.088   0.931  0.00  0.00    -0.060 C 
ATOM      4  C   UNL     1      -0.200  -1.632   0.106  0.00  0.00    -0.060 C 
ATOM      5  C   UNL     1      -0.800  -0.565  -0.817  0.00  0.00    +0.091 C 
ATOM      6  N   UNL     1       1.250  -1.378   0.245  0.00  0.00    +0.392 N 
ATOM      7  H   UNL     1       1.672  -1.337  -0.690  0.00  0.00    -0.080 HD
ENDROOT
BRANCH   1   8
ATOM      8  S   UNL     1      -1.630   1.910  -0.051  0.00  0.00    +0.061 S 
ATOM      9  O   UNL     1      -0.977   3.171  -0.103  0.00  0.00    -0.153 OA
ATOM     10  O   UNL     1      -2.705   1.573  -0.917  0.00  0.00    -0.153 OA
BRANCH   8  15
ATOM     11  C   UNL     1      -3.686   1.264   5.585  0.00  0.00    +0.044 C 
ATOM     12  C   UNL     1      -3.172   1.425   4.177  0.00  0.00    -0.044 A 
ATOM     13  C   UNL     1      -3.646   0.605   3.170  0.00  0.00    -0.043 A 
ATOM     14  C   UNL     1      -3.175   0.753   1.879  0.00  0.00    -0.021 A 
ATOM     15  C   UNL     1      -2.231   1.722   1.595  0.00  0.00    +0.112 A 
ATOM     16  C   UNL     1      -1.753   2.538   2.603  0.00  0.00    -0.021 A 
ATOM     17  C   UNL     1      -2.228   2.393   3.893  0.00  0.00    -0.043 A 
ATOM     18  C   UNL     1      -1.711   3.287   4.991  0.00  0.00    +0.044 C 
ATOM     19  C   UNL     1      -0.719   3.590   2.294  0.00  0.00    +0.046 C 
ATOM     20  C   UNL     1      -3.691  -0.141   0.781  0.00  0.00    +0.046 C 
ATOM     21  C   UNL     1      -4.676  -0.451   3.480  0.00  0.00    +0.044 C 
ENDBRANCH   8  15
ENDBRANCH   1   8
BRANCH   6  22
ATOM     22  C   UNL     1       1.883  -2.474   1.009  0.00  0.00    +0.050 C 
BRANCH  22  23
ATOM     23  C   UNL     1       3.373  -2.250   1.039  0.00  0.00    -0.052 A 
ATOM     24  C   UNL     1       3.954  -1.610   2.118  0.00  0.00    +0.002 A 
ATOM     25  C   UNL     1       5.321  -1.408   2.147  0.00  0.00    +0.000 A 
ATOM     26  C   UNL     1       6.106  -1.838   1.093  0.00  0.00    +0.000 A 
ATOM     27  C   UNL     1       5.524  -2.473   0.011  0.00  0.00    +0.000 A 
ATOM     28  C   UNL     1       4.157  -2.678  -0.016  0.00  0.00    +0.002 A 
ENDBRANCH  22  23
BRANCH  22  29
ATOM     29  C   UNL     1       1.352  -2.512   2.419  0.00  0.00    +0.201 C 
ATOM     30  O   UNL     1       0.519  -1.706   2.776  0.00  0.00    -0.277 OA
ATOM     31  N   UNL     1       1.804  -3.442   3.284  0.00  0.00    -0.330 N 
ATOM     32  H   UNL     1       2.471  -4.086   2.999  0.00  0.00    +0.145 HD
ATOM     33  H   UNL     1       1.463  -3.466   4.192  0.00  0.00    +0.145 HD
ENDBRANCH  22  29
ENDBRANCH   6  22
TORSDOF 5
