REMARK  Name = ZINC12630678
REMARK  4 active torsions:
REMARK  status: ('A' for Active; 'I' for Inactive)
REMARK    1  A    between atoms: C_1  and  N_2
REMARK    2  A    between atoms: N_11  and  C_12
REMARK    3  A    between atoms: C_12  and  C_14
REMARK    4  A    between atoms: C_14  and  C_15
REMARK                            x       y       z     vdW  Elec       q    Type
REMARK                         _______ _______ _______ _____ _____    ______ ____
ROOT
ATOM      1  C   UNL     1      -0.081   7.463   1.221  0.00  0.00    +0.242 C 
ATOM      2  O   UNL     1      -0.665   7.937   0.266  0.00  0.00    -0.273 OA
ENDROOT
BRANCH   1  13
ATOM      3  C   UNL     1       1.150  10.143   4.282  0.00  0.00    +0.151 C 
ATOM      4  N   UNL     1       0.436  10.517   3.059  0.00  0.00    -0.324 N 
ATOM      5  C   UNL     1       0.109  11.839   2.827  0.00  0.00    +0.057 A 
ATOM      6  C   UNL     1       0.372  12.956   3.636  0.00  0.00    +0.027 A 
ATOM      7  C   UNL     1      -0.027  14.214   3.250  0.00  0.00    +0.002 A 
ATOM      8  C   UNL     1      -0.699  14.419   2.056  0.00  0.00    +0.001 A 
ATOM      9  C   UNL     1      -0.971  13.336   1.239  0.00  0.00    +0.017 A 
ATOM     10  C   UNL     1      -0.572  12.078   1.624  0.00  0.00    +0.039 A 
ATOM     11  S   UNL     1      -0.702  10.461   0.903  0.00  0.00    -0.052 S 
ATOM     12  C   UNL     1       0.097   9.562   2.153  0.00  0.00    +0.166 A 
ATOM     13  N   UNL     1       0.328   8.252   2.208  0.00  0.00    -0.156 NA
ENDBRANCH   1  13
BRANCH   1  14
ATOM     14  C   UNL     1       0.180   5.980   1.284  0.00  0.00    +0.147 C 
BRANCH  14  15
ATOM     15  C   UNL     1      -0.388   5.308   0.032  0.00  0.00    +0.216 C 
ATOM     16  C   UNL     1      -0.028   3.844   0.022  0.00  0.00    +0.007 A 
ATOM     17  C   UNL     1       1.169   3.166   0.007  0.00  0.00    +0.008 A 
ATOM     18  C   UNL     1       1.178   1.781   0.000  0.00  0.00    +0.000 A 
ATOM     19  C   UNL     1      -0.013   1.076   0.008  0.00  0.00    +0.001 A 
ATOM     20  C   UNL     1      -1.218   1.746   0.017  0.00  0.00    +0.015 A 
ATOM     21  C   UNL     1      -1.236   3.142   0.030  0.00  0.00    +0.066 A 
ATOM     22  C   UNL     1      -2.335   4.125   0.045  0.00  0.00    +0.340 C 
ATOM     23  O   UNL     1      -3.517   3.845   0.054  0.00  0.00    -0.245 OA
ATOM     24  O   UNL     1      -1.840   5.374   0.046  0.00  0.00    -0.453 OA
ENDBRANCH  14  15
ENDBRANCH   1  14
TORSDOF 3
