REMARK  Name = ZINC62656540
REMARK  6 active torsions:
REMARK  status: ('A' for Active; 'I' for Inactive)
REMARK    1  A    between atoms: C_1  and  C_2
REMARK    2  A    between atoms: C_6  and  C_16
REMARK    3  A    between atoms: C_10  and  C_12
REMARK    4  A    between atoms: C_12  and  C_13
REMARK    5  A    between atoms: C_12  and  C_14
REMARK    6  A    between atoms: C_12  and  C_15
REMARK                            x       y       z     vdW  Elec       q    Type
REMARK                         _______ _______ _______ _____ _____    ______ ____
ROOT
ATOM      1  C   UNL     1       2.125   2.124   0.914  0.00  0.00    +0.029 C 
ATOM      2  C   UNL     1       1.711   0.711   0.497  0.00  0.00    +0.087 C 
ATOM      3  C   UNL     1       2.646   0.205  -0.606  0.00  0.00    +0.103 C 
ATOM      4  N   UNL     1       4.002   0.049  -0.062  0.00  0.00    -0.306 NA
ATOM      5  C   UNL     1       4.036  -0.967   0.999  0.00  0.00    +0.101 C 
ATOM      6  C   UNL     1       3.158  -0.510   2.168  0.00  0.00    +0.131 C 
ATOM      7  N   UNL     1       1.813  -0.194   1.652  0.00  0.00    -0.295 N 
ATOM      8  C   UNL     1       0.708  -0.721   2.217  0.00  0.00    +0.221 C 
ATOM      9  O   UNL     1      -0.391  -0.380   1.833  0.00  0.00    -0.275 OA
ATOM     10  H   UNL     1       4.662  -0.169  -0.793  0.00  0.00    +0.123 HD
ENDROOT
BRANCH   5  11
ATOM     11  C   UNL     1       5.454  -1.149   1.475  0.00  0.00    -0.029 A 
ATOM     12  C   UNL     1       6.278  -0.050   1.628  0.00  0.00    +0.005 A 
ATOM     13  C   UNL     1       7.579  -0.218   2.065  0.00  0.00    +0.000 A 
ATOM     14  C   UNL     1       8.055  -1.484   2.349  0.00  0.00    +0.000 A 
ATOM     15  C   UNL     1       7.231  -2.583   2.197  0.00  0.00    +0.000 A 
ATOM     16  C   UNL     1       5.928  -2.415   1.764  0.00  0.00    +0.005 A 
ENDBRANCH   5  11
BRANCH   8  17
ATOM     17  C   UNL     1       0.839  -1.734   3.325  0.00  0.00    +0.039 C 
ATOM     18  C   UNL     1      -0.554  -2.182   3.773  0.00  0.00    +0.020 C 
ATOM     19  C   UNL     1       1.626  -2.944   2.820  0.00  0.00    +0.020 C 
ATOM     20  C   UNL     1       1.576  -1.103   4.508  0.00  0.00    +0.020 C 
ENDBRANCH   8  17
TORSDOF 2
