REMARK  Name = ZINC67265371
REMARK  8 active torsions:
REMARK  status: ('A' for Active; 'I' for Inactive)
REMARK    1  A    between atoms: C_1  and  C_2
REMARK    2  A    between atoms: C_2  and  C_3
REMARK    3  A    between atoms: C_2  and  C_4
REMARK    4  A    between atoms: C_4  and  N_5
REMARK    5  A    between atoms: C_8  and  N_11
REMARK    6  A    between atoms: C_12  and  C_14
REMARK    7  A    between atoms: N_17  and  C_20
REMARK    8  A    between atoms: C_25  and  N_26
REMARK                            x       y       z     vdW  Elec       q    Type
REMARK                         _______ _______ _______ _____ _____    ______ ____
ROOT
ATOM      1  N   UNL     1      -2.016  -6.073   0.853  0.00  0.00    -0.312 N 
ATOM      2  C   UNL     1      -3.077  -6.856   1.132  0.00  0.00    +0.216 C 
ATOM      3  O   UNL     1      -4.129  -6.354   1.468  0.00  0.00    -0.276 OA
ATOM      4  H   UNL     1      -1.175  -6.475   0.585  0.00  0.00    +0.149 HD
ENDROOT
BRANCH   1   8
ATOM      5  N   UNL     1      -1.382  -2.006  -0.050  0.00  0.00    +0.380 N 
ATOM      6  C   UNL     1      -0.866  -2.483   1.238  0.00  0.00    -0.077 C 
ATOM      7  C   UNL     1      -0.750  -4.009   1.211  0.00  0.00    +0.003 C 
ATOM      8  C   UNL     1      -2.132  -4.617   0.956  0.00  0.00    +0.069 C 
ATOM      9  C   UNL     1      -2.693  -4.054  -0.353  0.00  0.00    +0.003 C 
ATOM     10  C   UNL     1      -2.737  -2.527  -0.268  0.00  0.00    -0.077 C 
ATOM     11  H   UNL     1      -0.777  -2.324  -0.792  0.00  0.00    -0.082 HD
BRANCH   5  12
ATOM     12  C   UNL     1      -1.419  -0.537  -0.047  0.00  0.00    -0.076 C 
BRANCH  12  14
ATOM     13  C   UNL     1       0.772  -0.373  -1.238  0.00  0.00    +0.005 C 
ATOM     14  C   UNL     1       0.008   0.008   0.032  0.00  0.00    -0.034 C 
ATOM     15  C   UNL     1      -0.035   1.532   0.163  0.00  0.00    +0.005 C 
ENDBRANCH  12  14
ENDBRANCH   5  12
ENDBRANCH   1   8
BRANCH   2  16
ATOM     16  C   UNL     1      -2.958  -8.354   1.026  0.00  0.00    +0.078 C 
ATOM     17  C   UNL     1      -2.581  -8.736  -0.407  0.00  0.00    +0.031 C 
ATOM     18  C   UNL     1      -2.427 -10.257  -0.503  0.00  0.00    +0.106 C 
ATOM     19  N   UNL     1      -3.659 -10.889  -0.014  0.00  0.00    -0.328 N 
ATOM     20  C   UNL     1      -4.160 -10.524   1.318  0.00  0.00    +0.106 C 
ATOM     21  C   UNL     1      -4.296  -9.000   1.393  0.00  0.00    +0.031 C 
BRANCH  19  22
ATOM     22  C   UNL     1      -4.342 -11.819  -0.801  0.00  0.00    +0.060 A 
ATOM     23  C   UNL     1      -5.392 -11.408  -1.612  0.00  0.00    +0.025 A 
ATOM     24  C   UNL     1      -6.065 -12.330  -2.389  0.00  0.00    +0.002 A 
ATOM     25  C   UNL     1      -5.695 -13.662  -2.360  0.00  0.00    +0.002 A 
ATOM     26  C   UNL     1      -4.651 -14.075  -1.553  0.00  0.00    +0.034 A 
ATOM     27  C   UNL     1      -3.970 -13.157  -0.778  0.00  0.00    +0.147 A 
BRANCH  27  28
ATOM     28  N   UNL     1      -2.849 -13.599   0.081  0.00  0.00    +0.058 N 
ATOM     29  O   UNL     1      -2.462 -14.744   0.029  0.00  0.00    -0.126 OA
ATOM     30  O   UNL     1      -2.319 -12.816   0.835  0.00  0.00    -0.126 OA
ENDBRANCH  27  28
ENDBRANCH  19  22
ENDBRANCH   2  16
TORSDOF 6
