REMARK  Name = ZINC57601084
REMARK  6 active torsions:
REMARK  status: ('A' for Active; 'I' for Inactive)
REMARK    1  A    between atoms: C_1  and  N_2
REMARK    2  A    between atoms: C_5  and  C_8
REMARK    3  A    between atoms: C_5  and  N_10
REMARK    4  A    between atoms: N_10  and  C_11
REMARK    5  A    between atoms: C_12  and  C_14
REMARK    6  A    between atoms: C_14  and  C_15
REMARK                            x       y       z     vdW  Elec       q    Type
REMARK                         _______ _______ _______ _____ _____    ______ ____
ROOT
ATOM      1  N   UNL     1       1.228  -4.036  -0.035  0.00  0.00    -0.286 N 
ATOM      2  C   UNL     1       0.523  -4.714  -1.126  0.00  0.00    +0.133 C 
ATOM      3  C   UNL     1       1.776  -4.757   0.963  0.00  0.00    +0.221 C 
ATOM      4  O   UNL     1       2.360  -4.196   1.866  0.00  0.00    -0.275 OA
ENDROOT
BRANCH   1   9
ATOM      5  C   UNL     1      -0.018   1.465   0.010  0.00  0.00    -0.096 C 
ATOM      6  N   UNL     1       0.002  -0.004   0.002  0.00  0.00    +0.378 N 
ATOM      7  C   UNL     1       0.681  -0.476  -1.210  0.00  0.00    -0.076 C 
ATOM      8  C   UNL     1       0.634  -2.005  -1.264  0.00  0.00    +0.022 C 
ATOM      9  C   UNL     1       1.336  -2.575  -0.029  0.00  0.00    +0.120 C 
ATOM     10  C   UNL     1       0.666  -2.018   1.230  0.00  0.00    +0.022 C 
ATOM     11  C   UNL     1       0.712  -0.489   1.192  0.00  0.00    -0.076 C 
ATOM     12  H   UNL     1      -0.945  -0.352   0.012  0.00  0.00    -0.082 HD
BRANCH   9  13
ATOM     13  C   UNL     1       2.755  -2.185  -0.045  0.00  0.00    +0.088 C 
ATOM     14  N   UNL     1       3.850  -1.884  -0.057  0.00  0.00    -0.194 NA
ENDBRANCH   9  13
ENDBRANCH   1   9
BRANCH   3  15
ATOM     15  C   UNL     1       1.665  -6.260   0.956  0.00  0.00    +0.131 C 
BRANCH  15  16
ATOM     16  C   UNL     1       2.356  -6.820   2.173  0.00  0.00    -0.038 A 
ATOM     17  C   UNL     1       3.699  -7.145   2.116  0.00  0.00    +0.007 A 
ATOM     18  C   UNL     1       4.334  -7.658   3.231  0.00  0.00    +0.038 A 
ATOM     19  C   UNL     1       3.625  -7.848   4.405  0.00  0.00    +0.123 A 
ATOM     20  C   UNL     1       2.280  -7.522   4.461  0.00  0.00    +0.038 A 
ATOM     21  C   UNL     1       1.649  -7.004   3.346  0.00  0.00    +0.007 A 
ATOM     22  F   UNL     1       4.245  -8.350   5.495  0.00  0.00    -0.205 F 
ENDBRANCH  15  16
ENDBRANCH   3  15
TORSDOF 4
