REMARK  Name = ZINC05169312
REMARK  9 active torsions:
REMARK  status: ('A' for Active; 'I' for Inactive)
REMARK    1  A    between atoms: C_1  and  C_2
REMARK    2  A    between atoms: C_6  and  C_30
REMARK    3  A    between atoms: C_7  and  N_8
REMARK    4  A    between atoms: C_9  and  S_13
REMARK    5  A    between atoms: S_13  and  C_14
REMARK    6  A    between atoms: C_14  and  C_16
REMARK    7  A    between atoms: C_14  and  C_17
REMARK    8  A    between atoms: C_17  and  C_19
REMARK    9  A    between atoms: C_20  and  C_29
REMARK                            x       y       z     vdW  Elec       q    Type
REMARK                         _______ _______ _______ _____ _____    ______ ____
ROOT
ATOM      1  C   UNL     1       3.821   2.930   0.477  0.00  0.00    +0.122 C 
ATOM      2  C   UNL     1       3.352   3.544  -0.844  0.00  0.00    +0.028 C 
ENDROOT
BRANCH   1   3
ATOM      3  C   UNL     1       5.194   3.452   0.814  0.00  0.00    +0.178 C 
ATOM      4  O   UNL     1       6.179   2.824   0.484  0.00  0.00    -0.291 OA
BRANCH   3   5
ATOM      5  C   UNL     1       5.335   4.674   1.517  0.00  0.00    +0.046 A 
ATOM      6  C   UNL     1       5.290   4.854   2.883  0.00  0.00    +0.024 A 
ATOM      7  N   UNL     1       5.464   6.157   3.174  0.00  0.00    -0.358 N 
ATOM      8  H   UNL     1       5.471   6.526   4.071  0.00  0.00    +0.166 HD
ATOM      9  C   UNL     1       5.631   6.897   2.020  0.00  0.00    +0.047 A 
ATOM     10  C   UNL     1       5.565   6.011   0.934  0.00  0.00    +0.010 A 
ATOM     11  C   UNL     1       5.695   6.488  -0.367  0.00  0.00    +0.011 A 
ATOM     12  C   UNL     1       5.901   7.834  -0.582  0.00  0.00    +0.001 A 
ATOM     13  C   UNL     1       5.973   8.711   0.490  0.00  0.00    +0.002 A 
ATOM     14  C   UNL     1       5.840   8.252   1.783  0.00  0.00    +0.026 A 
ATOM     15  C   UNL     1       5.079   3.759   3.897  0.00  0.00    +0.064 C 
ENDBRANCH   3   5
ENDBRANCH   1   3
BRANCH   1  16
ATOM     16  S   UNL     1       3.882   1.129   0.317  0.00  0.00    -0.073 S 
BRANCH  16  18
ATOM     17  N   UNL     1       1.611  -0.439  -0.099  0.00  0.00    -0.187 N 
ATOM     18  C   UNL     1       2.170   0.784   0.081  0.00  0.00    +0.215 A 
ATOM     19  N   UNL     1       1.192   1.664   0.046  0.00  0.00    -0.101 NA
ATOM     20  N   UNL     1       0.066   1.077  -0.142  0.00  0.00    -0.022 NA
ATOM     21  N   UNL     1       0.233  -0.197  -0.241  0.00  0.00    -0.038 NA
BRANCH  17  28
ATOM     22  C   UNL     1       3.617  -0.843  -2.078  0.00  0.00    +0.046 C 
ATOM     23  C   UNL     1       3.251  -1.916  -1.086  0.00  0.00    -0.025 A 
ATOM     24  C   UNL     1       3.898  -3.136  -1.117  0.00  0.00    +0.005 A 
ATOM     25  C   UNL     1       3.558  -4.123  -0.210  0.00  0.00    +0.001 A 
ATOM     26  C   UNL     1       2.574  -3.891   0.733  0.00  0.00    +0.005 A 
ATOM     27  C   UNL     1       1.927  -2.672   0.772  0.00  0.00    -0.025 A 
ATOM     28  C   UNL     1       2.266  -1.678  -0.137  0.00  0.00    +0.076 A 
ATOM     29  C   UNL     1       0.854  -2.420   1.800  0.00  0.00    +0.046 C 
ENDBRANCH  17  28
ENDBRANCH  16  18
ENDBRANCH   1  16
TORSDOF 5
