REMARK  Name = ZINC00474618
REMARK  3 active torsions:
REMARK  status: ('A' for Active; 'I' for Inactive)
REMARK    1  A    between atoms: C_7  and  C_11
REMARK    2  A    between atoms: C_11  and  C_12
REMARK    3  A    between atoms: N_16  and  C_20
REMARK                            x       y       z     vdW  Elec       q    Type
REMARK                         _______ _______ _______ _____ _____    ______ ____
ROOT
ATOM      1  C   UNL     1       0.231  -3.585  -1.465  0.00  0.00    +0.166 C 
ATOM      2  C   UNL     1      -0.771  -4.721  -1.493  0.00  0.00    +0.248 C 
ATOM      3  O   UNL     1      -1.875  -4.736  -0.992  0.00  0.00    -0.273 OA
ATOM      4  N   UNL     1      -0.181  -5.712  -2.191  0.00  0.00    -0.193 N 
ATOM      5  C   UNL     1       1.043  -5.362  -2.603  0.00  0.00    +0.314 C 
ATOM      6  O   UNL     1       1.771  -6.089  -3.251  0.00  0.00    -0.252 OA
ATOM      7  N   UNL     1       1.379  -4.113  -2.223  0.00  0.00    -0.287 N 
ATOM      8  H   UNL     1       2.212  -3.652  -2.410  0.00  0.00    +0.151 HD
ENDROOT
BRANCH   4   9
ATOM      9  C   UNL     1      -0.775  -6.955  -2.451  0.00  0.00    +0.046 A 
ATOM     10  C   UNL     1      -0.140  -7.869  -3.280  0.00  0.00    +0.027 A 
ATOM     11  C   UNL     1      -0.727  -9.093  -3.535  0.00  0.00    +0.040 A 
ATOM     12  C   UNL     1      -1.949  -9.409  -2.965  0.00  0.00    +0.124 A 
ATOM     13  C   UNL     1      -2.584  -8.498  -2.138  0.00  0.00    +0.040 A 
ATOM     14  C   UNL     1      -1.997  -7.275  -1.875  0.00  0.00    +0.027 A 
ATOM     15  F   UNL     1      -2.522 -10.606  -3.216  0.00  0.00    -0.205 F 
ENDBRANCH   4   9
BRANCH   1  16
ATOM     16  C   UNL     1       0.639  -3.261  -0.027  0.00  0.00    +0.069 C 
BRANCH  16  23
ATOM     17  C   UNL     1      -0.028   1.379  -0.044  0.00  0.00    +0.001 A 
ATOM     18  C   UNL     1       1.161   2.096  -0.038  0.00  0.00    +0.002 A 
ATOM     19  C   UNL     1       2.374   1.445  -0.028  0.00  0.00    +0.026 A 
ATOM     20  C   UNL     1       2.412   0.054  -0.024  0.00  0.00    +0.047 A 
ATOM     21  C   UNL     1       1.205  -0.668  -0.030  0.00  0.00    +0.003 A 
ATOM     22  C   UNL     1      -0.014   0.013  -0.041  0.00  0.00    +0.010 A 
ATOM     23  C   UNL     1       1.580  -2.084  -0.024  0.00  0.00    -0.020 A 
ATOM     24  C   UNL     1       2.921  -2.135  -0.015  0.00  0.00    +0.087 A 
ATOM     25  N   UNL     1       3.436  -0.867  -0.014  0.00  0.00    -0.360 N 
ATOM     26  H   UNL     1       4.381  -0.649  -0.008  0.00  0.00    +0.165 HD
ENDBRANCH  16  23
ENDBRANCH   1  16
TORSDOF 3
