REMARK  Name = ZINC12377881
REMARK  4 active torsions:
REMARK  status: ('A' for Active; 'I' for Inactive)
REMARK    1  A    between atoms: C_1  and  C_2
REMARK    2  A    between atoms: C_2  and  O_4
REMARK    3  A    between atoms: O_4  and  C_5
REMARK    4  A    between atoms: C_8  and  N_11
REMARK                            x       y       z     vdW  Elec       q    Type
REMARK                         _______ _______ _______ _____ _____    ______ ____
ROOT
ATOM      1  N   UNL     1      -1.288  -6.218  -0.156  0.00  0.00    -0.210 N 
ATOM      2  C   UNL     1      -0.171  -6.994  -0.128  0.00  0.00    +0.230 C 
ATOM      3  O   UNL     1       0.976  -6.628  -0.277  0.00  0.00    -0.275 OA
ATOM      4  C   UNL     1      -0.644  -8.389   0.125  0.00  0.00    +0.088 C 
ATOM      5  C   UNL     1       0.100  -9.555  -0.483  0.00  0.00    +0.013 C 
ATOM      6  C   UNL     1      -0.668 -10.828  -0.082  0.00  0.00    +0.001 C 
ATOM      7  C   UNL     1      -2.129 -10.777  -0.515  0.00  0.00    +0.001 C 
ATOM      8  C   UNL     1      -2.831  -9.496  -0.020  0.00  0.00    +0.013 C 
ATOM      9  C   UNL     1      -2.038  -8.334  -0.569  0.00  0.00    +0.088 C 
ATOM     10  C   UNL     1      -2.442  -6.935  -0.224  0.00  0.00    +0.230 C 
ATOM     11  O   UNL     1      -3.568  -6.523  -0.044  0.00  0.00    -0.275 OA
ENDROOT
BRANCH   1  15
ATOM     12  C   UNL     1      -1.185  -2.050  -0.031  0.00  0.00    +0.132 A 
ATOM     13  C   UNL     1      -0.002  -2.774  -0.004  0.00  0.00    +0.048 A 
ATOM     14  C   UNL     1      -0.035  -4.153  -0.045  0.00  0.00    +0.027 A 
ATOM     15  C   UNL     1      -1.253  -4.816  -0.114  0.00  0.00    +0.044 A 
ATOM     16  C   UNL     1      -2.437  -4.091  -0.141  0.00  0.00    +0.027 A 
ATOM     17  C   UNL     1      -2.402  -2.712  -0.095  0.00  0.00    +0.048 A 
BRANCH  12  18
ATOM     18  O   UNL     1      -1.151  -0.691   0.009  0.00  0.00    -0.426 OA
BRANCH  18  20
ATOM     19  C   UNL     1      -0.883   1.471  -1.153  0.00  0.00    +0.136 C 
ATOM     20  C   UNL     1      -0.826  -0.035  -1.116  0.00  0.00    +0.309 C 
ATOM     21  O   UNL     1      -0.487  -0.651  -2.098  0.00  0.00    -0.251 OA
ENDBRANCH  18  20
ENDBRANCH  12  18
ENDBRANCH   1  15
TORSDOF 3
