REMARK  Name = ZINC35818882
REMARK  8 active torsions:
REMARK  status: ('A' for Active; 'I' for Inactive)
REMARK    1  A    between atoms: C_1  and  C_2
REMARK    2  A    between atoms: C_2  and  O_3
REMARK    3  A    between atoms: O_3  and  C_4
REMARK    4  A    between atoms: C_4  and  C_6
REMARK    5  A    between atoms: C_12  and  C_14
REMARK    6  A    between atoms: C_14  and  C_16
REMARK    7  A    between atoms: C_14  and  N_17
REMARK    8  A    between atoms: N_20  and  C_23
REMARK                            x       y       z     vdW  Elec       q    Type
REMARK                         _______ _______ _______ _____ _____    ______ ____
ROOT
ATOM      1  C   UNL     1      -5.597  -6.306   1.805  0.00  0.00    +0.016 C 
ATOM      2  C   UNL     1      -4.226  -6.982   1.885  0.00  0.00    -0.004 C 
ENDROOT
BRANCH   1   9
ATOM      3  C   UNL     1      -3.644  -2.445  -0.770  0.00  0.00    +0.101 C 
ATOM      4  C   UNL     1      -3.810  -2.010   0.687  0.00  0.00    +0.033 C 
ATOM      5  C   UNL     1      -5.142  -2.542   1.226  0.00  0.00    +0.108 C 
ATOM      6  N   UNL     1      -5.188  -3.996   1.021  0.00  0.00    -0.303 N 
ATOM      7  C   UNL     1      -4.951  -4.527  -0.329  0.00  0.00    +0.108 C 
ATOM      8  C   UNL     1      -3.621  -3.973  -0.850  0.00  0.00    +0.033 C 
ATOM      9  C   UNL     1      -5.443  -4.827   2.051  0.00  0.00    +0.202 C 
ATOM     10  O   UNL     1      -5.549  -4.385   3.175  0.00  0.00    -0.277 OA
BRANCH   3  11
ATOM     11  C   UNL     1      -2.350  -1.895  -1.314  0.00  0.00    +0.310 C 
ATOM     12  O   UNL     1      -1.498  -2.647  -1.722  0.00  0.00    -0.251 OA
BRANCH  11  13
ATOM     13  O   UNL     1      -2.145  -0.569  -1.344  0.00  0.00    -0.465 OA
BRANCH  13  15
ATOM     14  C   UNL     1      -0.846   1.411  -1.826  0.00  0.00    +0.048 C 
ATOM     15  C   UNL     1      -0.897  -0.117  -1.872  0.00  0.00    +0.229 C 
ENDBRANCH  13  15
ENDBRANCH  11  13
ENDBRANCH   3  11
ENDBRANCH   1   9
BRANCH   1  16
ATOM     16  N   UNL     1      -6.486  -6.882   2.823  0.00  0.00    +0.389 N 
ATOM     17  C   UNL     1      -7.798  -6.225   2.752  0.00  0.00    -0.059 C 
ATOM     18  C   UNL     1      -8.689  -6.743   3.886  0.00  0.00    +0.086 C 
ATOM     19  N   UNL     1      -8.739  -8.211   3.806  0.00  0.00    -0.333 N 
ATOM     20  C   UNL     1      -7.468  -8.944   3.708  0.00  0.00    +0.086 C 
ATOM     21  C   UNL     1      -6.634  -8.323   2.583  0.00  0.00    -0.059 C 
ATOM     22  H   UNL     1      -6.088  -6.734   3.738  0.00  0.00    -0.081 HD
BRANCH  19  23
ATOM     23  C   UNL     1      -9.960  -8.889   3.823  0.00  0.00    +0.031 A 
ATOM     24  C   UNL     1      -9.985 -10.278   3.871  0.00  0.00    +0.023 A 
ATOM     25  C   UNL     1     -11.193 -10.946   3.888  0.00  0.00    +0.003 A 
ATOM     26  C   UNL     1     -12.379 -10.235   3.856  0.00  0.00    +0.020 A 
ATOM     27  C   UNL     1     -12.359  -8.852   3.808  0.00  0.00    +0.043 A 
ATOM     28  C   UNL     1     -11.152  -8.177   3.797  0.00  0.00    +0.043 A 
ATOM     29 CL   UNL     1     -13.850  -7.964   3.768  0.00  0.00    -0.083 Cl
ENDBRANCH  19  23
ENDBRANCH   1  16
TORSDOF 6
