REMARK  Name = ZINC11904734
REMARK  9 active torsions:
REMARK  status: ('A' for Active; 'I' for Inactive)
REMARK    1  A    between atoms: C_1  and  C_2
REMARK    2  A    between atoms: C_2  and  N_3
REMARK    3  A    between atoms: N_3  and  C_4
REMARK    4  A    between atoms: N_3  and  S_11
REMARK    5  A    between atoms: C_4  and  C_5
REMARK    6  A    between atoms: S_11  and  C_14
REMARK    7  A    between atoms: C_15  and  C_29
REMARK    8  A    between atoms: C_17  and  N_21
REMARK    9  A    between atoms: C_19  and  C_20
REMARK                            x       y       z     vdW  Elec       q    Type
REMARK                         _______ _______ _______ _____ _____    ______ ____
ROOT
ATOM      1  C   UNL     1       1.444  -0.118  -0.204  0.00  0.00    +0.111 A 
ATOM      2  C   UNL     1       0.391   0.680   0.203  0.00  0.00    -0.022 A 
ATOM      3  C   UNL     1       0.637   1.915   0.769  0.00  0.00    +0.030 A 
ATOM      4  C   UNL     1       1.944   2.356   0.929  0.00  0.00    +0.060 A 
ATOM      5  C   UNL     1       3.000   1.551   0.520  0.00  0.00    +0.030 A 
ATOM      6  C   UNL     1       2.747   0.317  -0.046  0.00  0.00    -0.022 A 
ATOM      7  C   UNL     1       3.892  -0.555  -0.492  0.00  0.00    +0.046 C 
ATOM      8  C   UNL     1      -1.028   0.202   0.028  0.00  0.00    +0.046 C 
ENDROOT
BRANCH   4   9
ATOM      9  N   UNL     1       2.198   3.607   1.502  0.00  0.00    -0.144 N 
ATOM     10  C   UNL     1       1.362   4.657   1.506  0.00  0.00    +0.240 C 
ATOM     11  O   UNL     1       0.259   4.573   1.010  0.00  0.00    -0.274 OA
ATOM     12  C   UNL     1       1.822   5.934   2.142  0.00  0.00    +0.122 C 
ATOM     13  C   UNL     1       3.018   5.621   3.080  0.00  0.00    +0.198 C 
ATOM     14  S   UNL     1       3.599   4.061   2.297  0.00  0.00    +0.052 S 
ATOM     15  O   UNL     1       3.829   3.057   3.276  0.00  0.00    -0.155 OA
ATOM     16  O   UNL     1       4.551   4.329   1.276  0.00  0.00    -0.155 OA
ENDBRANCH   4   9
BRANCH   1  17
ATOM     17  S   UNL     1       1.125  -1.693  -0.927  0.00  0.00    +0.062 S 
ATOM     18  O   UNL     1      -0.183  -1.630  -1.479  0.00  0.00    -0.153 OA
ATOM     19  O   UNL     1       2.267  -2.021  -1.707  0.00  0.00    -0.153 OA
BRANCH  17  20
ATOM     20  N   UNL     1       1.064  -2.795   0.308  0.00  0.00    -0.173 NA
BRANCH  20  22
ATOM     21  C   UNL     1       2.749  -2.566   2.066  0.00  0.00    +0.022 C 
ATOM     22  C   UNL     1       2.303  -3.367   0.841  0.00  0.00    +0.106 C 
ENDBRANCH  20  22
BRANCH  20  23
ATOM     23  C   UNL     1      -0.229  -3.197   0.868  0.00  0.00    +0.144 C 
BRANCH  23  24
ATOM     24  C   UNL     1      -0.636  -4.526   0.286  0.00  0.00    -0.032 A 
ATOM     25  C   UNL     1      -1.390  -4.573  -0.871  0.00  0.00    +0.005 A 
ATOM     26  C   UNL     1      -1.760  -5.792  -1.407  0.00  0.00    +0.000 A 
ATOM     27  C   UNL     1      -1.384  -6.965  -0.780  0.00  0.00    +0.000 A 
ATOM     28  C   UNL     1      -0.635  -6.919   0.381  0.00  0.00    +0.000 A 
ATOM     29  C   UNL     1      -0.261  -5.699   0.914  0.00  0.00    +0.005 A 
ENDBRANCH  23  24
ENDBRANCH  20  23
ENDBRANCH  17  20
ENDBRANCH   1  17
TORSDOF 6
