REMARK  Name = ZINC00714589
REMARK  10 active torsions:
REMARK  status: ('A' for Active; 'I' for Inactive)
REMARK    1  A    between atoms: C_1  and  C_2
REMARK    2  A    between atoms: C_2  and  O_3
REMARK    3  A    between atoms: O_3  and  C_4
REMARK    4  A    between atoms: C_7  and  C_12
REMARK    5  A    between atoms: C_9  and  O_10
REMARK    6  A    between atoms: O_10  and  C_11
REMARK    7  A    between atoms: C_14  and  C_27
REMARK    8  A    between atoms: C_15  and  N_26
REMARK    9  A    between atoms: C_22  and  C_24
REMARK   10  A    between atoms: C_22  and  C_25
REMARK                            x       y       z     vdW  Elec       q    Type
REMARK                         _______ _______ _______ _____ _____    ______ ____
ROOT
ATOM      1  C   UNL     1       1.164   3.551   0.005  0.00  0.00    +0.101 C 
ATOM      2  C   UNL     1       1.156   2.048   0.002  0.00  0.00    +0.098 C 
ATOM      3  C   UNL     1      -0.017   1.369   0.010  0.00  0.00    +0.198 C 
ATOM      4  O   UNL     1      -1.196   2.010   0.019  0.00  0.00    -0.445 OA
ATOM      5  C   UNL     1      -1.269   3.285  -0.402  0.00  0.00    +0.115 C 
ATOM      6  C   UNL     1      -0.183   4.078  -0.429  0.00  0.00    +0.046 C 
ATOM      7  C   UNL     1      -0.264   5.417  -0.857  0.00  0.00    +0.164 C 
ATOM      8  O   UNL     1       0.741   6.098  -0.882  0.00  0.00    -0.292 OA
ATOM      9  C   UNL     1      -1.575   6.020  -1.285  0.00  0.00    +0.086 C 
ATOM     10  C   UNL     1      -2.713   5.302  -0.551  0.00  0.00    -0.021 C 
ATOM     11  C   UNL     1      -2.615   3.805  -0.850  0.00  0.00    +0.081 C 
ATOM     12  C   UNL     1      -2.581   5.536   0.955  0.00  0.00    +0.012 C 
ATOM     13  C   UNL     1      -4.059   5.841  -1.039  0.00  0.00    +0.012 C 
ENDROOT
BRANCH   1  17
ATOM     14  C   UNL     1       2.027   4.952   3.953  0.00  0.00    +0.162 A 
ATOM     15  C   UNL     1       0.911   4.162   3.723  0.00  0.00    +0.050 A 
ATOM     16  C   UNL     1       0.635   3.712   2.446  0.00  0.00    +0.008 A 
ATOM     17  C   UNL     1       1.469   4.046   1.396  0.00  0.00    -0.031 A 
ATOM     18  C   UNL     1       2.587   4.829   1.619  0.00  0.00    +0.054 A 
ATOM     19  C   UNL     1       2.866   5.289   2.896  0.00  0.00    +0.162 A 
BRANCH  19  20
ATOM     20  O   UNL     1       3.962   6.063   3.116  0.00  0.00    -0.491 OA
ATOM     21  C   UNL     1       4.779   6.369   1.984  0.00  0.00    +0.277 C 
ENDBRANCH  19  20
BRANCH  14  22
ATOM     22  O   UNL     1       2.300   5.396   5.209  0.00  0.00    -0.489 OA
BRANCH  22  24
ATOM     23  C   UNL     1       1.862   5.601   7.577  0.00  0.00    +0.048 C 
ATOM     24  C   UNL     1       1.394   5.012   6.245  0.00  0.00    +0.226 C 
ENDBRANCH  22  24
ENDBRANCH  14  22
ENDBRANCH   1  17
BRANCH   3  25
ATOM     25  N   UNL     1       0.002  -0.004   0.002  0.00  0.00    -0.328 N 
ATOM     26  H   UNL     1       0.849  -0.478  -0.009  0.00  0.00    +0.145 HD
ATOM     27  H   UNL     1      -0.831  -0.500   0.007  0.00  0.00    +0.145 HD
ENDBRANCH   3  25
BRANCH   2  28
ATOM     28  C   UNL     1       2.395   1.330  -0.010  0.00  0.00    +0.101 C 
ATOM     29  N   UNL     1       3.377   0.760  -0.019  0.00  0.00    -0.191 NA
ENDBRANCH   2  28
TORSDOF 6
