REMARK  Name = ZINC66567713
REMARK  10 active torsions:
REMARK  status: ('A' for Active; 'I' for Inactive)
REMARK    1  A    between atoms: C_1  and  C_2
REMARK    2  A    between atoms: C_2  and  N_20
REMARK    3  A    between atoms: N_5  and  C_8
REMARK    4  A    between atoms: C_8  and  C_9
REMARK    5  A    between atoms: N_20  and  C_21
REMARK    6  A    between atoms: C_22  and  O_24
REMARK    7  A    between atoms: O_24  and  C_25
REMARK    8  A    between atoms: C_25  and  C_26
REMARK    9  A    between atoms: C_25  and  C_27
REMARK   10  A    between atoms: C_25  and  C_28
REMARK                            x       y       z     vdW  Elec       q    Type
REMARK                         _______ _______ _______ _____ _____    ______ ____
ROOT
ATOM      1  C   UNL     1       0.040   1.534   0.028  0.00  0.00    +0.032 C 
ATOM      2  C   UNL     1       0.007   0.005   0.001  0.00  0.00    +0.034 C 
ATOM      3  C   UNL     1      -1.446  -0.477   0.003  0.00  0.00    +0.007 C 
ATOM      4  C   UNL     1      -1.471  -2.006   0.056  0.00  0.00    -0.076 C 
ATOM      5  N   UNL     1      -0.800  -2.467   1.277  0.00  0.00    +0.383 N 
ATOM      6  C   UNL     1       0.613  -2.071   1.249  0.00  0.00    -0.076 C 
ATOM      7  C   UNL     1       0.718  -0.544   1.242  0.00  0.00    +0.007 C 
ATOM      8  H   UNL     1      -1.248  -2.056   2.082  0.00  0.00    -0.081 HD
ENDROOT
BRANCH   2   9
ATOM      9  N   UNL     1       0.684  -0.478  -1.205  0.00  0.00    -0.265 N 
ATOM     10  C   UNL     1       1.947  -1.212  -1.092  0.00  0.00    +0.136 C 
ATOM     11  C   UNL     1       0.145  -0.247  -2.418  0.00  0.00    +0.404 C 
ATOM     12  O   UNL     1      -0.902   0.361  -2.512  0.00  0.00    -0.226 OA
BRANCH  11  13
ATOM     13  O   UNL     1       0.767  -0.691  -3.527  0.00  0.00    -0.445 OA
BRANCH  13  14
ATOM     14  C   UNL     1       0.139  -0.411  -4.779  0.00  0.00    +0.107 C 
ATOM     15  C   UNL     1       0.011   1.103  -4.958  0.00  0.00    +0.055 C 
ATOM     16  C   UNL     1       0.986  -0.989  -5.915  0.00  0.00    +0.055 C 
ATOM     17  C   UNL     1      -1.252  -1.047  -4.806  0.00  0.00    +0.055 C 
ENDBRANCH  13  14
ENDBRANCH  11  13
ENDBRANCH   2   9
BRANCH   5  18
ATOM     18  C   UNL     1      -0.895  -3.931   1.363  0.00  0.00    -0.039 C 
BRANCH  18  19
ATOM     19  C   UNL     1      -0.315  -4.396   2.674  0.00  0.00    -0.019 A 
ATOM     20  C   UNL     1       0.970  -4.899   2.721  0.00  0.00    +0.043 A 
ATOM     21  C   UNL     1       1.503  -5.327   3.925  0.00  0.00    +0.124 A 
ATOM     22  C   UNL     1       0.747  -5.252   5.082  0.00  0.00    +0.047 A 
ATOM     23  C   UNL     1      -0.540  -4.750   5.038  0.00  0.00    +0.023 A 
ATOM     24  C   UNL     1      -1.072  -4.314   3.834  0.00  0.00    +0.130 A 
ATOM     25  O   UNL     1      -2.332  -3.804   3.780  0.00  0.00    -0.466 OA
ATOM     26  C   UNL     1      -3.185  -4.069   4.897  0.00  0.00    +0.394 C 
ATOM     27  O   UNL     1      -2.463  -3.788   6.101  0.00  0.00    -0.339 OA
ATOM     28  C   UNL     1      -1.356  -4.678   6.304  0.00  0.00    +0.202 C 
ATOM     29  F   UNL     1       2.760  -5.817   3.971  0.00  0.00    -0.205 F 
ENDBRANCH  18  19
ENDBRANCH   5  18
TORSDOF 5
