REMARK  Name = ZINC59982481
REMARK  12 active torsions:
REMARK  status: ('A' for Active; 'I' for Inactive)
REMARK    1  A    between atoms: C_1  and  C_2
REMARK    2  A    between atoms: C_5  and  S_25
REMARK    3  A    between atoms: C_7  and  C_8
REMARK    4  A    between atoms: N_10  and  C_11
REMARK    5  A    between atoms: C_11  and  C_12
REMARK    6  A    between atoms: C_12  and  C_13
REMARK    7  A    between atoms: C_12  and  C_14
REMARK    8  A    between atoms: C_12  and  N_15
REMARK    9  A    between atoms: C_17  and  C_24
REMARK   10  A    between atoms: C_20  and  C_23
REMARK   11  A    between atoms: S_25  and  N_28
REMARK   12  A    between atoms: N_28  and  C_29
REMARK                            x       y       z     vdW  Elec       q    Type
REMARK                         _______ _______ _______ _____ _____    ______ ____
ROOT
ATOM      1  C   UNL     1       0.637  -0.942   4.060  0.00  0.00    +0.244 C 
ATOM      2  O   UNL     1       0.291   0.192   4.327  0.00  0.00    -0.270 OA
ATOM      3  N   UNL     1       1.139  -1.738   5.025  0.00  0.00    -0.313 N 
ATOM      4  H   UNL     1       1.345  -2.666   4.830  0.00  0.00    +0.149 HD
ENDROOT
BRANCH   1  11
ATOM      5  C   UNL     1      -0.357   0.809   1.982  0.00  0.00    +0.044 C 
ATOM      6  C   UNL     1       0.029  -0.614   1.667  0.00  0.00    -0.038 A 
ATOM      7  C   UNL     1      -0.085  -1.091   0.377  0.00  0.00    +0.006 A 
ATOM      8  C   UNL     1       0.269  -2.396   0.086  0.00  0.00    +0.029 A 
ATOM      9  C   UNL     1       0.739  -3.231   1.084  0.00  0.00    +0.106 A 
ATOM     10  C   UNL     1       0.857  -2.767   2.378  0.00  0.00    +0.041 A 
ATOM     11  C   UNL     1       0.507  -1.449   2.677  0.00  0.00    +0.041 A 
BRANCH   9  12
ATOM     12  S   UNL     1       1.186  -4.893   0.703  0.00  0.00    +0.059 S 
ATOM     13  O   UNL     1       0.973  -5.652   1.885  0.00  0.00    -0.153 OA
ATOM     14  O   UNL     1       0.555  -5.210  -0.531  0.00  0.00    -0.153 OA
BRANCH  12  15
ATOM     15  N   UNL     1       2.817  -4.908   0.418  0.00  0.00    -0.187 NA
ATOM     16  H   UNL     1       3.154  -5.152  -0.459  0.00  0.00    +0.148 HD
BRANCH  15  17
ATOM     17  C   UNL     1       3.751  -4.553   1.489  0.00  0.00    +0.077 C 
ATOM     18  C   UNL     1       5.060  -3.870   1.087  0.00  0.00    +0.022 C 
ATOM     19  C   UNL     1       5.070  -5.325   1.561  0.00  0.00    +0.022 C 
ENDBRANCH  15  17
ENDBRANCH  12  15
ENDBRANCH   9  12
ENDBRANCH   1  11
BRANCH   3  20
ATOM     20  C   UNL     1       1.372  -1.203   6.369  0.00  0.00    +0.092 C 
BRANCH  20  21
ATOM     21  C   UNL     1       2.053  -2.268   7.231  0.00  0.00    -0.055 C 
ATOM     22  C   UNL     1       3.402  -2.638   6.612  0.00  0.00    -0.008 C 
ATOM     23  C   UNL     1       2.273  -1.718   8.642  0.00  0.00    -0.008 C 
BRANCH  21  24
ATOM     24  N   UNL     1       1.201  -3.462   7.298  0.00  0.00    +0.384 N 
ATOM     25  C   UNL     1      -0.120  -3.091   7.820  0.00  0.00    -0.075 C 
ATOM     26  C   UNL     1      -1.037  -4.315   7.817  0.00  0.00    -0.031 C 
ATOM     27  C   UNL     1      -0.426  -5.407   8.700  0.00  0.00    +0.003 C 
ATOM     28  C   UNL     1       0.981  -5.734   8.191  0.00  0.00    -0.031 C 
ATOM     29  C   UNL     1       1.823  -4.456   8.181  0.00  0.00    -0.075 C 
ATOM     30  C   UNL     1       0.892  -6.300   6.772  0.00  0.00    +0.005 C 
ATOM     31  C   UNL     1      -2.412  -3.925   8.362  0.00  0.00    +0.005 C 
ATOM     32  H   UNL     1       1.097  -3.853   6.374  0.00  0.00    -0.081 HD
ENDBRANCH  21  24
ENDBRANCH  20  21
ENDBRANCH   3  20
TORSDOF 7
