REMARK  Name = ZINC50165658
REMARK  8 active torsions:
REMARK  status: ('A' for Active; 'I' for Inactive)
REMARK    1  A    between atoms: C_1  and  N_2
REMARK    2  A    between atoms: C_3  and  C_5
REMARK    3  A    between atoms: C_7  and  N_12
REMARK    4  A    between atoms: C_13  and  C_15
REMARK    5  A    between atoms: N_17  and  C_18
REMARK    6  A    between atoms: C_18  and  C_19
REMARK    7  A    between atoms: C_19  and  C_21
REMARK    8  A    between atoms: C_19  and  O_29
REMARK                            x       y       z     vdW  Elec       q    Type
REMARK                         _______ _______ _______ _____ _____    ______ ____
ROOT
ATOM      1  N   UNL     1       1.308  -4.929  -0.025  0.00  0.00    -0.278 N 
ATOM      2  C   UNL     1       1.322  -6.274   0.069  0.00  0.00    +0.303 C 
ATOM      3  O   UNL     1       0.278  -6.893   0.071  0.00  0.00    -0.265 OA
ATOM      4  H   UNL     1       2.143  -4.439  -0.094  0.00  0.00    +0.155 HD
ENDROOT
BRANCH   1   7
ATOM      5  C   UNL     1      -1.218  -2.316   0.584  0.00  0.00    +0.074 A 
ATOM      6  C   UNL     1      -0.001  -3.000   0.585  0.00  0.00    +0.039 A 
ATOM      7  C   UNL     1       0.091  -4.241  -0.024  0.00  0.00    +0.035 A 
ATOM      8  C   UNL     1      -1.025  -4.803  -0.635  0.00  0.00    +0.026 A 
ATOM      9  C   UNL     1      -2.230  -4.128  -0.637  0.00  0.00    +0.041 A 
ATOM     10  C   UNL     1      -2.337  -2.891  -0.027  0.00  0.00    +0.136 A 
ATOM     11  F   UNL     1      -3.519  -2.236  -0.026  0.00  0.00    -0.205 F 
BRANCH   5  14
ATOM     12  C   UNL     1      -0.351   0.872   2.461  0.00  0.00    +0.128 C 
ATOM     13  N   UNL     1      -0.245  -0.440   1.819  0.00  0.00    -0.314 N 
ATOM     14  C   UNL     1      -1.325  -0.992   1.231  0.00  0.00    +0.247 C 
ATOM     15  O   UNL     1      -2.387  -0.401   1.233  0.00  0.00    -0.270 OA
ATOM     16  H   UNL     1       0.603  -0.912   1.817  0.00  0.00    +0.149 HD
ENDBRANCH   5  14
ENDBRANCH   1   7
BRANCH   2  17
ATOM     17  C   UNL     1       2.622  -7.002   0.171  0.00  0.00    +0.299 C 
ATOM     18  O   UNL     1       3.666  -6.383   0.170  0.00  0.00    -0.265 OA
ATOM     19  N   UNL     1       2.636  -8.346   0.266  0.00  0.00    -0.305 N 
ATOM     20  H   UNL     1       1.802  -8.841   0.267  0.00  0.00    +0.149 HD
BRANCH  19  21
ATOM     21  C   UNL     1       3.911  -9.060   0.366  0.00  0.00    +0.140 C 
BRANCH  21  22
ATOM     22  C   UNL     1       3.647 -10.564   0.460  0.00  0.00    +0.162 C 
BRANCH  22  23
ATOM     23  C   UNL     1       4.949 -11.289   0.687  0.00  0.00    -0.015 A 
ATOM     24  C   UNL     1       5.797 -11.534  -0.377  0.00  0.00    +0.009 A 
ATOM     25  C   UNL     1       6.992 -12.199  -0.172  0.00  0.00    +0.041 A 
ATOM     26  C   UNL     1       7.340 -12.620   1.100  0.00  0.00    +0.158 A 
ATOM     27  C   UNL     1       6.489 -12.374   2.167  0.00  0.00    +0.159 A 
ATOM     28  C   UNL     1       5.296 -11.704   1.959  0.00  0.00    +0.047 A 
ATOM     29  F   UNL     1       6.827 -12.784   3.409  0.00  0.00    -0.202 F 
ATOM     30  F   UNL     1       8.507 -13.270   1.301  0.00  0.00    -0.202 F 
ENDBRANCH  22  23
BRANCH  22  31
ATOM     31  O   UNL     1       3.053 -11.021  -0.756  0.00  0.00    -0.386 OA
ATOM     32  H   UNL     1       3.601 -10.876  -1.540  0.00  0.00    +0.210 HD
ENDBRANCH  22  31
ENDBRANCH  21  22
ENDBRANCH  19  21
ENDBRANCH   2  17
TORSDOF 7
