REMARK  Name = ZINC62510099
REMARK  4 active torsions:
REMARK  status: ('A' for Active; 'I' for Inactive)
REMARK    1  A    between atoms: C_1  and  C_2
REMARK    2  A    between atoms: C_7  and  C_25
REMARK    3  A    between atoms: N_9  and  S_10
REMARK    4  A    between atoms: S_10  and  C_13
REMARK                            x       y       z     vdW  Elec       q    Type
REMARK                         _______ _______ _______ _____ _____    ______ ____
ROOT
ATOM      1  C   UNL     1       3.200   0.838   1.093  0.00  0.00    +0.108 A 
ATOM      2  C   UNL     1       4.310   0.084   1.435  0.00  0.00    +0.030 A 
ATOM      3  C   UNL     1       5.500   0.248   0.753  0.00  0.00    +0.030 A 
ATOM      4  C   UNL     1       5.583   1.171  -0.278  0.00  0.00    +0.067 A 
ATOM      5  C   UNL     1       4.464   1.932  -0.622  0.00  0.00    +0.069 A 
ATOM      6  C   UNL     1       3.272   1.757   0.064  0.00  0.00    +0.056 A 
ATOM      7  N   UNL     1       4.847   2.757  -1.677  0.00  0.00    -0.306 N 
ATOM      8  H   UNL     1       4.280   3.401  -2.129  0.00  0.00    +0.170 HD
ATOM      9  C   UNL     1       6.140   2.510  -1.960  0.00  0.00    +0.325 A 
ATOM     10  O   UNL     1       6.784   3.064  -2.832  0.00  0.00    -0.247 OA
ATOM     11  N   UNL     1       6.612   1.558  -1.134  0.00  0.00    -0.306 N 
ATOM     12  H   UNL     1       7.514   1.202  -1.134  0.00  0.00    +0.170 HD
ENDROOT
BRANCH   1  13
ATOM     13  S   UNL     1       1.688   0.621   1.971  0.00  0.00    +0.062 S 
ATOM     14  O   UNL     1       0.981   1.850   1.873  0.00  0.00    -0.153 OA
ATOM     15  O   UNL     1       2.024   0.032   3.220  0.00  0.00    -0.153 OA
BRANCH  13  22
ATOM     16  C   UNL     1      -0.304   1.425   0.098  0.00  0.00    +0.028 C 
ATOM     17  C   UNL     1      -0.142  -0.096   0.085  0.00  0.00    +0.103 C 
ATOM     18  C   UNL     1      -1.496  -0.762   0.359  0.00  0.00    +0.180 C 
ATOM     19  O   UNL     1      -1.303  -2.168   0.529  0.00  0.00    -0.377 OA
ATOM     20  C   UNL     1      -0.482  -2.515   1.647  0.00  0.00    +0.180 C 
ATOM     21  C   UNL     1       0.923  -1.939   1.440  0.00  0.00    +0.103 C 
ATOM     22  N   UNL     1       0.798  -0.503   1.142  0.00  0.00    -0.167 NA
ATOM     23  C   UNL     1       1.752  -2.131   2.712  0.00  0.00    +0.028 C 
ENDBRANCH  13  22
ENDBRANCH   1  13
TORSDOF 2
