REMARK  Name = ZINC40141259
REMARK  9 active torsions:
REMARK  status: ('A' for Active; 'I' for Inactive)
REMARK    1  A    between atoms: C_1  and  C_2
REMARK    2  A    between atoms: C_2  and  O_3
REMARK    3  A    between atoms: O_3  and  C_4
REMARK    4  A    between atoms: C_4  and  C_6
REMARK    5  A    between atoms: C_7  and  C_26
REMARK    6  A    between atoms: C_8  and  C_13
REMARK    7  A    between atoms: C_10  and  C_12
REMARK    8  A    between atoms: N_15  and  N_16
REMARK    9  A    between atoms: C_17  and  C_19
REMARK                            x       y       z     vdW  Elec       q    Type
REMARK                         _______ _______ _______ _____ _____    ______ ____
ROOT
ATOM      1  C   UNL     1       2.733  -5.024  -4.758  0.00  0.00    +0.278 C 
ATOM      2  O   UNL     1       2.444  -6.083  -4.239  0.00  0.00    -0.267 OA
ATOM      3  N   UNL     1       3.398  -5.008  -5.931  0.00  0.00    -0.229 N 
ATOM      4  H   UNL     1       3.629  -4.163  -6.346  0.00  0.00    +0.173 HD
ENDROOT
BRANCH   1   7
ATOM      5  C   UNL     1       1.451  -2.345  -2.520  0.00  0.00    +0.066 C 
ATOM      6  C   UNL     1       1.631  -3.646  -2.826  0.00  0.00    -0.008 C 
ATOM      7  C   UNL     1       2.354  -3.745  -4.101  0.00  0.00    +0.126 C 
ATOM      8  N   UNL     1       2.618  -2.569  -4.577  0.00  0.00    -0.270 NA
ATOM      9  C   UNL     1       2.082  -1.564  -3.651  0.00  0.00    +0.140 C 
ATOM     10  C   UNL     1       1.028  -0.705  -4.352  0.00  0.00    +0.038 C 
ATOM     11  C   UNL     1       1.165  -4.812  -1.993  0.00  0.00    +0.047 C 
BRANCH   5  12
ATOM     12  C   UNL     1       0.776  -1.799  -1.335  0.00  0.00    +0.338 C 
ATOM     13  O   UNL     1       0.312  -2.551  -0.500  0.00  0.00    -0.245 OA
BRANCH  12  14
ATOM     14  O   UNL     1       0.671  -0.465  -1.174  0.00  0.00    -0.462 OA
BRANCH  14  16
ATOM     15  C   UNL     1      -0.019   1.526   0.010  0.00  0.00    +0.048 C 
ATOM     16  C   UNL     1       0.002  -0.004   0.002  0.00  0.00    +0.229 C 
ENDBRANCH  14  16
ENDBRANCH  12  14
ENDBRANCH   5  12
ENDBRANCH   1   7
BRANCH   3  17
ATOM     17  N   UNL     1       3.755  -6.213  -6.550  0.00  0.00    -0.230 N 
ATOM     18  C   UNL     1       4.420  -6.198  -7.722  0.00  0.00    +0.260 C 
ATOM     19  O   UNL     1       4.709  -5.138  -8.242  0.00  0.00    -0.269 OA
ATOM     20  H   UNL     1       3.524  -7.059  -6.135  0.00  0.00    +0.173 HD
BRANCH  18  21
ATOM     21  C   UNL     1       4.797  -7.469  -8.375  0.00  0.00    +0.038 A 
ATOM     22  C   UNL     1       4.460  -8.688  -7.783  0.00  0.00    +0.014 A 
ATOM     23  C   UNL     1       4.815  -9.870  -8.397  0.00  0.00    +0.016 A 
ATOM     24  C   UNL     1       5.503  -9.851  -9.599  0.00  0.00    +0.018 A 
ATOM     25  C   UNL     1       5.840  -8.645 -10.191  0.00  0.00    +0.016 A 
ATOM     26  C   UNL     1       5.485  -7.456  -9.590  0.00  0.00    +0.014 A 
ATOM     27 BR   UNL     1       5.986 -11.477 -10.434  0.00  0.00    -0.050 Br
ENDBRANCH  18  21
ENDBRANCH   3  17
TORSDOF 6
