REMARK  Name = ZINC41645078
REMARK  5 active torsions:
REMARK  status: ('A' for Active; 'I' for Inactive)
REMARK    1  A    between atoms: C_1  and  C_2
REMARK    2  A    between atoms: C_2  and  C_13
REMARK    3  A    between atoms: N_15  and  C_16
REMARK    4  A    between atoms: C_16  and  C_17
REMARK    5  A    between atoms: C_17  and  N_23
REMARK                            x       y       z     vdW  Elec       q    Type
REMARK                         _______ _______ _______ _____ _____    ______ ____
ROOT
ATOM      1  C   UNL     1       1.446  -2.947  -3.329  0.00  0.00    +0.238 C 
ATOM      2  O   UNL     1       0.508  -2.204  -3.530  0.00  0.00    -0.274 OA
ATOM      3  N   UNL     1       2.617  -2.450  -2.886  0.00  0.00    -0.312 N 
ATOM      4  H   UNL     1       3.367  -3.044  -2.726  0.00  0.00    +0.149 HD
ENDROOT
BRANCH   1   6
ATOM      5  C   UNL     1       1.182  -5.161  -2.238  0.00  0.00    +0.043 C 
ATOM      6  C   UNL     1       1.300  -4.427  -3.575  0.00  0.00    +0.170 C 
ATOM      7  C   UNL     1       0.070  -4.688  -4.406  0.00  0.00    +0.242 C 
ATOM      8  O   UNL     1      -0.947  -5.028  -3.840  0.00  0.00    -0.273 OA
ATOM      9  N   UNL     1       0.046  -4.563  -5.729  0.00  0.00    -0.283 N 
ATOM     10  C   UNL     1       1.132  -4.298  -6.558  0.00  0.00    +0.047 A 
ATOM     11  C   UNL     1       0.902  -3.858  -7.858  0.00  0.00    +0.024 A 
ATOM     12  C   UNL     1       1.963  -3.580  -8.697  0.00  0.00    +0.002 A 
ATOM     13  C   UNL     1       3.265  -3.734  -8.256  0.00  0.00    +0.001 A 
ATOM     14  C   UNL     1       3.509  -4.174  -6.968  0.00  0.00    +0.016 A 
ATOM     15  C   UNL     1       2.448  -4.459  -6.124  0.00  0.00    +0.031 A 
ATOM     16  S   UNL     1       2.751  -5.041  -4.485  0.00  0.00    -0.098 S 
ATOM     17  H   UNL     1      -0.816  -4.667  -6.161  0.00  0.00    +0.155 HD
ENDBRANCH   1   6
BRANCH   3  18
ATOM     18  C   UNL     1       2.759  -1.012  -2.647  0.00  0.00    +0.126 C 
BRANCH  18  19
ATOM     19  C   UNL     1       4.209  -0.697  -2.274  0.00  0.00    +0.038 C 
ATOM     20  C   UNL     1       4.329   0.781  -1.895  0.00  0.00    +0.024 C 
ATOM     21  C   UNL     1       3.909   1.648  -3.083  0.00  0.00    +0.002 C 
ATOM     22  C   UNL     1       4.818   1.352  -4.278  0.00  0.00    +0.000 C 
ATOM     23  C   UNL     1       4.698  -0.125  -4.657  0.00  0.00    +0.002 C 
ATOM     24  C   UNL     1       5.119  -0.993  -3.468  0.00  0.00    +0.024 C 
BRANCH  19  25
ATOM     25  N   UNL     1       4.613  -1.530  -1.133  0.00  0.00    -0.291 NA
ATOM     26  C   UNL     1       3.725  -1.311   0.018  0.00  0.00    +0.113 C 
ATOM     27  C   UNL     1       4.144  -2.239   1.162  0.00  0.00    +0.175 C 
ATOM     28  O   UNL     1       5.517  -2.002   1.483  0.00  0.00    -0.377 OA
ATOM     29  C   UNL     1       6.410  -2.206   0.385  0.00  0.00    +0.175 C 
ATOM     30  C   UNL     1       6.014  -1.277  -0.767  0.00  0.00    +0.113 C 
ENDBRANCH  19  25
ENDBRANCH  18  19
ENDBRANCH   3  18
TORSDOF 4
