REMARK  Name = ZINC48797539
REMARK  1 active torsions:
REMARK  status: ('A' for Active; 'I' for Inactive)
REMARK    1  A    between atoms: C_11  and  C_13
REMARK                            x       y       z     vdW  Elec       q    Type
REMARK                         _______ _______ _______ _____ _____    ______ ____
ROOT
ATOM      1  C   UNL     1      -0.016   1.355   0.009  0.00  0.00    +0.005 A 
ATOM      2  C   UNL     1       1.194   2.072   0.002  0.00  0.00    +0.018 A 
ATOM      3  C   UNL     1       2.374   1.418  -0.013  0.00  0.00    +0.096 A 
ATOM      4  N   UNL     1       2.410   0.053  -0.022  0.00  0.00    -0.271 N 
ATOM      5  C   UNL     1       1.241  -0.675  -0.014  0.00  0.00    +0.162 A 
ATOM      6  C   UNL     1       0.002  -0.004   0.002  0.00  0.00    +0.049 A 
ATOM      7  N   UNL     1       1.583  -1.952  -0.025  0.00  0.00    -0.128 NA
ATOM      8  N   UNL     1       2.865  -2.055  -0.038  0.00  0.00    -0.112 NA
ATOM      9  C   UNL     1       3.419  -0.864  -0.037  0.00  0.00    +0.228 A 
ATOM     10  N   UNL     1       4.784  -0.588  -0.049  0.00  0.00    -0.250 N 
ATOM     11  C   UNL     1       5.675  -1.599  -0.064  0.00  0.00    +0.252 C 
ATOM     12  O   UNL     1       5.287  -2.752  -0.067  0.00  0.00    -0.270 OA
ATOM     13  H   UNL     1       5.093   0.331  -0.047  0.00  0.00    +0.158 HD
ENDROOT
BRANCH  11  14
ATOM     14  C   UNL     1       7.122  -1.307  -0.077  0.00  0.00    +0.055 A 
ATOM     15  C   UNL     1       7.571   0.016  -0.068  0.00  0.00    +0.015 A 
ATOM     16  C   UNL     1       8.924   0.282  -0.081  0.00  0.00    +0.016 A 
ATOM     17  C   UNL     1       9.838  -0.758  -0.102  0.00  0.00    +0.019 A 
ATOM     18  C   UNL     1       9.402  -2.071  -0.111  0.00  0.00    +0.036 A 
ATOM     19  C   UNL     1       8.050  -2.352  -0.092  0.00  0.00    +0.054 A 
ATOM     20 CL   UNL     1       7.503  -4.000  -0.096  0.00  0.00    -0.083 Cl
ATOM     21 BR   UNL     1      11.691  -0.382  -0.119  0.00  0.00    -0.050 Br
ENDBRANCH  11  14
TORSDOF 1
