REMARK  Name = ZINC32901314
REMARK  4 active torsions:
REMARK  status: ('A' for Active; 'I' for Inactive)
REMARK    1  A    between atoms: C_1  and  C_2
REMARK    2  A    between atoms: C_12  and  C_14
REMARK    3  A    between atoms: C_14  and  C_16
REMARK    4  A    between atoms: C_14  and  N_17
REMARK                            x       y       z     vdW  Elec       q    Type
REMARK                         _______ _______ _______ _____ _____    ______ ____
ROOT
ATOM      1  C   UNL     1       1.243   2.133  -0.005  0.00  0.00    +0.156 C 
ATOM      2  C   UNL     1       1.446   2.263   1.506  0.00  0.00    +0.038 C 
ENDROOT
BRANCH   1  13
ATOM      3  C   UNL     1       1.538   5.809  -2.565  0.00  0.00    +0.029 C 
ATOM      4  C   UNL     1       1.972   5.766  -1.099  0.00  0.00    +0.083 C 
ATOM      5  C   UNL     1       3.390   6.341  -0.945  0.00  0.00    +0.059 C 
ATOM      6  C   UNL     1       4.207   5.196  -0.390  0.00  0.00    -0.024 A 
ATOM      7  C   UNL     1       5.544   5.118  -0.050  0.00  0.00    +0.005 A 
ATOM      8  C   UNL     1       6.067   3.939   0.446  0.00  0.00    +0.000 A 
ATOM      9  C   UNL     1       5.249   2.835   0.600  0.00  0.00    +0.002 A 
ATOM     10  C   UNL     1       3.915   2.907   0.262  0.00  0.00    +0.024 A 
ATOM     11  C   UNL     1       3.377   4.097  -0.234  0.00  0.00    +0.040 A 
ATOM     12  N   UNL     1       2.069   4.378  -0.638  0.00  0.00    -0.267 N 
ATOM     13  C   UNL     1       1.045   3.502  -0.605  0.00  0.00    +0.240 C 
ATOM     14  O   UNL     1      -0.036   3.815  -1.056  0.00  0.00    -0.273 OA
ENDBRANCH   1  13
BRANCH   1  15
ATOM     15  N   UNL     1       0.062   1.308  -0.271  0.00  0.00    -0.312 N 
ATOM     16  C   UNL     1       0.174  -0.067  -0.302  0.00  0.00    +0.160 A 
ATOM     17  N   UNL     1       1.243  -0.811  -0.125  0.00  0.00    -0.225 NA
ATOM     18  C   UNL     1       1.204  -2.160  -0.180  0.00  0.00    +0.080 A 
ATOM     19  C   UNL     1       2.271  -3.072  -0.005  0.00  0.00    +0.029 A 
ATOM     20  C   UNL     1       2.060  -4.423  -0.099  0.00  0.00    +0.002 A 
ATOM     21  C   UNL     1       0.803  -4.943  -0.368  0.00  0.00    +0.001 A 
ATOM     22  C   UNL     1      -0.264  -4.080  -0.545  0.00  0.00    +0.017 A 
ATOM     23  C   UNL     1      -0.062  -2.726  -0.452  0.00  0.00    +0.041 A 
ATOM     24  S   UNL     1      -1.095  -1.289  -0.600  0.00  0.00    -0.052 S 
ATOM     25  H   UNL     1      -0.913   1.784  -0.446  0.00  0.00    +0.149 HD
ENDBRANCH   1  15
TORSDOF 2
