REMARK  Name = ZINC00919582
REMARK  10 active torsions:
REMARK  status: ('A' for Active; 'I' for Inactive)
REMARK    1  A    between atoms: C_1  and  O_2
REMARK    2  A    between atoms: O_2  and  C_3
REMARK    3  A    between atoms: C_6  and  C_9
REMARK    4  A    between atoms: C_9  and  N_10
REMARK    5  A    between atoms: N_10  and  C_11
REMARK    6  A    between atoms: N_10  and  S_28
REMARK    7  A    between atoms: C_11  and  C_12
REMARK    8  A    between atoms: S_28  and  C_31
REMARK    9  A    between atoms: C_34  and  O_37
REMARK   10  A    between atoms: O_37  and  C_38
REMARK                            x       y       z     vdW  Elec       q    Type
REMARK                         _______ _______ _______ _____ _____    ______ ____
ROOT
ATOM      1  N   UNL     1       1.045  -2.846  -1.545  0.00  0.00    -0.168 NA
ENDROOT
BRANCH   1   2
ATOM      2  S   UNL     1       1.110  -2.110  -0.064  0.00  0.00    +0.061 S 
ATOM      3  O   UNL     1       2.241  -2.647   0.608  0.00  0.00    -0.153 OA
ATOM      4  O   UNL     1      -0.201  -2.175   0.481  0.00  0.00    -0.153 OA
BRANCH   2   5
ATOM      5  C   UNL     1       1.454  -0.404  -0.344  0.00  0.00    +0.106 A 
ATOM      6  C   UNL     1       0.419   0.511  -0.382  0.00  0.00    +0.032 A 
ATOM      7  C   UNL     1       0.686   1.849  -0.602  0.00  0.00    +0.047 A 
ATOM      8  C   UNL     1       1.994   2.273  -0.784  0.00  0.00    +0.120 A 
ATOM      9  C   UNL     1       3.031   1.352  -0.746  0.00  0.00    +0.047 A 
ATOM     10  C   UNL     1       2.759   0.016  -0.526  0.00  0.00    +0.032 A 
BRANCH   8  11
ATOM     11  O   UNL     1       2.260   3.588  -1.001  0.00  0.00    -0.495 OA
ATOM     12  C   UNL     1       3.630   3.952  -1.181  0.00  0.00    +0.277 C 
ENDBRANCH   8  11
ENDBRANCH   2   5
ENDBRANCH   1   2
BRANCH   1  13
ATOM     13  C   UNL     1       2.279  -3.296  -2.195  0.00  0.00    +0.145 C 
BRANCH  13  17
ATOM     14  C   UNL     1       2.933  -7.424  -1.306  0.00  0.00    +0.120 A 
ATOM     15  C   UNL     1       2.200  -7.063  -2.427  0.00  0.00    +0.046 A 
ATOM     16  C   UNL     1       1.990  -5.727  -2.712  0.00  0.00    +0.008 A 
ATOM     17  C   UNL     1       2.510  -4.752  -1.881  0.00  0.00    -0.031 A 
ATOM     18  C   UNL     1       3.245  -5.110  -0.767  0.00  0.00    +0.008 A 
ATOM     19  C   UNL     1       3.454  -6.444  -0.474  0.00  0.00    +0.046 A 
BRANCH  14  21
ATOM     20  C   UNL     1       3.905  -9.036   0.147  0.00  0.00    +0.277 C 
ATOM     21  O   UNL     1       3.141  -8.737  -1.023  0.00  0.00    -0.495 OA
ENDBRANCH  14  21
ENDBRANCH  13  17
ENDBRANCH   1  13
BRANCH   1  22
ATOM     22  C   UNL     1      -0.246  -3.049  -2.207  0.00  0.00    +0.150 C 
BRANCH  22  23
ATOM     23  C   UNL     1      -0.304  -2.216  -3.461  0.00  0.00    +0.033 A 
ATOM     24  C   UNL     1       0.049  -2.763  -4.652  0.00  0.00    +0.020 A 
ATOM     25  C   UNL     1      -0.024  -1.930  -5.853  0.00  0.00    +0.003 A 
ATOM     26  C   UNL     1       0.324  -2.442  -7.109  0.00  0.00    +0.059 A 
ATOM     27  C   UNL     1       0.251  -1.631  -8.222  0.00  0.00    +0.163 A 
ATOM     28  C   UNL     1      -0.169  -0.304  -8.100  0.00  0.00    +0.164 A 
ATOM     29  C   UNL     1      -0.514   0.211  -6.862  0.00  0.00    +0.075 A 
ATOM     30  C   UNL     1      -0.445  -0.592  -5.731  0.00  0.00    +0.053 A 
ATOM     31  N   UNL     1      -0.784  -0.095  -4.489  0.00  0.00    -0.322 N 
ATOM     32  H   UNL     1      -1.082   0.856  -4.403  0.00  0.00    +0.169 HD
ATOM     33  C   UNL     1      -0.719  -0.870  -3.392  0.00  0.00    +0.254 A 
ATOM     34  O   UNL     1      -1.026  -0.398  -2.311  0.00  0.00    -0.268 OA
ATOM     35  O   UNL     1      -0.247   0.501  -9.194  0.00  0.00    -0.485 OA
ATOM     36  C   UNL     1       0.460   0.071 -10.362  0.00  0.00    +0.270 C 
ATOM     37  C   UNL     1       0.156  -1.416 -10.589  0.00  0.00    +0.270 C 
ATOM     38  O   UNL     1       0.595  -2.143  -9.437  0.00  0.00    -0.485 OA
ENDBRANCH  22  23
ENDBRANCH   1  22
TORSDOF 8
