REMARK  Name = ZINC00633993
REMARK  6 active torsions:
REMARK  status: ('A' for Active; 'I' for Inactive)
REMARK    1  A    between atoms: C_1  and  O_2
REMARK    2  A    between atoms: O_2  and  C_3
REMARK    3  A    between atoms: C_6  and  C_11
REMARK    4  A    between atoms: C_8  and  O_9
REMARK    5  A    between atoms: O_9  and  C_10
REMARK    6  A    between atoms: C_29  and  C_31
REMARK                            x       y       z     vdW  Elec       q    Type
REMARK                         _______ _______ _______ _____ _____    ______ ____
ROOT
ATOM      1  C   UNL     1       2.590  -2.548   4.315  0.00  0.00    +0.234 C 
ATOM      2  C   UNL     1       1.625  -2.696   5.455  0.00  0.00    +0.027 C 
ATOM      3  C   UNL     1       1.508  -1.728   6.387  0.00  0.00    +0.083 C 
ATOM      4  C   UNL     1       2.374  -0.530   6.243  0.00  0.00    +0.044 A 
ATOM      5  C   UNL     1       2.112   0.642   6.938  0.00  0.00    +0.033 A 
ATOM      6  C   UNL     1       2.944   1.734   6.771  0.00  0.00    +0.042 A 
ATOM      7  C   UNL     1       4.032   1.658   5.917  0.00  0.00    +0.023 A 
ATOM      8  C   UNL     1       4.299   0.493   5.223  0.00  0.00    +0.048 A 
ATOM      9  C   UNL     1       3.475  -0.608   5.380  0.00  0.00    +0.131 A 
ATOM     10  O   UNL     1       3.715  -1.764   4.718  0.00  0.00    -0.479 OA
ATOM     11 CL   UNL     1       2.625   3.205   7.636  0.00  0.00    -0.084 Cl
ATOM     12  N   UNL     1       0.637  -1.840   7.420  0.00  0.00    -0.213 NA
ATOM     13  C   UNL     1      -0.150  -2.872   7.616  0.00  0.00    +0.237 C 
ATOM     14  N   UNL     1      -1.060  -3.143   8.578  0.00  0.00    -0.205 NA
ATOM     15  C   UNL     1      -1.610  -4.307   8.368  0.00  0.00    +0.203 C 
ATOM     16  N   UNL     1      -1.082  -4.862   7.242  0.00  0.00    -0.251 N 
ATOM     17  N   UNL     1      -0.145  -3.949   6.753  0.00  0.00    -0.208 N 
ATOM     18  C   UNL     1       0.757  -3.927   5.595  0.00  0.00    +0.159 C 
ATOM     19  H   UNL     1      -1.310  -5.723   6.857  0.00  0.00    +0.171 HD
ENDROOT
BRANCH   1  23
ATOM     20  C   UNL     1       0.626  -0.619   1.042  0.00  0.00    +0.162 A 
ATOM     21  C   UNL     1       1.202   0.137   2.051  0.00  0.00    +0.050 A 
ATOM     22  C   UNL     1       1.836  -0.490   3.108  0.00  0.00    +0.011 A 
ATOM     23  C   UNL     1       1.897  -1.870   3.161  0.00  0.00    +0.001 A 
ATOM     24  C   UNL     1       1.325  -2.630   2.158  0.00  0.00    +0.057 A 
ATOM     25  C   UNL     1       0.683  -2.008   1.099  0.00  0.00    +0.162 A 
BRANCH  20  27
ATOM     26  C   UNL     1      -0.017   1.425   0.010  0.00  0.00    +0.277 C 
ATOM     27  O   UNL     1       0.002  -0.004   0.002  0.00  0.00    -0.491 OA
ENDBRANCH  20  27
BRANCH  25  28
ATOM     28  O   UNL     1       0.115  -2.754   0.114  0.00  0.00    -0.491 OA
ATOM     29  C   UNL     1       0.211  -4.174   0.238  0.00  0.00    +0.277 C 
ENDBRANCH  25  28
ENDBRANCH   1  23
BRANCH  18  30
ATOM     30  C   UNL     1       1.660  -5.131   5.681  0.00  0.00    -0.021 A 
ATOM     31  C   UNL     1       2.271  -5.454   6.878  0.00  0.00    +0.006 A 
ATOM     32  C   UNL     1       3.099  -6.558   6.956  0.00  0.00    +0.000 A 
ATOM     33  C   UNL     1       3.316  -7.340   5.837  0.00  0.00    +0.000 A 
ATOM     34  C   UNL     1       2.704  -7.018   4.640  0.00  0.00    +0.000 A 
ATOM     35  C   UNL     1       1.873  -5.916   4.563  0.00  0.00    +0.006 A 
ENDBRANCH  18  30
TORSDOF 4
