REMARK  Name = ZINC67217486
REMARK  7 active torsions:
REMARK  status: ('A' for Active; 'I' for Inactive)
REMARK    1  A    between atoms: C_1  and  C_2
REMARK    2  A    between atoms: C_7  and  N_8
REMARK    3  A    between atoms: C_17  and  S_18
REMARK    4  A    between atoms: S_18  and  C_19
REMARK    5  A    between atoms: C_19  and  C_20
REMARK    6  A    between atoms: N_22  and  C_23
REMARK    7  A    between atoms: C_25  and  C_29
REMARK                            x       y       z     vdW  Elec       q    Type
REMARK                         _______ _______ _______ _____ _____    ______ ____
ROOT
ATOM      1  N   UNL     1       0.025  -0.012   2.418  0.00  0.00    -0.255 N 
ATOM      2  C   UNL     1      -1.142   0.306   3.028  0.00  0.00    +0.274 A 
ATOM      3  O   UNL     1      -2.212  -0.003   2.531  0.00  0.00    -0.266 OA
ATOM      4  C   UNL     1      -1.088   0.994   4.237  0.00  0.00    +0.102 A 
ATOM      5  C   UNL     1       0.138   1.358   4.824  0.00  0.00    +0.086 A 
ATOM      6  C   UNL     1       0.042   2.047   6.042  0.00  0.00    +0.036 A 
ATOM      7  C   UNL     1      -1.168   2.320   6.575  0.00  0.00    +0.048 A 
ATOM      8  S   UNL     1      -2.293   1.615   5.381  0.00  0.00    -0.090 S 
ATOM      9  N   UNL     1       1.264   0.996   4.140  0.00  0.00    -0.222 NA
ATOM     10  C   UNL     1       1.206   0.346   3.009  0.00  0.00    +0.177 A 
ENDROOT
BRANCH   1  17
ATOM     11  C   UNL     1      -0.018   1.503   0.010  0.00  0.00    +0.046 C 
ATOM     12  C   UNL     1       0.002  -0.004   0.002  0.00  0.00    -0.024 A 
ATOM     13  C   UNL     1       0.006  -0.689  -1.198  0.00  0.00    +0.043 A 
ATOM     14  C   UNL     1       0.025  -2.073  -1.206  0.00  0.00    +0.124 A 
ATOM     15  C   UNL     1       0.040  -2.774  -0.011  0.00  0.00    +0.040 A 
ATOM     16  C   UNL     1       0.037  -2.094   1.190  0.00  0.00    +0.029 A 
ATOM     17  C   UNL     1       0.023  -0.705   1.200  0.00  0.00    +0.055 A 
ATOM     18  F   UNL     1       0.027  -2.741  -2.380  0.00  0.00    -0.205 F 
ENDBRANCH   1  17
BRANCH  10  19
ATOM     19  S   UNL     1       2.714  -0.082   2.205  0.00  0.00    -0.078 S 
BRANCH  19  20
ATOM     20  C   UNL     1       3.999   0.569   3.308  0.00  0.00    +0.173 C 
BRANCH  20  21
ATOM     21  C   UNL     1       5.357   0.266   2.729  0.00  0.00    +0.229 C 
ATOM     22  O   UNL     1       5.449  -0.330   1.677  0.00  0.00    -0.275 OA
ATOM     23  N   UNL     1       6.470   0.658   3.381  0.00  0.00    -0.270 N 
ATOM     24  H   UNL     1       6.396   1.135   4.223  0.00  0.00    +0.156 HD
BRANCH  23  25
ATOM     25  C   UNL     1       7.727   0.378   2.846  0.00  0.00    +0.120 A 
ATOM     26  C   UNL     1       7.977  -0.275   1.679  0.00  0.00    +0.068 A 
ATOM     27  C   UNL     1       9.363  -0.344   1.515  0.00  0.00    +0.062 A 
ATOM     28  N   UNL     1       9.928   0.242   2.539  0.00  0.00    -0.178 NA
ATOM     29  N   UNL     1       8.919   0.711   3.391  0.00  0.00    -0.264 N 
ATOM     30  H   UNL     1       9.053   1.187   4.225  0.00  0.00    +0.190 HD
ATOM     31  C   UNL     1      10.084  -0.984   0.356  0.00  0.00    +0.067 C 
ENDBRANCH  23  25
ENDBRANCH  20  21
ENDBRANCH  19  20
ENDBRANCH  10  19
TORSDOF 5
