REMARK  Name = ZINC67203135
REMARK  6 active torsions:
REMARK  status: ('A' for Active; 'I' for Inactive)
REMARK    1  A    between atoms: C_4  and  C_7
REMARK    2  A    between atoms: C_7  and  N_8
REMARK    3  A    between atoms: C_12  and  C_14
REMARK    4  A    between atoms: C_14  and  N_15
REMARK    5  A    between atoms: C_16  and  C_18
REMARK    6  A    between atoms: C_18  and  N_19
REMARK                            x       y       z     vdW  Elec       q    Type
REMARK                         _______ _______ _______ _____ _____    ______ ____
ROOT
ATOM      1  N   UNL     1       5.888  -2.084  -1.982  0.00  0.00    -0.316 N 
ATOM      2  C   UNL     1       7.013  -2.454  -1.339  0.00  0.00    +0.231 C 
ATOM      3  O   UNL     1       7.495  -3.549  -1.539  0.00  0.00    -0.274 OA
ATOM      4  H   UNL     1       5.503  -1.209  -1.821  0.00  0.00    +0.149 HD
ENDROOT
BRANCH   1   5
ATOM      5  C   UNL     1       5.246  -3.006  -2.922  0.00  0.00    +0.089 C 
BRANCH   5  10
ATOM      6  N   UNL     1       3.102  -1.908  -2.422  0.00  0.00    +0.383 N 
ATOM      7  C   UNL     1       1.818  -2.629  -2.549  0.00  0.00    -0.078 C 
ATOM      8  C   UNL     1       1.734  -3.028  -4.044  0.00  0.00    -0.020 C 
ATOM      9  C   UNL     1       3.214  -3.369  -4.361  0.00  0.00    -0.016 C 
ATOM     10  C   UNL     1       3.996  -2.346  -3.510  0.00  0.00    -0.051 C 
ATOM     11  H   UNL     1       3.522  -2.122  -1.530  0.00  0.00    -0.081 HD
BRANCH   6  12
ATOM     12  C   UNL     1       2.870  -0.461  -2.526  0.00  0.00    -0.075 C 
BRANCH  12  16
ATOM     13  C   UNL     1       1.760   1.799   0.993  0.00  0.00    +0.000 C 
ATOM     14  C   UNL     1       2.123   0.323   1.169  0.00  0.00    +0.000 C 
ATOM     15  C   UNL     1       2.920  -0.155  -0.047  0.00  0.00    +0.002 C 
ATOM     16  C   UNL     1       2.073   0.016  -1.310  0.00  0.00    -0.028 C 
ATOM     17  C   UNL     1       1.711   1.492  -1.486  0.00  0.00    +0.002 C 
ATOM     18  C   UNL     1       0.914   1.970  -0.270  0.00  0.00    +0.000 C 
ENDBRANCH  12  16
ENDBRANCH   6  12
ENDBRANCH   5  10
ENDBRANCH   1   5
BRANCH   2  19
ATOM     19  C   UNL     1       7.673  -1.506  -0.371  0.00  0.00    +0.212 C 
BRANCH  19  20
ATOM     20  N   UNL     1       8.870  -2.137   0.192  0.00  0.00    -0.233 N 
ATOM     21  C   UNL     1       8.848  -2.883   1.309  0.00  0.00    +0.226 C 
ATOM     22  O   UNL     1       7.856  -3.252   1.902  0.00  0.00    -0.275 OA
ATOM     23  C   UNL     1      10.293  -3.185   1.699  0.00  0.00    +0.087 C 
ATOM     24  C   UNL     1      10.680  -2.244   2.825  0.00  0.00    +0.013 C 
ATOM     25  C   UNL     1      12.179  -1.989   2.884  0.00  0.00    +0.001 C 
ATOM     26  C   UNL     1      12.621  -1.380   1.548  0.00  0.00    +0.001 C 
ATOM     27  C   UNL     1      12.427  -2.429   0.460  0.00  0.00    +0.013 C 
ATOM     28  C   UNL     1      11.016  -2.961   0.378  0.00  0.00    +0.087 C 
ATOM     29  C   UNL     1      10.089  -2.026  -0.368  0.00  0.00    +0.226 C 
ATOM     30  O   UNL     1      10.391  -1.309  -1.297  0.00  0.00    -0.275 OA
ENDBRANCH  19  20
ENDBRANCH   2  19
TORSDOF 6
