REMARK  Name = ZINC40826227
REMARK  8 active torsions:
REMARK  status: ('A' for Active; 'I' for Inactive)
REMARK    1  A    between atoms: C_1  and  C_2
REMARK    2  A    between atoms: C_5  and  O_8
REMARK    3  A    between atoms: O_8  and  C_9
REMARK    4  A    between atoms: C_9  and  C_11
REMARK    5  A    between atoms: C_12  and  C_32
REMARK    6  A    between atoms: N_20  and  N_21
REMARK    7  A    between atoms: N_21  and  S_22
REMARK    8  A    between atoms: S_22  and  C_25
REMARK                            x       y       z     vdW  Elec       q    Type
REMARK                         _______ _______ _______ _____ _____    ______ ____
ROOT
ATOM      1  C   UNL     1       0.311  -6.226   1.197  0.00  0.00    +0.215 A 
ATOM      2  C   UNL     1       0.432  -6.991   2.325  0.00  0.00    +0.011 A 
ATOM      3  C   UNL     1       0.533  -8.317   1.890  0.00  0.00    +0.042 A 
ATOM      4  C   UNL     1       0.470  -8.307   0.516  0.00  0.00    +0.115 A 
ATOM      5  O   UNL     1       0.330  -7.044   0.120  0.00  0.00    -0.452 OA
ATOM      6  C   UNL     1       0.552  -9.561  -0.317  0.00  0.00    +0.075 C 
ATOM      7  C   UNL     1       1.207 -10.676   0.503  0.00  0.00    +0.014 C 
ATOM      8  C   UNL     1       0.490 -10.851   1.846  0.00  0.00    +0.058 C 
ATOM      9  C   UNL     1       0.680  -9.576   2.656  0.00  0.00    +0.071 C 
ATOM     10  N   UNL     1       0.950  -9.591   3.924  0.00  0.00    -0.170 NA
ATOM     11  C   UNL     1       0.454  -6.503   3.751  0.00  0.00    +0.048 C 
ENDROOT
BRANCH   1  12
ATOM     12  C   UNL     1       0.176  -4.768   1.162  0.00  0.00    +0.380 C 
ATOM     13  O   UNL     1       0.172  -4.132   2.199  0.00  0.00    -0.241 OA
BRANCH  12  14
ATOM     14  O   UNL     1       0.058  -4.129  -0.021  0.00  0.00    -0.420 OA
BRANCH  14  19
ATOM     15  C   UNL     1       0.049   1.503   0.002  0.00  0.00    +0.044 C 
ATOM     16  C   UNL     1       0.051  -0.004  -0.004  0.00  0.00    -0.050 A 
ATOM     17  C   UNL     1       1.209  -0.693   0.305  0.00  0.00    +0.007 A 
ATOM     18  C   UNL     1       1.214  -2.075   0.300  0.00  0.00    +0.046 A 
ATOM     19  C   UNL     1       0.056  -2.770  -0.015  0.00  0.00    +0.132 A 
ATOM     20  C   UNL     1      -1.105  -2.076  -0.324  0.00  0.00    +0.046 A 
ATOM     21  C   UNL     1      -1.106  -0.695  -0.313  0.00  0.00    +0.007 A 
ENDBRANCH  14  19
ENDBRANCH  12  14
ENDBRANCH   1  12
BRANCH  10  22
ATOM     22  N   UNL     1       1.077 -10.813   4.598  0.00  0.00    -0.136 N 
ATOM     23  H   UNL     1       0.963 -11.647   4.117  0.00  0.00    +0.197 HD
BRANCH  22  24
ATOM     24  S   UNL     1       1.422 -10.832   6.218  0.00  0.00    +0.086 S 
ATOM     25  O   UNL     1       1.343 -12.189   6.633  0.00  0.00    -0.149 OA
ATOM     26  O   UNL     1       2.594 -10.048   6.393  0.00  0.00    -0.149 OA
BRANCH  24  27
ATOM     27  C   UNL     1       0.118  -9.978   7.039  0.00  0.00    +0.110 A 
ATOM     28  C   UNL     1       0.205  -8.613   7.240  0.00  0.00    +0.031 A 
ATOM     29  C   UNL     1      -0.818  -7.942   7.883  0.00  0.00    +0.040 A 
ATOM     30  C   UNL     1      -1.930  -8.637   8.326  0.00  0.00    +0.124 A 
ATOM     31  C   UNL     1      -2.016 -10.004   8.124  0.00  0.00    +0.040 A 
ATOM     32  C   UNL     1      -0.995 -10.672   7.476  0.00  0.00    +0.031 A 
ATOM     33  F   UNL     1      -2.930  -7.982   8.955  0.00  0.00    -0.205 F 
ENDBRANCH  24  27
ENDBRANCH  22  24
ENDBRANCH  10  22
TORSDOF 6
