REMARK  Name = ZINC04613330
REMARK  6 active torsions:
REMARK  status: ('A' for Active; 'I' for Inactive)
REMARK    1  A    between atoms: C_1  and  C_2
REMARK    2  A    between atoms: C_2  and  O_3
REMARK    3  A    between atoms: O_3  and  C_4
REMARK    4  A    between atoms: C_4  and  C_6
REMARK    5  A    between atoms: C_7  and  C_26
REMARK    6  A    between atoms: C_11  and  C_13
REMARK                            x       y       z     vdW  Elec       q    Type
REMARK                         _______ _______ _______ _____ _____    ______ ____
ROOT
ATOM      1  C   UNL     1       1.232   3.467   0.001  0.00  0.00    +0.157 C 
ATOM      2  C   UNL     1       2.430   4.060   0.105  0.00  0.00    +0.031 C 
ATOM      3  N   UNL     1       2.589   5.420   0.119  0.00  0.00    -0.255 NA
ATOM      4  C   UNL     1       1.518   6.204  -0.255  0.00  0.00    +0.079 C 
ATOM      5  C   UNL     1       0.253   5.686  -0.374  0.00  0.00    +0.037 C 
ATOM      6  C   UNL     1      -0.058   4.236  -0.108  0.00  0.00    +0.110 C 
ATOM      7  C   UNL     1      -0.642   6.705  -0.768  0.00  0.00    +0.193 C 
ATOM      8  O   UNL     1      -1.835   6.578  -0.964  0.00  0.00    -0.287 OA
ATOM      9  C   UNL     1       0.137   7.955  -0.899  0.00  0.00    +0.031 A 
ATOM     10  C   UNL     1       1.482   7.633  -0.582  0.00  0.00    +0.012 A 
ATOM     11  C   UNL     1       2.471   8.603  -0.606  0.00  0.00    +0.011 A 
ATOM     12  C   UNL     1       2.082   9.897  -0.964  0.00  0.00    +0.001 A 
ATOM     13  C   UNL     1       0.779  10.205  -1.277  0.00  0.00    +0.001 A 
ATOM     14  C   UNL     1      -0.233   9.239  -1.252  0.00  0.00    +0.012 A 
ATOM     15  C   UNL     1       3.656   3.190   0.212  0.00  0.00    +0.061 C 
ENDROOT
BRANCH   6  16
ATOM     16  C   UNL     1      -0.823   4.118   1.185  0.00  0.00    +0.114 A 
ATOM     17  C   UNL     1      -2.054   3.594   1.326  0.00  0.00    +0.045 A 
ATOM     18  C   UNL     1      -2.383   3.685   2.698  0.00  0.00    +0.041 A 
ATOM     19  C   UNL     1      -1.333   4.258   3.314  0.00  0.00    +0.195 A 
ATOM     20  O   UNL     1      -0.389   4.514   2.393  0.00  0.00    -0.467 OA
ENDBRANCH   6  16
BRANCH   1  21
ATOM     21  C   UNL     1       1.178   2.054  -0.015  0.00  0.00    +0.317 C 
ATOM     22  O   UNL     1       2.207   1.406  -0.043  0.00  0.00    -0.250 OA
BRANCH  21  23
ATOM     23  O   UNL     1      -0.015   1.424   0.003  0.00  0.00    -0.464 OA
BRANCH  23  25
ATOM     24  C   UNL     1      -1.430  -0.535   0.009  0.00  0.00    +0.048 C 
ATOM     25  C   UNL     1       0.005  -0.005  -0.015  0.00  0.00    +0.229 C 
ENDBRANCH  23  25
ENDBRANCH  21  23
ENDBRANCH   1  21
TORSDOF 4
