REMARK  Name = ZINC11905121
REMARK  9 active torsions:
REMARK  status: ('A' for Active; 'I' for Inactive)
REMARK    1  A    between atoms: C_1  and  C_2
REMARK    2  A    between atoms: C_2  and  C_3
REMARK    3  A    between atoms: C_2  and  C_4
REMARK    4  A    between atoms: C_2  and  C_5
REMARK    5  A    between atoms: C_8  and  N_11
REMARK    6  A    between atoms: C_24  and  C_25
REMARK    7  A    between atoms: C_24  and  N_61
REMARK    8  A    between atoms: C_30  and  O_31
REMARK    9  A    between atoms: O_31  and  C_32
REMARK                            x       y       z     vdW  Elec       q    Type
REMARK                         _______ _______ _______ _____ _____    ______ ____
ROOT
ATOM      1  N   UNL     1      -3.269   1.079  -3.957  0.00  0.00    -0.270 N 
ATOM      2  C   UNL     1      -2.277   1.881  -3.250  0.00  0.00    +0.090 C 
ATOM      3  C   UNL     1      -1.099   2.179  -4.209  0.00  0.00    +0.187 C 
ATOM      4  S   UNL     1       0.090   0.830  -3.821  0.00  0.00    -0.031 S 
ATOM      5  O   UNL     1       1.280   1.401  -3.296  0.00  0.00    -0.174 OA
ATOM      6  O   UNL     1       0.168  -0.052  -4.932  0.00  0.00    -0.174 OA
ATOM      7  C   UNL     1      -0.828  -0.003  -2.457  0.00  0.00    +0.152 C 
ATOM      8  C   UNL     1      -1.770   1.145  -2.004  0.00  0.00    -0.023 C 
ATOM      9  C   UNL     1      -3.538  -0.500  -2.050  0.00  0.00    +0.020 C 
ATOM     10  C   UNL     1      -3.859   0.002  -3.430  0.00  0.00    +0.203 C 
ATOM     11  O   UNL     1      -4.686  -0.592  -4.089  0.00  0.00    -0.277 OA
ATOM     12  N   UNL     1      -2.920   0.589  -1.267  0.00  0.00    +0.392 N 
ATOM     13  H   UNL     1      -3.615   1.331  -1.121  0.00  0.00    -0.080 HD
ENDROOT
BRANCH   1  17
ATOM     14  C   UNL     1      -4.316   2.203  -7.830  0.00  0.00    -0.042 A 
ATOM     15  C   UNL     1      -4.652   3.014  -6.761  0.00  0.00    +0.006 A 
ATOM     16  C   UNL     1      -4.306   2.644  -5.476  0.00  0.00    +0.024 A 
ATOM     17  C   UNL     1      -3.620   1.456  -5.258  0.00  0.00    +0.036 A 
ATOM     18  C   UNL     1      -3.280   0.647  -6.333  0.00  0.00    +0.024 A 
ATOM     19  C   UNL     1      -3.633   1.020  -7.615  0.00  0.00    +0.006 A 
BRANCH  14  21
ATOM     20  C   UNL     1      -4.043   3.953  -9.566  0.00  0.00    +0.015 C 
ATOM     21  C   UNL     1      -4.695   2.609  -9.230  0.00  0.00    -0.013 C 
ATOM     22  C   UNL     1      -4.210   1.547 -10.219  0.00  0.00    +0.015 C 
ATOM     23  C   UNL     1      -6.216   2.742  -9.329  0.00  0.00    +0.015 C 
ENDBRANCH  14  21
ENDBRANCH   1  17
BRANCH  12  24
ATOM     24  C   UNL     1      -2.479   0.079   0.049  0.00  0.00    -0.038 C 
BRANCH  24  25
ATOM     25  C   UNL     1      -1.729   1.167   0.772  0.00  0.00    -0.022 A 
ATOM     26  C   UNL     1      -0.357   1.088   0.910  0.00  0.00    +0.005 A 
ATOM     27  C   UNL     1       0.331   2.083   1.579  0.00  0.00    +0.000 A 
ATOM     28  C   UNL     1      -0.352   3.163   2.107  0.00  0.00    +0.004 A 
ATOM     29  C   UNL     1      -1.723   3.250   1.968  0.00  0.00    +0.046 A 
ATOM     30  C   UNL     1      -2.416   2.253   1.297  0.00  0.00    +0.121 A 
BRANCH  30  31
ATOM     31  O   UNL     1      -3.765   2.336   1.159  0.00  0.00    -0.495 OA
ATOM     32  C   UNL     1      -4.407   3.478   1.729  0.00  0.00    +0.277 C 
ENDBRANCH  30  31
ENDBRANCH  24  25
ENDBRANCH  12  24
TORSDOF 5
