REMARK  Name = ZINC59567008
REMARK  5 active torsions:
REMARK  status: ('A' for Active; 'I' for Inactive)
REMARK    1  A    between atoms: C_1  and  N_2
REMARK    2  A    between atoms: N_2  and  C_3
REMARK    3  A    between atoms: N_2  and  C_4
REMARK    4  A    between atoms: C_7  and  C_9
REMARK    5  A    between atoms: N_15  and  C_16
REMARK                            x       y       z     vdW  Elec       q    Type
REMARK                         _______ _______ _______ _____ _____    ______ ____
ROOT
ATOM      1  C   UNL     1      -1.656  -4.069  -3.070  0.00  0.00    +0.066 C 
ATOM      2  C   UNL     1      -1.091  -5.041  -2.274  0.00  0.00    +0.081 C 
ATOM      3  C   UNL     1      -0.734  -4.983  -0.899  0.00  0.00    +0.257 C 
ATOM      4  O   UNL     1      -0.917  -3.969  -0.250  0.00  0.00    -0.269 OA
ATOM      5  N   UNL     1      -0.199  -6.056  -0.341  0.00  0.00    -0.260 N 
ATOM      6  C   UNL     1       0.002  -7.198  -1.090  0.00  0.00    +0.166 C 
ATOM      7  N   UNL     1       0.514  -8.350  -0.717  0.00  0.00    -0.224 NA
ATOM      8  S   UNL     1      -0.619  -6.713  -2.693  0.00  0.00    -0.049 S 
ATOM      9  H   UNL     1       0.053  -6.040   0.595  0.00  0.00    +0.157 HD
ENDROOT
BRANCH   7  10
ATOM     10  C   UNL     1       0.703  -9.345  -1.637  0.00  0.00    +0.086 A 
ATOM     11  C   UNL     1       1.453  -9.101  -2.790  0.00  0.00    +0.029 A 
ATOM     12  C   UNL     1       1.641 -10.108  -3.714  0.00  0.00    +0.004 A 
ATOM     13  C   UNL     1       1.087 -11.359  -3.501  0.00  0.00    +0.021 A 
ATOM     14  C   UNL     1       0.343 -11.609  -2.361  0.00  0.00    +0.061 A 
ATOM     15  C   UNL     1       0.152 -10.611  -1.425  0.00  0.00    +0.085 A 
ATOM     16 CL   UNL     1      -0.776 -10.928   0.008  0.00  0.00    -0.080 Cl
ATOM     17 CL   UNL     1      -0.347 -13.182  -2.105  0.00  0.00    -0.082 Cl
ENDBRANCH   7  10
BRANCH   1  21
ATOM     18  C   UNL     1      -1.611  -0.982  -1.298  0.00  0.00    +0.189 A 
ATOM     19  C   UNL     1      -2.332  -0.598  -2.391  0.00  0.00    +0.066 A 
ATOM     20  C   UNL     1      -2.452  -1.717  -3.220  0.00  0.00    +0.051 A 
ATOM     21  C   UNL     1      -1.788  -2.753  -2.588  0.00  0.00    +0.131 A 
ATOM     22  O   UNL     1      -1.283  -2.277  -1.427  0.00  0.00    -0.442 OA
BRANCH  18  24
ATOM     23  C   UNL     1      -1.692   1.234  -0.219  0.00  0.00    +0.132 C 
ATOM     24  N   UNL     1      -1.268  -0.169  -0.235  0.00  0.00    -0.308 N 
ATOM     25  C   UNL     1      -0.482  -0.709   0.877  0.00  0.00    +0.132 C 
ENDBRANCH  18  24
ENDBRANCH   1  21
TORSDOF 3
