REMARK  Name = ZINC49181419
REMARK  6 active torsions:
REMARK  status: ('A' for Active; 'I' for Inactive)
REMARK    1  A    between atoms: C_1  and  C_2
REMARK    2  A    between atoms: C_2  and  C_3
REMARK    3  A    between atoms: C_2  and  C_4
REMARK    4  A    between atoms: C_9  and  C_22
REMARK    5  A    between atoms: C_9  and  O_29
REMARK    6  A    between atoms: C_22  and  C_23
REMARK                            x       y       z     vdW  Elec       q    Type
REMARK                         _______ _______ _______ _____ _____    ______ ____
ROOT
ATOM      1  C   UNL     1      -1.433  -0.534   0.013  0.00  0.00    +0.180 C 
ATOM      2  C   UNL     1      -2.156  -0.011  -1.190  0.00  0.00    +0.239 C 
ATOM      3  O   UNL     1      -2.621   1.108  -1.155  0.00  0.00    -0.273 OA
ATOM      4  N   UNL     1      -2.304  -0.739  -2.302  0.00  0.00    -0.280 N 
ATOM      5  C   UNL     1      -1.778  -2.088  -2.427  0.00  0.00    +0.196 C 
ATOM      6  C   UNL     1      -1.566  -2.730  -1.081  0.00  0.00    +0.168 A 
ATOM      7  N   UNL     1      -1.402  -1.995   0.030  0.00  0.00    -0.280 N 
ATOM      8  C   UNL     1      -1.193  -2.604   1.224  0.00  0.00    +0.266 A 
ATOM      9  O   UNL     1      -1.034  -1.942   2.237  0.00  0.00    -0.267 OA
ATOM     10  C   UNL     1      -1.161  -4.015   1.277  0.00  0.00    +0.101 A 
ATOM     11  C   UNL     1      -1.373  -4.719   0.095  0.00  0.00    +0.234 A 
ATOM     12  N   UNL     1      -1.549  -4.046  -1.036  0.00  0.00    -0.194 NA
ATOM     13  O   UNL     1      -1.435  -6.072   0.102  0.00  0.00    -0.445 OA
ATOM     14  C   UNL     1      -2.418  -6.656   0.828  0.00  0.00    +0.197 C 
ATOM     15  C   UNL     1      -2.482  -6.547   2.148  0.00  0.00    +0.038 C 
ATOM     16  C   UNL     1      -1.469  -5.836   2.925  0.00  0.00    +0.004 C 
ATOM     17  C   UNL     1      -0.886  -4.705   2.542  0.00  0.00    +0.019 C 
ATOM     18  H   UNL     1      -2.781  -0.352  -3.053  0.00  0.00    +0.152 HD
ENDROOT
BRANCH   1  20
ATOM     19  C   UNL     1      -0.019   1.526   0.010  0.00  0.00    +0.010 C 
ATOM     20  C   UNL     1       0.002  -0.004   0.002  0.00  0.00    +0.015 C 
ATOM     21  C   UNL     1       0.742  -0.511   1.242  0.00  0.00    +0.010 C 
ENDBRANCH   1  20
BRANCH   5  22
ATOM     22  O   UNL     1      -0.529  -2.038  -3.121  0.00  0.00    -0.365 OA
ATOM     23  H   UNL     1      -0.589  -1.668  -4.012  0.00  0.00    +0.212 HD
ENDBRANCH   5  22
BRANCH   5  24
ATOM     24  C   UNL     1      -2.762  -2.935  -3.235  0.00  0.00    +0.098 C 
BRANCH  24  25
ATOM     25  C   UNL     1      -2.939  -2.331  -4.604  0.00  0.00    -0.043 A 
ATOM     26  C   UNL     1      -3.925  -1.386  -4.820  0.00  0.00    +0.004 A 
ATOM     27  C   UNL     1      -4.088  -0.832  -6.076  0.00  0.00    +0.000 A 
ATOM     28  C   UNL     1      -3.264  -1.222  -7.116  0.00  0.00    +0.000 A 
ATOM     29  C   UNL     1      -2.278  -2.166  -6.899  0.00  0.00    +0.000 A 
ATOM     30  C   UNL     1      -2.113  -2.717  -5.642  0.00  0.00    +0.004 A 
ENDBRANCH  24  25
ENDBRANCH   5  24
TORSDOF 4
