REMARK  Name = ZINC36024284
REMARK  7 active torsions:
REMARK  status: ('A' for Active; 'I' for Inactive)
REMARK    1  A    between atoms: C_1  and  C_2
REMARK    2  A    between atoms: C_5  and  N_8
REMARK    3  A    between atoms: C_18  and  C_27
REMARK    4  A    between atoms: N_22  and  C_23
REMARK    5  A    between atoms: C_23  and  C_24
REMARK    6  A    between atoms: C_27  and  C_28
REMARK    7  A    between atoms: C_27  and  C_29
REMARK                            x       y       z     vdW  Elec       q    Type
REMARK                         _______ _______ _______ _____ _____    ______ ____
ROOT
ATOM      1  N   UNL     1       0.560  -4.130  -0.619  0.00  0.00    -0.269 N 
ATOM      2  C   UNL     1       0.534  -4.694   0.604  0.00  0.00    +0.306 C 
ATOM      3  O   UNL     1       0.513  -3.993   1.597  0.00  0.00    -0.252 OA
ATOM      4  N   UNL     1       0.531  -6.037   0.727  0.00  0.00    -0.285 N 
ATOM      5  C   UNL     1       0.673  -6.896  -0.456  0.00  0.00    +0.109 C 
ATOM      6  C   UNL     1      -0.496  -7.886  -0.489  0.00  0.00    +0.025 C 
ATOM      7  C   UNL     1      -0.562  -8.637   0.840  0.00  0.00    +0.006 C 
ATOM      8  C   UNL     1      -0.781  -7.659   1.992  0.00  0.00    +0.025 C 
ATOM      9  C   UNL     1       0.392  -6.667   2.047  0.00  0.00    +0.109 C 
ATOM     10  N   UNL     1      -1.666  -9.620   0.803  0.00  0.00    +0.401 N 
ATOM     11  C   UNL     1      -1.145 -10.741   1.623  0.00  0.00    +0.022 C 
ATOM     12  C   UNL     1       0.360 -10.634   1.512  0.00  0.00    +0.201 C 
ATOM     13  O   UNL     1       1.155 -11.506   1.789  0.00  0.00    -0.277 OA
ATOM     14  N   UNL     1       0.669  -9.403   1.051  0.00  0.00    -0.313 N 
ATOM     15  H   UNL     1       0.535  -4.688  -1.412  0.00  0.00    +0.156 HD
ATOM     16  H   UNL     1      -2.501  -9.234   1.218  0.00  0.00    -0.082 HD
ATOM     17  H   UNL     1      -1.843  -9.923  -0.143  0.00  0.00    -0.082 HD
ENDROOT
BRANCH   1  22
ATOM     18  C   UNL     1       0.810   1.515  -1.133  0.00  0.00    +0.044 C 
ATOM     19  C   UNL     1       0.744   0.016  -0.996  0.00  0.00    -0.050 A 
ATOM     20  C   UNL     1       1.408  -0.790  -1.903  0.00  0.00    +0.005 A 
ATOM     21  C   UNL     1       1.349  -2.164  -1.780  0.00  0.00    +0.023 A 
ATOM     22  C   UNL     1       0.622  -2.737  -0.746  0.00  0.00    +0.035 A 
ATOM     23  C   UNL     1      -0.044  -1.926   0.163  0.00  0.00    +0.023 A 
ATOM     24  C   UNL     1       0.023  -0.552   0.039  0.00  0.00    +0.005 A 
ENDBRANCH   1  22
BRANCH  11  25
ATOM     25  C   UNL     1      -1.629 -12.080   1.063  0.00  0.00    -0.023 C 
ATOM     26  C   UNL     1      -1.081 -13.220   1.923  0.00  0.00    +0.006 C 
ATOM     27  C   UNL     1      -3.159 -12.117   1.082  0.00  0.00    +0.006 C 
ENDBRANCH  11  25
BRANCH  14  28
ATOM     28  C   UNL     1       2.025  -8.910   0.800  0.00  0.00    +0.109 C 
BRANCH  28  29
ATOM     29  C   UNL     1       2.396  -9.159  -0.663  0.00  0.00    +0.006 C 
ATOM     30  C   UNL     1       3.587 -10.078  -0.943  0.00  0.00    +0.005 C 
ATOM     31  C   UNL     1       3.715  -8.570  -1.167  0.00  0.00    +0.005 C 
ENDBRANCH  28  29
ENDBRANCH  14  28
TORSDOF 4
