REMARK  Name = ZINC63491740
REMARK  6 active torsions:
REMARK  status: ('A' for Active; 'I' for Inactive)
REMARK    1  A    between atoms: C_1  and  O_2
REMARK    2  A    between atoms: O_2  and  C_3
REMARK    3  A    between atoms: C_6  and  C_9
REMARK    4  A    between atoms: C_17  and  O_33
REMARK    5  A    between atoms: C_24  and  C_26
REMARK    6  A    between atoms: O_33  and  C_34
REMARK                            x       y       z     vdW  Elec       q    Type
REMARK                         _______ _______ _______ _____ _____    ______ ____
ROOT
ATOM      1  C   UNL     1      -5.334  -3.039   1.398  0.00  0.00    +0.247 C 
ATOM      2  O   UNL     1      -6.311  -2.332   1.240  0.00  0.00    -0.270 OA
ATOM      3  N   UNL     1      -5.225  -4.198   0.718  0.00  0.00    -0.288 N 
ATOM      4  C   UNL     1      -4.020  -5.019   0.874  0.00  0.00    +0.113 C 
ATOM      5  C   UNL     1      -3.361  -5.230  -0.502  0.00  0.00    +0.052 C 
ATOM      6  C   UNL     1      -4.469  -5.590  -1.461  0.00  0.00    -0.035 C 
ATOM      7  C   UNL     1      -4.601  -6.603  -2.308  0.00  0.00    +0.003 A 
ATOM      8  C   UNL     1      -3.681  -7.680  -2.704  0.00  0.00    +0.055 A 
ATOM      9  C   UNL     1      -4.153  -8.586  -3.604  0.00  0.00    +0.121 A 
ATOM     10  C   UNL     1      -5.441  -8.545  -4.157  0.00  0.00    +0.047 A 
ATOM     11  C   UNL     1      -6.365  -7.593  -3.869  0.00  0.00    +0.029 A 
ATOM     12  C   UNL     1      -5.969  -6.550  -2.913  0.00  0.00    +0.043 A 
ATOM     13  N   UNL     1      -6.622  -5.519  -2.472  0.00  0.00    -0.375 N 
ATOM     14  C   UNL     1      -5.739  -4.757  -1.587  0.00  0.00    +0.131 C 
ATOM     15  C   UNL     1      -6.317  -4.628  -0.169  0.00  0.00    +0.133 C 
ATOM     16  H   UNL     1      -7.540  -5.291  -2.691  0.00  0.00    +0.160 HD
ENDROOT
BRANCH  15  17
ATOM     17  C   UNL     1      -7.420  -3.600  -0.156  0.00  0.00    -0.025 A 
ATOM     18  C   UNL     1      -7.312  -2.462  -0.934  0.00  0.00    +0.008 A 
ATOM     19  C   UNL     1      -8.323  -1.520  -0.923  0.00  0.00    +0.038 A 
ATOM     20  C   UNL     1      -9.443  -1.715  -0.133  0.00  0.00    +0.123 A 
ATOM     21  C   UNL     1      -9.549  -2.854   0.646  0.00  0.00    +0.038 A 
ATOM     22  C   UNL     1      -8.540  -3.798   0.630  0.00  0.00    +0.008 A 
ATOM     23  F   UNL     1     -10.431  -0.793  -0.121  0.00  0.00    -0.205 F 
ENDBRANCH  15  17
BRANCH   1  27
ATOM     24  C   UNL     1      -2.272  -1.859   4.092  0.00  0.00    +0.120 A 
ATOM     25  C   UNL     1      -2.960  -0.898   3.362  0.00  0.00    +0.046 A 
ATOM     26  C   UNL     1      -3.954  -1.277   2.487  0.00  0.00    +0.016 A 
ATOM     27  C   UNL     1      -4.270  -2.629   2.334  0.00  0.00    +0.037 A 
ATOM     28  C   UNL     1      -3.574  -3.593   3.069  0.00  0.00    +0.016 A 
ATOM     29  C   UNL     1      -2.579  -3.206   3.939  0.00  0.00    +0.046 A 
BRANCH  24  31
ATOM     30  C   UNL     1      -1.029  -0.082   5.063  0.00  0.00    +0.277 C 
ATOM     31  O   UNL     1      -1.293  -1.482   4.953  0.00  0.00    -0.495 OA
ENDBRANCH  24  31
ENDBRANCH   1  27
BRANCH   9  32
ATOM     32  O   UNL     1      -3.325  -9.593  -3.989  0.00  0.00    -0.495 OA
ATOM     33  C   UNL     1      -3.842 -10.533  -4.934  0.00  0.00    +0.277 C 
ENDBRANCH   9  32
TORSDOF 4
