REMARK  Name = ZINC62130243
REMARK  5 active torsions:
REMARK  status: ('A' for Active; 'I' for Inactive)
REMARK    1  A    between atoms: C_4  and  C_7
REMARK    2  A    between atoms: N_11  and  C_12
REMARK    3  A    between atoms: C_12  and  C_13
REMARK    4  A    between atoms: C_19  and  C_21
REMARK    5  A    between atoms: N_26  and  C_28
REMARK                            x       y       z     vdW  Elec       q    Type
REMARK                         _______ _______ _______ _____ _____    ______ ____
ROOT
ATOM      1  C   UNL     1       2.283  -3.697   0.174  0.00  0.00    +0.012 C 
ATOM      2  C   UNL     1       1.587  -2.909  -0.938  0.00  0.00    +0.024 C 
ATOM      3  C   UNL     1       0.955  -3.887  -1.933  0.00  0.00    +0.108 C 
ATOM      4  N   UNL     1       0.071  -4.803  -1.199  0.00  0.00    -0.301 N 
ATOM      5  C   UNL     1       0.616  -5.544  -0.053  0.00  0.00    +0.108 C 
ATOM      6  C   UNL     1       1.252  -4.547   0.921  0.00  0.00    +0.024 C 
ATOM      7  C   UNL     1      -1.215  -4.960  -1.569  0.00  0.00    +0.221 C 
ATOM      8  O   UNL     1      -1.653  -4.343  -2.517  0.00  0.00    -0.275 OA
ENDROOT
BRANCH   7   9
ATOM      9  C   UNL     1      -2.109  -5.903  -0.806  0.00  0.00    +0.102 C 
ATOM     10  C   UNL     1      -2.313  -5.418   0.647  0.00  0.00    +0.110 C 
ATOM     11  C   UNL     1      -3.583  -4.599   0.591  0.00  0.00    +0.221 C 
ATOM     12  O   UNL     1      -3.944  -3.816   1.444  0.00  0.00    -0.275 OA
ATOM     13  N   UNL     1      -4.254  -4.864  -0.544  0.00  0.00    -0.271 N 
ATOM     14  C   UNL     1      -3.552  -5.865  -1.357  0.00  0.00    +0.127 C 
BRANCH  13  15
ATOM     15  C   UNL     1      -5.466  -4.264  -0.903  0.00  0.00    +0.036 A 
ATOM     16  C   UNL     1      -6.110  -3.411  -0.016  0.00  0.00    +0.023 A 
ATOM     17  C   UNL     1      -7.306  -2.821  -0.374  0.00  0.00    +0.002 A 
ATOM     18  C   UNL     1      -7.863  -3.078  -1.613  0.00  0.00    +0.000 A 
ATOM     19  C   UNL     1      -7.224  -3.927  -2.498  0.00  0.00    +0.002 A 
ATOM     20  C   UNL     1      -6.025  -4.516  -2.149  0.00  0.00    +0.023 A 
ENDBRANCH  13  15
ENDBRANCH   7   9
BRANCH   1  21
ATOM     21  C   UNL     1       2.946  -2.724   1.151  0.00  0.00    +0.127 C 
BRANCH  21  26
ATOM     22  C   UNL     1       5.253  -2.468   0.153  0.00  0.00    +0.119 A 
ATOM     23  N   UNL     1       5.918  -1.517  -0.464  0.00  0.00    -0.346 N 
ATOM     24  C   UNL     1       5.145  -0.429  -0.560  0.00  0.00    +0.102 A 
ATOM     25  C   UNL     1       3.955  -0.701   0.014  0.00  0.00    +0.105 A 
ATOM     26  N   UNL     1       4.013  -1.992   0.464  0.00  0.00    -0.332 N 
ATOM     27  H   UNL     1       6.825  -1.592  -0.797  0.00  0.00    +0.167 HD
BRANCH  22  31
ATOM     28  C   UNL     1       6.712  -6.363   1.017  0.00  0.00    +0.000 A 
ATOM     29  C   UNL     1       7.044  -5.753  -0.179  0.00  0.00    +0.001 A 
ATOM     30  C   UNL     1       6.573  -4.488  -0.466  0.00  0.00    +0.011 A 
ATOM     31  C   UNL     1       5.760  -3.825   0.454  0.00  0.00    +0.016 A 
ATOM     32  C   UNL     1       5.429  -4.446   1.659  0.00  0.00    +0.011 A 
ATOM     33  C   UNL     1       5.906  -5.711   1.933  0.00  0.00    +0.001 A 
ENDBRANCH  22  31
ENDBRANCH  21  26
ENDBRANCH   1  21
TORSDOF 5
