REMARK  Name = ZINC14611246
REMARK  6 active torsions:
REMARK  status: ('A' for Active; 'I' for Inactive)
REMARK    1  A    between atoms: C_1  and  O_2
REMARK    2  A    between atoms: O_2  and  C_3
REMARK    3  A    between atoms: C_6  and  C_9
REMARK    4  A    between atoms: C_14  and  C_16
REMARK    5  A    between atoms: N_21  and  C_22
REMARK    6  A    between atoms: C_22  and  C_23
REMARK                            x       y       z     vdW  Elec       q    Type
REMARK                         _______ _______ _______ _____ _____    ______ ____
ROOT
ATOM      1  C   UNL     1       1.215  -3.973  -4.088  0.00  0.00    +0.281 C 
ATOM      2  O   UNL     1       1.088  -2.765  -4.133  0.00  0.00    -0.265 OA
ATOM      3  N   UNL     1       1.254  -4.602  -2.897  0.00  0.00    -0.162 N 
ATOM      4  C   UNL     1       1.268  -4.019  -1.664  0.00  0.00    +0.222 A 
ATOM      5  N   UNL     1       1.315  -4.975  -0.765  0.00  0.00    -0.190 NA
ATOM      6  C   UNL     1       1.323  -6.171  -1.377  0.00  0.00    +0.219 A 
ATOM      7  N   UNL     1       1.290  -5.989  -2.679  0.00  0.00    -0.137 NA
ATOM      8  N   UNL     1       1.244  -2.663  -1.406  0.00  0.00    -0.309 N 
ATOM      9  H   UNL     1       1.214  -2.030  -2.141  0.00  0.00    +0.149 HD
ENDROOT
BRANCH   1  13
ATOM     10  C   UNL     1       1.532  -6.209  -7.683  0.00  0.00    +0.120 A 
ATOM     11  C   UNL     1       1.513  -4.820  -7.730  0.00  0.00    +0.046 A 
ATOM     12  C   UNL     1       1.410  -4.091  -6.567  0.00  0.00    +0.017 A 
ATOM     13  C   UNL     1       1.325  -4.749  -5.337  0.00  0.00    +0.042 A 
ATOM     14  C   UNL     1       1.349  -6.147  -5.293  0.00  0.00    +0.017 A 
ATOM     15  C   UNL     1       1.447  -6.868  -6.461  0.00  0.00    +0.046 A 
BRANCH  10  17
ATOM     16  C   UNL     1       1.647  -8.348  -8.711  0.00  0.00    +0.277 C 
ATOM     17  O   UNL     1       1.634  -6.924  -8.832  0.00  0.00    -0.495 OA
ENDBRANCH  10  17
ENDBRANCH   1  13
BRANCH   6  18
ATOM     18  C   UNL     1       1.367  -7.482  -0.696  0.00  0.00    +0.173 A 
ATOM     19  C   UNL     1       1.381  -8.698  -1.305  0.00  0.00    +0.053 A 
ATOM     20  C   UNL     1       1.426  -9.664  -0.281  0.00  0.00    +0.042 A 
ATOM     21  C   UNL     1       1.438  -8.997   0.891  0.00  0.00    +0.196 A 
ATOM     22  O   UNL     1       1.407  -7.679   0.636  0.00  0.00    -0.460 OA
ENDBRANCH   6  18
BRANCH   8  23
ATOM     23  C   UNL     1       1.263  -2.180  -0.024  0.00  0.00    +0.139 C 
BRANCH  23  24
ATOM     24  C   UNL     1       1.230  -0.673  -0.018  0.00  0.00    -0.030 A 
ATOM     25  C   UNL     1       0.018  -0.009   0.011  0.00  0.00    +0.006 A 
ATOM     26  C   UNL     1      -0.013   1.373   0.017  0.00  0.00    +0.015 A 
ATOM     27  C   UNL     1       1.168   2.091  -0.006  0.00  0.00    +0.018 A 
ATOM     28  C   UNL     1       2.381   1.426  -0.035  0.00  0.00    +0.015 A 
ATOM     29  C   UNL     1       2.411   0.044  -0.041  0.00  0.00    +0.006 A 
ATOM     30 BR   UNL     1       1.127   3.982   0.002  0.00  0.00    -0.050 Br
ENDBRANCH  23  24
ENDBRANCH   8  23
TORSDOF 5
