REMARK  Name = ZINC12123332
REMARK  5 active torsions:
REMARK  status: ('A' for Active; 'I' for Inactive)
REMARK    1  A    between atoms: C_1  and  C_2
REMARK    2  A    between atoms: C_11  and  N_18
REMARK    3  A    between atoms: C_13  and  C_15
REMARK    4  A    between atoms: C_19  and  C_21
REMARK    5  A    between atoms: C_24  and  C_27
REMARK                            x       y       z     vdW  Elec       q    Type
REMARK                         _______ _______ _______ _____ _____    ______ ____
ROOT
ATOM      1  C   UNL     1      -6.252  -2.995  -5.479  0.00  0.00    +0.066 C 
ATOM      2  C   UNL     1      -5.005  -2.151  -5.408  0.00  0.00    +0.047 A 
ATOM      3  C   UNL     1      -4.238  -1.976  -6.522  0.00  0.00    +0.093 A 
ATOM      4  C   UNL     1      -3.078  -1.183  -6.430  0.00  0.00    +0.253 A 
ATOM      5  O   UNL     1      -2.368  -1.004  -7.405  0.00  0.00    -0.268 OA
ATOM      6  N   UNL     1      -2.771  -0.620  -5.241  0.00  0.00    -0.291 N 
ATOM      7  H   UNL     1      -1.979  -0.066  -5.155  0.00  0.00    +0.172 HD
ATOM      8  C   UNL     1      -3.572  -0.835  -4.165  0.00  0.00    +0.234 A 
ATOM      9  N   UNL     1      -4.654  -1.577  -4.258  0.00  0.00    -0.217 NA
ATOM     10  N   UNL     1      -3.247  -0.259  -2.951  0.00  0.00    -0.185 N 
ATOM     11  C   UNL     1      -3.953  -0.379  -1.789  0.00  0.00    +0.132 A 
ATOM     12  C   UNL     1      -3.292   0.333  -0.837  0.00  0.00    +0.069 A 
ATOM     13  C   UNL     1      -2.164   0.907  -1.435  0.00  0.00    +0.068 A 
ATOM     14  N   UNL     1      -2.134   0.552  -2.693  0.00  0.00    -0.167 NA
ENDROOT
BRANCH  11  15
ATOM     15  N   UNL     1      -5.129  -1.101  -1.609  0.00  0.00    -0.266 N 
ATOM     16  C   UNL     1      -5.723  -1.132  -0.400  0.00  0.00    +0.249 C 
ATOM     17  O   UNL     1      -5.231  -0.530   0.535  0.00  0.00    -0.270 OA
ATOM     18  H   UNL     1      -5.522  -1.581  -2.355  0.00  0.00    +0.157 HD
BRANCH  16  19
ATOM     19  C   UNL     1      -6.972  -1.899  -0.209  0.00  0.00    +0.037 A 
ATOM     20  C   UNL     1      -7.543  -2.587  -1.281  0.00  0.00    +0.013 A 
ATOM     21  C   UNL     1      -8.706  -3.304  -1.095  0.00  0.00    +0.013 A 
ATOM     22  C   UNL     1      -9.313  -3.334   0.148  0.00  0.00    +0.055 A 
ATOM     23  C   UNL     1      -8.755  -2.651   1.213  0.00  0.00    +0.013 A 
ATOM     24  C   UNL     1      -7.589  -1.933   1.042  0.00  0.00    +0.013 A 
BRANCH  22  25
ATOM     25  C   UNL     1     -10.587  -4.116   0.342  0.00  0.00    +0.417 C 
ATOM     26  F   UNL     1     -11.685  -3.288   0.084  0.00  0.00    -0.166 F 
ATOM     27  F   UNL     1     -10.606  -5.203  -0.538  0.00  0.00    -0.166 F 
ATOM     28  F   UNL     1     -10.652  -4.581   1.659  0.00  0.00    -0.166 F 
ENDBRANCH  22  25
ENDBRANCH  16  19
ENDBRANCH  11  15
BRANCH  13  29
ATOM     29  C   UNL     1      -1.150   1.781  -0.743  0.00  0.00    +0.040 C 
ATOM     30  C   UNL     1      -0.013   1.086   0.008  0.00  0.00    +0.010 C 
ATOM     31  C   UNL     1      -1.136   1.773   0.788  0.00  0.00    +0.010 C 
ENDBRANCH  13  29
TORSDOF 4
