REMARK  Name = ZINC62497074
REMARK  5 active torsions:
REMARK  status: ('A' for Active; 'I' for Inactive)
REMARK    1  A    between atoms: C_1  and  C_2
REMARK    2  A    between atoms: C_5  and  C_8
REMARK    3  A    between atoms: C_8  and  C_9
REMARK    4  A    between atoms: N_13  and  C_22
REMARK    5  A    between atoms: C_17  and  O_21
REMARK                            x       y       z     vdW  Elec       q    Type
REMARK                         _______ _______ _______ _____ _____    ______ ____
ROOT
ATOM      1  C   UNL     1       1.508  -4.767  -0.032  0.00  0.00    +0.263 C 
ATOM      2  C   UNL     1       1.528  -6.268  -0.166  0.00  0.00    +0.261 C 
ATOM      3  O   UNL     1       1.614  -6.781  -1.263  0.00  0.00    -0.271 OA
ATOM      4  N   UNL     1       1.450  -7.040   0.938  0.00  0.00    -0.268 N 
ATOM      5  C   UNL     1       1.480  -6.431   2.202  0.00  0.00    +0.078 A 
ATOM      6  C   UNL     1       1.176  -7.159   3.341  0.00  0.00    +0.031 A 
ATOM      7  C   UNL     1       1.197  -6.543   4.579  0.00  0.00    +0.047 A 
ATOM      8  C   UNL     1       1.521  -5.198   4.682  0.00  0.00    +0.120 A 
ATOM      9  C   UNL     1       1.830  -4.467   3.545  0.00  0.00    +0.093 A 
ATOM     10  C   UNL     1       1.817  -5.083   2.305  0.00  0.00    +0.146 A 
ATOM     11  O   UNL     1       2.149  -4.385   1.187  0.00  0.00    -0.477 OA
ATOM     12  C   UNL     1       1.336  -8.496   0.819  0.00  0.00    +0.138 C 
ENDROOT
BRANCH   8  13
ATOM     13  O   UNL     1       1.534  -4.596   5.901  0.00  0.00    -0.507 OA
ATOM     14  H   UNL     1       2.390  -4.634   6.349  0.00  0.00    +0.292 HD
ENDBRANCH   8  13
BRANCH   1  15
ATOM     15  C   UNL     1       0.059  -4.275  -0.021  0.00  0.00    +0.089 C 
BRANCH  15  20
ATOM     16  C   UNL     1      -0.018   1.503   0.010  0.00  0.00    +0.044 C 
ATOM     17  C   UNL     1       0.002  -0.004   0.002  0.00  0.00    -0.050 A 
ATOM     18  C   UNL     1       0.006  -0.689  -1.199  0.00  0.00    +0.003 A 
ATOM     19  C   UNL     1       0.025  -2.071  -1.206  0.00  0.00    +0.004 A 
ATOM     20  C   UNL     1       0.040  -2.768  -0.013  0.00  0.00    -0.043 A 
ATOM     21  C   UNL     1       0.037  -2.084   1.188  0.00  0.00    +0.004 A 
ATOM     22  C   UNL     1       0.023  -0.702   1.195  0.00  0.00    +0.003 A 
ENDBRANCH  15  20
ENDBRANCH   1  15
TORSDOF 3
