REMARK  Name = ZINC13702296
REMARK  11 active torsions:
REMARK  status: ('A' for Active; 'I' for Inactive)
REMARK    1  A    between atoms: C_1  and  C_2
REMARK    2  A    between atoms: C_2  and  N_3
REMARK    3  A    between atoms: C_6  and  C_8
REMARK    4  A    between atoms: N_10  and  C_11
REMARK    5  A    between atoms: C_11  and  C_12
REMARK    6  A    between atoms: C_12  and  C_13
REMARK    7  A    between atoms: C_13  and  N_54
REMARK    8  A    between atoms: C_14  and  N_54
REMARK    9  A    between atoms: C_15  and  N_54
REMARK   10  A    between atoms: C_19  and  C_26
REMARK   11  A    between atoms: C_20  and  C_25
REMARK                            x       y       z     vdW  Elec       q    Type
REMARK                         _______ _______ _______ _____ _____    ______ ____
ROOT
ATOM      1  C   UNL     1       5.494  -2.868   0.345  0.00  0.00    +0.272 C 
ATOM      2  O   UNL     1       4.389  -3.262   0.025  0.00  0.00    -0.268 OA
ATOM      3  N   UNL     1       5.763  -1.547   0.347  0.00  0.00    -0.245 N 
ATOM      4  C   UNL     1       4.755  -0.634   0.091  0.00  0.00    +0.168 A 
ATOM      5  N   UNL     1       3.489  -0.859  -0.174  0.00  0.00    -0.224 NA
ATOM      6  C   UNL     1       2.608   0.138  -0.407  0.00  0.00    +0.083 A 
ATOM      7  C   UNL     1       1.228   0.034  -0.700  0.00  0.00    -0.021 A 
ATOM      8  C   UNL     1       0.471   1.156  -0.911  0.00  0.00    -0.045 A 
ATOM      9  C   UNL     1       1.023   2.427  -0.846  0.00  0.00    +0.005 A 
ATOM     10  C   UNL     1       2.369   2.566  -0.561  0.00  0.00    +0.017 A 
ATOM     11  C   UNL     1       3.136   1.448  -0.348  0.00  0.00    +0.041 A 
ATOM     12  S   UNL     1       4.845   1.150   0.035  0.00  0.00    -0.052 S 
ATOM     13  C   UNL     1      -0.996   1.006  -1.222  0.00  0.00    +0.044 C 
ATOM     14  C   UNL     1       0.585  -1.326  -0.781  0.00  0.00    +0.046 C 
ENDROOT
BRANCH   1  18
ATOM     15  N   UNL     1       8.392  -4.632   1.429  0.00  0.00    -0.271 N 
ATOM     16  C   UNL     1       7.637  -5.708   1.118  0.00  0.00    +0.109 A 
ATOM     17  C   UNL     1       6.445  -5.246   0.673  0.00  0.00    +0.054 A 
ATOM     18  C   UNL     1       6.540  -3.835   0.730  0.00  0.00    +0.148 A 
ATOM     19  N   UNL     1       7.739  -3.550   1.198  0.00  0.00    -0.167 NA
BRANCH  15  21
ATOM     20  C   UNL     1      10.684  -3.864   1.062  0.00  0.00    +0.029 C 
ATOM     21  C   UNL     1       9.758  -4.691   1.956  0.00  0.00    +0.140 C 
ENDBRANCH  15  21
ENDBRANCH   1  18
BRANCH   3  22
ATOM     22  C   UNL     1       7.124  -1.077   0.622  0.00  0.00    +0.114 C 
BRANCH  22  23
ATOM     23  C   UNL     1       7.318  -0.934   2.133  0.00  0.00    +0.001 C 
BRANCH  23  24
ATOM     24  C   UNL     1       8.739  -0.444   2.420  0.00  0.00    -0.078 C 
BRANCH  24  27
ATOM     25  C   UNL     1       8.867  -1.614   4.536  0.00  0.00    -0.097 C 
ATOM     26  C   UNL     1      10.187   0.384   4.175  0.00  0.00    -0.097 C 
ATOM     27  N   UNL     1       8.904  -0.289   3.880  0.00  0.00    +0.376 N 
ATOM     28  H   UNL     1       8.135   0.285   4.244  0.00  0.00    -0.083 HD
ENDBRANCH  24  27
ENDBRANCH  23  24
ENDBRANCH  22  23
ENDBRANCH   3  22
TORSDOF 6
