REMARK  Name = ZINC00173008
REMARK  4 active torsions:
REMARK  status: ('A' for Active; 'I' for Inactive)
REMARK    1  A    between atoms: C_1  and  N_2
REMARK    2  A    between atoms: N_2  and  C_3
REMARK    3  A    between atoms: N_2  and  C_4
REMARK    4  A    between atoms: C_7  and  C_10
REMARK                            x       y       z     vdW  Elec       q    Type
REMARK                         _______ _______ _______ _____ _____    ______ ____
ROOT
ATOM      1  C   UNL     1       3.671   2.188  -0.026  0.00  0.00    +0.108 C 
ATOM      2  C   UNL     1       3.990   2.675   1.395  0.00  0.00    +0.106 C 
ATOM      3  C   UNL     1       2.882   3.620   1.820  0.00  0.00    +0.167 C 
ATOM      4  O   UNL     1       2.408   3.571   2.935  0.00  0.00    -0.292 OA
ATOM      5  C   UNL     1       2.405   4.596   0.830  0.00  0.00    +0.038 A 
ATOM      6  C   UNL     1       1.615   5.681   1.218  0.00  0.00    +0.013 A 
ATOM      7  C   UNL     1       1.180   6.580   0.269  0.00  0.00    +0.001 A 
ATOM      8  C   UNL     1       1.522   6.412  -1.065  0.00  0.00    +0.002 A 
ATOM      9  C   UNL     1       2.302   5.346  -1.463  0.00  0.00    +0.023 A 
ATOM     10  C   UNL     1       2.753   4.428  -0.523  0.00  0.00    +0.038 A 
ATOM     11  N   UNL     1       3.541   3.354  -0.908  0.00  0.00    -0.336 N 
ATOM     12  H   UNL     1       4.005   3.373  -1.760  0.00  0.00    +0.147 HD
ENDROOT
BRANCH   1  16
ATOM     13  C   UNL     1       0.002  -0.004   0.001  0.00  0.00    +0.029 A 
ATOM     14  C   UNL     1      -0.017   1.385  -0.006  0.00  0.00    +0.023 A 
ATOM     15  C   UNL     1       1.170   2.090  -0.015  0.00  0.00    +0.007 A 
ATOM     16  C   UNL     1       2.377   1.415  -0.017  0.00  0.00    -0.027 A 
ATOM     17  C   UNL     1       2.400   0.033  -0.009  0.00  0.00    +0.007 A 
ATOM     18  C   UNL     1       1.216  -0.679  -0.001  0.00  0.00    +0.023 A 
BRANCH  13  20
ATOM     19  C   UNL     1      -2.473  -0.012   0.138  0.00  0.00    +0.129 C 
ATOM     20  N   UNL     1      -1.197  -0.720   0.010  0.00  0.00    -0.336 N 
ATOM     21  C   UNL     1      -1.179  -2.180  -0.108  0.00  0.00    +0.129 C 
ENDBRANCH  13  20
ENDBRANCH   1  16
TORSDOF 2
