REMARK  Name = ZINC36635334
REMARK  3 active torsions:
REMARK  status: ('A' for Active; 'I' for Inactive)
REMARK    1  A    between atoms: C_4  and  N_7
REMARK    2  A    between atoms: C_11  and  N_15
REMARK    3  A    between atoms: N_15  and  C_16
REMARK                            x       y       z     vdW  Elec       q    Type
REMARK                         _______ _______ _______ _____ _____    ______ ____
ROOT
ATOM      1  N   UNL     1       3.624  -0.652  -0.037  0.00  0.00    -0.209 N 
ATOM      2  C   UNL     1       4.802  -0.025  -0.139  0.00  0.00    +0.228 C 
ATOM      3  O   UNL     1       4.954   1.175  -0.226  0.00  0.00    -0.275 OA
ATOM      4  C   UNL     1       5.915  -1.050  -0.127  0.00  0.00    +0.128 C 
ATOM      5  C   UNL     1       5.167  -2.393   0.001  0.00  0.00    +0.166 C 
ATOM      6  C   UNL     1       3.711  -1.985   0.053  0.00  0.00    +0.247 C 
ATOM      7  O   UNL     1       2.772  -2.745   0.157  0.00  0.00    -0.273 OA
ENDROOT
BRANCH   1  11
ATOM      8  C   UNL     1      -0.016   1.380   0.011  0.00  0.00    +0.000 A 
ATOM      9  C   UNL     1       0.420   0.718   1.145  0.00  0.00    +0.002 A 
ATOM     10  C   UNL     1       1.625   0.044   1.131  0.00  0.00    +0.024 A 
ATOM     11  C   UNL     1       2.399   0.031  -0.021  0.00  0.00    +0.044 A 
ATOM     12  C   UNL     1       1.959   0.696  -1.157  0.00  0.00    +0.024 A 
ATOM     13  C   UNL     1       0.753   1.369  -1.138  0.00  0.00    +0.002 A 
ENDBRANCH   1  11
BRANCH   5  14
ATOM     14  N   UNL     1       5.431  -3.243  -1.164  0.00  0.00    -0.331 N 
ATOM     15  H   UNL     1       5.684  -2.841  -2.010  0.00  0.00    +0.147 HD
BRANCH  14  16
ATOM     16  C   UNL     1       5.319  -4.631  -1.055  0.00  0.00    +0.048 A 
ATOM     17  C   UNL     1       4.952  -5.208   0.154  0.00  0.00    +0.024 A 
ATOM     18  C   UNL     1       4.842  -6.580   0.259  0.00  0.00    +0.003 A 
ATOM     19  C   UNL     1       5.097  -7.382  -0.839  0.00  0.00    +0.021 A 
ATOM     20  C   UNL     1       5.463  -6.813  -2.045  0.00  0.00    +0.061 A 
ATOM     21  C   UNL     1       5.569  -5.438  -2.158  0.00  0.00    +0.080 A 
ATOM     22 CL   UNL     1       6.022  -4.723  -3.674  0.00  0.00    -0.080 Cl
ATOM     23 CL   UNL     1       5.783  -7.824  -3.420  0.00  0.00    -0.082 Cl
ENDBRANCH  14  16
ENDBRANCH   5  14
TORSDOF 3
