REMARK  Name = ZINC44649651
REMARK  7 active torsions:
REMARK  status: ('A' for Active; 'I' for Inactive)
REMARK    1  A    between atoms: C_1  and  C_2
REMARK    2  A    between atoms: C_7  and  C_8
REMARK    3  A    between atoms: C_11  and  S_14
REMARK    4  A    between atoms: S_14  and  C_15
REMARK    5  A    between atoms: C_15  and  C_17
REMARK    6  A    between atoms: C_15  and  C_18
REMARK    7  A    between atoms: C_18  and  C_20
REMARK                            x       y       z     vdW  Elec       q    Type
REMARK                         _______ _______ _______ _____ _____    ______ ____
ROOT
ATOM      1  S   UNL     1       2.141   0.477   5.483  0.00  0.00    -0.085 S 
ENDROOT
BRANCH   1   5
ATOM      2  C   UNL     1       0.242   0.022   2.480  0.00  0.00    +0.240 C 
ATOM      3  N   UNL     1       0.135   1.305   2.589  0.00  0.00    -0.145 NA
ATOM      4  N   UNL     1       0.290   1.695   3.927  0.00  0.00    -0.219 N 
ATOM      5  C   UNL     1       0.517   0.447   4.675  0.00  0.00    +0.340 C 
ATOM      6  O   UNL     1       0.465  -0.579   3.673  0.00  0.00    -0.442 OA
ATOM      7  H   UNL     1       0.255   2.596   4.284  0.00  0.00    +0.173 HD
BRANCH   2  14
ATOM      8  C   UNL     1      -0.506   1.453   0.080  0.00  0.00    +0.044 C 
ATOM      9  C   UNL     1      -0.232  -0.028   0.035  0.00  0.00    -0.038 A 
ATOM     10  C   UNL     1      -0.331  -0.714  -1.158  0.00  0.00    +0.004 A 
ATOM     11  C   UNL     1      -0.080  -2.074  -1.200  0.00  0.00    +0.000 A 
ATOM     12  C   UNL     1       0.272  -2.755  -0.048  0.00  0.00    +0.001 A 
ATOM     13  C   UNL     1       0.374  -2.081   1.151  0.00  0.00    +0.013 A 
ATOM     14  C   UNL     1       0.128  -0.708   1.200  0.00  0.00    +0.041 A 
ENDBRANCH   2  14
ENDBRANCH   1   5
BRANCH   1  15
ATOM     15  C   UNL     1       3.311   0.657   4.109  0.00  0.00    +0.119 C 
ATOM     16  C   UNL     1       3.099   2.013   3.433  0.00  0.00    +0.027 C 
BRANCH  15  17
ATOM     17  C   UNL     1       4.721   0.573   4.635  0.00  0.00    +0.174 C 
ATOM     18  O   UNL     1       4.955   0.860   5.792  0.00  0.00    -0.291 OA
BRANCH  17  19
ATOM     19  C   UNL     1       5.768   0.161   3.784  0.00  0.00    +0.024 C 
ATOM     20  C   UNL     1       7.106   0.026   4.109  0.00  0.00    +0.006 A 
ATOM     21  C   UNL     1       7.832   0.236   5.305  0.00  0.00    +0.010 A 
ATOM     22  C   UNL     1       9.166   0.022   5.340  0.00  0.00    +0.001 A 
ATOM     23  C   UNL     1       9.889  -0.412   4.216  0.00  0.00    +0.002 A 
ATOM     24  C   UNL     1       9.291  -0.642   3.027  0.00  0.00    +0.026 A 
ATOM     25  C   UNL     1       7.839  -0.433   2.904  0.00  0.00    +0.043 A 
ATOM     26  N   UNL     1       7.022  -0.575   1.899  0.00  0.00    -0.380 N 
ATOM     27  C   UNL     1       5.662  -0.233   2.327  0.00  0.00    +0.152 C 
ATOM     28  H   UNL     1       7.274  -0.865   1.008  0.00  0.00    +0.160 HD
ENDBRANCH  17  19
ENDBRANCH  15  17
ENDBRANCH   1  15
TORSDOF 5
