REMARK  Name = ZINC18372768
REMARK  8 active torsions:
REMARK  status: ('A' for Active; 'I' for Inactive)
REMARK    1  A    between atoms: C_1  and  C_2
REMARK    2  A    between atoms: C_5  and  N_9
REMARK    3  A    between atoms: C_10  and  C_12
REMARK    4  A    between atoms: C_12  and  O_13
REMARK    5  A    between atoms: O_13  and  C_14
REMARK    6  A    between atoms: C_14  and  C_16
REMARK    7  A    between atoms: C_19  and  O_35
REMARK    8  A    between atoms: C_23  and  C_25
REMARK                            x       y       z     vdW  Elec       q    Type
REMARK                         _______ _______ _______ _____ _____    ______ ____
ROOT
ATOM      1  C   UNL     1      -0.528  -8.710  -3.917  0.00  0.00    +0.187 C 
ATOM      2  C   UNL     1      -1.904  -8.196  -4.390  0.00  0.00    +0.066 C 
ATOM      3  C   UNL     1      -2.498  -9.424  -5.129  0.00  0.00    +0.134 C 
ATOM      4  C   UNL     1      -1.958 -10.595  -4.271  0.00  0.00    +0.140 C 
ATOM      5  N   UNL     1      -0.597 -10.178  -3.874  0.00  0.00    -0.285 N 
ATOM      6  C   UNL     1       0.412 -11.003  -3.531  0.00  0.00    +0.223 C 
ATOM      7  O   UNL     1       1.465 -10.543  -3.143  0.00  0.00    -0.275 OA
ENDROOT
BRANCH   6   8
ATOM      8  C   UNL     1       0.232 -12.496  -3.630  0.00  0.00    +0.048 C 
ATOM      9  C   UNL     1       0.016 -12.888  -5.093  0.00  0.00    +0.019 C 
ATOM     10  C   UNL     1      -0.167 -14.403  -5.193  0.00  0.00    -0.009 C 
ATOM     11  C   UNL     1       1.083 -15.104  -4.657  0.00  0.00    +0.007 C 
ATOM     12  C   UNL     1       1.300 -14.712  -3.193  0.00  0.00    -0.009 C 
ATOM     13  C   UNL     1       1.482 -13.196  -3.093  0.00  0.00    +0.019 C 
ATOM     14  C   UNL     1       0.084 -15.135  -2.367  0.00  0.00    +0.007 C 
ATOM     15  C   UNL     1      -1.166 -14.434  -2.903  0.00  0.00    -0.009 C 
ATOM     16  C   UNL     1      -1.383 -14.826  -4.366  0.00  0.00    +0.007 C 
ATOM     17  C   UNL     1      -0.984 -12.918  -2.803  0.00  0.00    +0.019 C 
ENDBRANCH   6   8
BRANCH   1  18
ATOM     18  C   UNL     1      -0.224  -8.171  -2.542  0.00  0.00    +0.328 C 
ATOM     19  O   UNL     1      -0.074  -8.931  -1.615  0.00  0.00    -0.249 OA
BRANCH  18  20
ATOM     20  O   UNL     1      -0.122  -6.847  -2.348  0.00  0.00    -0.454 OA
BRANCH  20  21
ATOM     21  C   UNL     1       0.168  -6.407  -1.020  0.00  0.00    +0.328 C 
BRANCH  21  23
ATOM     22  N   UNL     1       0.508  -4.260   0.160  0.00  0.00    -0.281 N 
ATOM     23  C   UNL     1       0.245  -4.902  -0.995  0.00  0.00    +0.255 C 
ATOM     24  O   UNL     1       0.069  -4.269  -2.015  0.00  0.00    -0.272 OA
ATOM     25  H   UNL     1       0.726  -4.766   0.958  0.00  0.00    +0.155 HD
BRANCH  22  30
ATOM     26  C   UNL     1       0.348   1.409   0.355  0.00  0.00    +0.044 C 
ATOM     27  C   UNL     1       0.391  -0.096   0.303  0.00  0.00    -0.049 A 
ATOM     28  C   UNL     1      -0.335  -0.775  -0.658  0.00  0.00    +0.005 A 
ATOM     29  C   UNL     1      -0.298  -2.155  -0.708  0.00  0.00    +0.025 A 
ATOM     30  C   UNL     1       0.469  -2.861   0.208  0.00  0.00    +0.052 A 
ATOM     31  C   UNL     1       1.199  -2.177   1.173  0.00  0.00    +0.062 A 
ATOM     32  C   UNL     1       1.161  -0.796   1.214  0.00  0.00    +0.025 A 
ATOM     33 CL   UNL     1       2.160  -3.055   2.321  0.00  0.00    -0.082 Cl
ENDBRANCH  22  30
ENDBRANCH  21  23
ENDBRANCH  20  21
ENDBRANCH  18  20
ENDBRANCH   1  18
BRANCH   3  34
ATOM     34  O   UNL     1      -2.007  -9.502  -6.469  0.00  0.00    -0.390 OA
ATOM     35  H   UNL     1      -2.351 -10.254  -6.971  0.00  0.00    +0.210 HD
ENDBRANCH   3  34
TORSDOF 7
