REMARK  Name = ZINC07654335
REMARK  9 active torsions:
REMARK  status: ('A' for Active; 'I' for Inactive)
REMARK    1  A    between atoms: C_4  and  C_7
REMARK    2  A    between atoms: C_7  and  N_8
REMARK    3  A    between atoms: C_9  and  N_31
REMARK    4  A    between atoms: C_10  and  N_17
REMARK    5  A    between atoms: N_17  and  C_18
REMARK    6  A    between atoms: C_18  and  C_19
REMARK    7  A    between atoms: C_19  and  C_20
REMARK    8  A    between atoms: C_20  and  O_21
REMARK    9  A    between atoms: C_22  and  C_24
REMARK                            x       y       z     vdW  Elec       q    Type
REMARK                         _______ _______ _______ _____ _____    ______ ____
ROOT
ATOM      1  N   UNL     1      -3.057   2.761  -3.401  0.00  0.00    -0.276 N 
ATOM      2  C   UNL     1      -2.626   4.067  -3.415  0.00  0.00    +0.128 A 
ATOM      3  C   UNL     1      -3.057   4.908  -4.421  0.00  0.00    +0.140 A 
ATOM      4  C   UNL     1      -3.935   4.403  -5.398  0.00  0.00    +0.277 A 
ATOM      5  O   UNL     1      -4.335   5.125  -6.296  0.00  0.00    -0.266 OA
ATOM      6  N   UNL     1      -4.331   3.116  -5.335  0.00  0.00    -0.273 N 
ATOM      7  H   UNL     1      -4.955   2.757  -6.029  0.00  0.00    +0.173 HD
ATOM      8  C   UNL     1      -3.897   2.311  -4.350  0.00  0.00    +0.331 A 
ATOM      9  O   UNL     1      -4.270   1.154  -4.317  0.00  0.00    -0.246 OA
ENDROOT
BRANCH   3  10
ATOM     10  N   UNL     1      -2.630   6.251  -4.466  0.00  0.00    -0.260 N 
ATOM     11  C   UNL     1      -3.538   7.246  -4.502  0.00  0.00    +0.254 C 
ATOM     12  O   UNL     1      -3.169   8.402  -4.586  0.00  0.00    -0.270 OA
BRANCH  11  13
ATOM     13  C   UNL     1      -4.979   6.933  -4.438  0.00  0.00    +0.072 A 
ATOM     14  C   UNL     1      -5.417   5.767  -3.806  0.00  0.00    +0.016 A 
ATOM     15  C   UNL     1      -6.765   5.483  -3.746  0.00  0.00    +0.001 A 
ATOM     16  C   UNL     1      -7.685   6.345  -4.319  0.00  0.00    +0.003 A 
ATOM     17  C   UNL     1      -7.261   7.499  -4.951  0.00  0.00    +0.039 A 
ATOM     18  C   UNL     1      -5.913   7.800  -5.015  0.00  0.00    +0.135 A 
ATOM     19  F   UNL     1      -5.499   8.928  -5.633  0.00  0.00    -0.205 F 
ENDBRANCH  11  13
BRANCH  10  20
ATOM     20  C   UNL     1      -1.198   6.564  -4.474  0.00  0.00    +0.116 C 
BRANCH  20  21
ATOM     21  C   UNL     1      -0.728   6.764  -5.916  0.00  0.00    +0.047 C 
BRANCH  21  22
ATOM     22  C   UNL     1       0.766   7.092  -5.924  0.00  0.00    +0.157 C 
BRANCH  22  23
ATOM     23  O   UNL     1       1.206   7.279  -7.271  0.00  0.00    -0.395 OA
ATOM     24  H   UNL     1       2.146   7.490  -7.352  0.00  0.00    +0.209 HD
ENDBRANCH  22  23
ENDBRANCH  21  22
ENDBRANCH  20  21
ENDBRANCH  10  20
ENDBRANCH   3  10
BRANCH   2  25
ATOM     25  N   UNL     1      -1.772   4.528  -2.442  0.00  0.00    -0.343 N 
ATOM     26  H   UNL     1      -1.401   3.913  -1.790  0.00  0.00    +0.144 HD
ATOM     27  H   UNL     1      -1.541   5.470  -2.406  0.00  0.00    +0.144 HD
ENDBRANCH   2  25
BRANCH   1  28
ATOM     28  C   UNL     1      -2.603   1.856  -2.341  0.00  0.00    +0.163 C 
BRANCH  28  32
ATOM     29  C   UNL     1       0.984  -0.103  -3.583  0.00  0.00    +0.000 A 
ATOM     30  C   UNL     1      -0.245  -0.671  -3.861  0.00  0.00    +0.000 A 
ATOM     31  C   UNL     1      -1.406  -0.035  -3.463  0.00  0.00    +0.005 A 
ATOM     32  C   UNL     1      -1.338   1.165  -2.779  0.00  0.00    -0.028 A 
ATOM     33  C   UNL     1      -0.108   1.733  -2.502  0.00  0.00    +0.005 A 
ATOM     34  C   UNL     1       1.052   1.099  -2.904  0.00  0.00    +0.000 A 
ENDBRANCH  28  32
ENDBRANCH   1  28
TORSDOF 9
