REMARK  Name = ZINC63294189
REMARK  2 active torsions:
REMARK  status: ('A' for Active; 'I' for Inactive)
REMARK    1  A    between atoms: C_6  and  C_11
REMARK    2  A    between atoms: C_17  and  C_20
REMARK                            x       y       z     vdW  Elec       q    Type
REMARK                         _______ _______ _______ _____ _____    ______ ____
ROOT
ATOM      1  C   UNL     1       3.658  -2.763   1.185  0.00  0.00    +0.242 C 
ATOM      2  O   UNL     1       4.335  -2.165   1.994  0.00  0.00    -0.273 OA
ATOM      3  N   UNL     1       3.365  -4.064   1.381  0.00  0.00    -0.299 N 
ATOM      4  C   UNL     1       2.551  -4.803   0.407  0.00  0.00    +0.108 C 
ATOM      5  C   UNL     1       3.311  -6.066  -0.013  0.00  0.00    +0.019 C 
ATOM      6  C   UNL     1       3.683  -6.870   1.235  0.00  0.00    +0.010 C 
ATOM      7  C   UNL     1       4.597  -6.032   2.131  0.00  0.00    +0.047 C 
ATOM      8  C   UNL     1       3.857  -4.771   2.571  0.00  0.00    +0.114 C 
ENDROOT
BRANCH   1  14
ATOM      9  C   UNL     1      -0.011   1.352   0.010  0.00  0.00    +0.001 A 
ATOM     10  C   UNL     1       1.172   2.104   0.002  0.00  0.00    +0.002 A 
ATOM     11  C   UNL     1       2.397   1.537  -0.013  0.00  0.00    +0.026 A 
ATOM     12  C   UNL     1       2.533   0.121  -0.022  0.00  0.00    +0.043 A 
ATOM     13  N   UNL     1       3.590  -0.654  -0.038  0.00  0.00    -0.370 N 
ATOM     14  C   UNL     1       3.146  -2.052  -0.041  0.00  0.00    +0.190 C 
ATOM     15  C   UNL     1       1.634  -2.006  -0.025  0.00  0.00    +0.016 C 
ATOM     16  C   UNL     1       1.299  -0.696  -0.014  0.00  0.00    -0.004 A 
ATOM     17  C   UNL     1       0.006  -0.000   0.003  0.00  0.00    +0.010 A 
ATOM     18  H   UNL     1       4.513  -0.353  -0.046  0.00  0.00    +0.161 HD
ENDBRANCH   1  14
BRANCH   7  19
ATOM     19  C   UNL     1       4.996  -6.849   3.361  0.00  0.00    +0.185 C 
ATOM     20  N   UNL     1       3.816  -7.136   4.195  0.00  0.00    -0.246 N 
ATOM     21  N   UNL     1       4.058  -6.536   5.436  0.00  0.00    -0.170 NA
ATOM     22  C   UNL     1       5.215  -5.933   5.460  0.00  0.00    +0.144 C 
ATOM     23  N   UNL     1       5.875  -6.064   4.239  0.00  0.00    -0.270 N 
ATOM     24  C   UNL     1       7.109  -5.505   4.048  0.00  0.00    +0.078 C 
ATOM     25  C   UNL     1       7.721  -4.817   5.027  0.00  0.00    +0.015 C 
ATOM     26  C   UNL     1       7.110  -4.647   6.288  0.00  0.00    +0.005 C 
ATOM     27  C   UNL     1       5.881  -5.180   6.531  0.00  0.00    +0.045 C 
ATOM     28  H   UNL     1       3.029  -7.640   3.936  0.00  0.00    +0.170 HD
ENDBRANCH   7  19
TORSDOF 2
