REMARK  Name = ZINC17178111
REMARK  3 active torsions:
REMARK  status: ('A' for Active; 'I' for Inactive)
REMARK    1  A    between atoms: C_4  and  N_7
REMARK    2  A    between atoms: C_12  and  C_15
REMARK    3  A    between atoms: C_15  and  C_16
REMARK                            x       y       z     vdW  Elec       q    Type
REMARK                         _______ _______ _______ _____ _____    ______ ____
ROOT
ATOM      1  N   UNL     1       3.600  -0.631  -0.037  0.00  0.00    -0.226 NA
ATOM      2  C   UNL     1       3.792  -1.657   0.759  0.00  0.00    +0.161 C 
ATOM      3  N   UNL     1       2.910  -2.207   1.666  0.00  0.00    -0.264 N 
ATOM      4  C   UNL     1       3.223  -3.249   2.417  0.00  0.00    +0.232 C 
ATOM      5  O   UNL     1       2.443  -3.727   3.212  0.00  0.00    -0.274 OA
ATOM      6  C   UNL     1       4.623  -3.810   2.221  0.00  0.00    +0.144 C 
ATOM      7  S   UNL     1       5.253  -2.673   0.917  0.00  0.00    -0.077 S 
ATOM      8  H   UNL     1       2.028  -1.814   1.756  0.00  0.00    +0.157 HD
ENDROOT
BRANCH   1  12
ATOM      9  C   UNL     1      -0.017   1.379   0.010  0.00  0.00    +0.000 A 
ATOM     10  C   UNL     1       1.168   2.094   0.002  0.00  0.00    +0.002 A 
ATOM     11  C   UNL     1       2.377   1.430  -0.013  0.00  0.00    +0.028 A 
ATOM     12  C   UNL     1       2.404   0.034  -0.021  0.00  0.00    +0.066 A 
ATOM     13  C   UNL     1       1.204  -0.681  -0.013  0.00  0.00    +0.028 A 
ATOM     14  C   UNL     1       0.002  -0.004   0.002  0.00  0.00    +0.002 A 
ENDBRANCH   1  12
BRANCH   6  15
ATOM     15  C   UNL     1       5.448  -3.702   3.505  0.00  0.00    +0.060 C 
BRANCH  15  16
ATOM     16  C   UNL     1       6.780  -4.378   3.304  0.00  0.00    -0.026 A 
ATOM     17  C   UNL     1       6.952  -5.694   3.689  0.00  0.00    +0.025 A 
ATOM     18  C   UNL     1       8.175  -6.314   3.504  0.00  0.00    +0.041 A 
ATOM     19  C   UNL     1       9.226  -5.617   2.934  0.00  0.00    +0.021 A 
ATOM     20  C   UNL     1       9.053  -4.301   2.550  0.00  0.00    +0.022 A 
ATOM     21  C   UNL     1       7.829  -3.682   2.729  0.00  0.00    +0.044 A 
ATOM     22 CL   UNL     1       7.610  -2.031   2.240  0.00  0.00    -0.083 Cl
ATOM     23 CL   UNL     1       8.392  -7.968   3.988  0.00  0.00    -0.084 Cl
ENDBRANCH  15  16
ENDBRANCH   6  15
TORSDOF 3
