REMARK  Name = ZINC03402291
REMARK  10 active torsions:
REMARK  status: ('A' for Active; 'I' for Inactive)
REMARK    1  A    between atoms: C_1  and  C_2
REMARK    2  A    between atoms: C_4  and  O_28
REMARK    3  A    between atoms: C_5  and  C_11
REMARK    4  A    between atoms: C_7  and  C_8
REMARK    5  A    between atoms: C_8  and  C_9
REMARK    6  A    between atoms: C_8  and  C_10
REMARK    7  A    between atoms: C_11  and  N_59
REMARK    8  A    between atoms: N_14  and  S_17
REMARK    9  A    between atoms: S_17  and  C_20
REMARK   10  A    between atoms: C_21  and  C_22
REMARK                            x       y       z     vdW  Elec       q    Type
REMARK                         _______ _______ _______ _____ _____    ______ ____
ROOT
ATOM      1  C   UNL     1       2.674  -0.358  -2.833  0.00  0.00    -0.061 C 
ATOM      2  C   UNL     1       2.304  -1.379  -1.751  0.00  0.00    +0.091 C 
ATOM      3  N   UNL     1       0.843  -1.369  -1.580  0.00  0.00    -0.181 NA
ATOM      4  C   UNL     1       0.001  -1.515  -2.777  0.00  0.00    +0.091 C 
ATOM      5  C   UNL     1       0.462  -0.483  -3.819  0.00  0.00    -0.061 C 
ATOM      6  N   UNL     1       1.909  -0.669  -4.060  0.00  0.00    +0.384 N 
ATOM      7  H   UNL     1       2.080  -1.647  -4.320  0.00  0.00    -0.081 HD
ENDROOT
BRANCH   3   8
ATOM      8  S   UNL     1       0.164  -1.205  -0.078  0.00  0.00    +0.054 S 
ATOM      9  O   UNL     1       1.137  -1.648   0.858  0.00  0.00    -0.153 OA
ATOM     10  O   UNL     1      -1.135  -1.776  -0.155  0.00  0.00    -0.153 OA
BRANCH   8  11
ATOM     11  C   UNL     1      -0.060   0.519   0.207  0.00  0.00    +0.153 C 
ATOM     12  C   UNL     1      -1.283   1.018   0.322  0.00  0.00    +0.028 C 
BRANCH  12  13
ATOM     13  C   UNL     1      -1.472   2.465   0.560  0.00  0.00    -0.024 A 
ATOM     14  C   UNL     1      -0.364   3.307   0.671  0.00  0.00    +0.008 A 
ATOM     15  C   UNL     1      -0.547   4.657   0.889  0.00  0.00    +0.001 A 
ATOM     16  C   UNL     1      -1.825   5.175   1.008  0.00  0.00    +0.000 A 
ATOM     17  C   UNL     1      -2.926   4.344   0.905  0.00  0.00    +0.001 A 
ATOM     18  C   UNL     1      -2.757   2.993   0.682  0.00  0.00    +0.008 A 
ENDBRANCH  12  13
ENDBRANCH   8  11
ENDBRANCH   3   8
BRANCH   6  19
ATOM     19  C   UNL     1       2.352   0.206  -5.165  0.00  0.00    -0.039 C 
BRANCH  19  24
ATOM     20  C   UNL     1      -1.337  -0.310  -9.587  0.00  0.00    +0.044 C 
ATOM     21  C   UNL     1      -0.375  -0.178  -8.435  0.00  0.00    -0.044 A 
ATOM     22  C   UNL     1       0.518  -1.197  -8.162  0.00  0.00    +0.049 A 
ATOM     23  C   UNL     1       1.404  -1.075  -7.101  0.00  0.00    +0.118 A 
ATOM     24  C   UNL     1       1.391   0.070  -6.318  0.00  0.00    -0.022 A 
ATOM     25  C   UNL     1       0.493   1.083  -6.592  0.00  0.00    +0.009 A 
ATOM     26  C   UNL     1      -0.385   0.962  -7.654  0.00  0.00    -0.041 A 
BRANCH  26  27
ATOM     27  C   UNL     1      -1.360   2.071  -7.954  0.00  0.00    +0.013 C 
ATOM     28  C   UNL     1      -2.172   2.390  -6.698  0.00  0.00    +0.012 C 
ATOM     29  C   UNL     1      -0.592   3.319  -8.396  0.00  0.00    +0.012 C 
ENDBRANCH  26  27
BRANCH  23  30
ATOM     30  O   UNL     1       2.283  -2.075  -6.830  0.00  0.00    -0.507 OA
ATOM     31  H   UNL     1       1.945  -2.740  -6.214  0.00  0.00    +0.292 HD
ENDBRANCH  23  30
ENDBRANCH  19  24
ENDBRANCH   6  19
TORSDOF 7
