REMARK  Name = ZINC17170255
REMARK  3 active torsions:
REMARK  status: ('A' for Active; 'I' for Inactive)
REMARK    1  A    between atoms: C_5  and  S_6
REMARK    2  A    between atoms: S_6  and  N_9
REMARK    3  A    between atoms: C_14  and  C_16
REMARK                            x       y       z     vdW  Elec       q    Type
REMARK                         _______ _______ _______ _____ _____    ______ ____
ROOT
ATOM      1  N   UNL     1      -1.769  -1.624  -1.544  0.00  0.00    -0.164 NA
ATOM      2  C   UNL     1      -2.698  -0.843  -2.372  0.00  0.00    +0.110 C 
ATOM      3  C   UNL     1      -3.660  -1.797  -3.076  0.00  0.00    +0.017 C 
ATOM      4  C   UNL     1      -2.860  -2.847  -3.849  0.00  0.00    +0.003 C 
ATOM      5  C   UNL     1      -2.002  -3.657  -2.874  0.00  0.00    +0.030 C 
ATOM      6  C   UNL     1      -1.016  -2.720  -2.169  0.00  0.00    +0.166 C 
ENDROOT
BRANCH   6   7
ATOM      7  C   UNL     1      -0.259  -3.481  -1.111  0.00  0.00    +0.238 C 
ATOM      8  O   UNL     1      -0.858  -4.005  -0.196  0.00  0.00    -0.274 OA
ATOM      9  N   UNL     1       1.083  -3.580  -1.183  0.00  0.00    -0.263 N 
ATOM     10  C   UNL     1       1.780  -4.283  -0.207  0.00  0.00    +0.164 A 
ATOM     11  N   UNL     1       3.079  -4.489  -0.103  0.00  0.00    -0.233 NA
ATOM     12  C   UNL     1       3.583  -5.186   0.896  0.00  0.00    +0.120 A 
ATOM     13  C   UNL     1       2.733  -5.691   1.825  0.00  0.00    +0.068 A 
ATOM     14  S   UNL     1       1.167  -5.107   1.193  0.00  0.00    -0.061 S 
ATOM     15  H   UNL     1       1.562  -3.162  -1.915  0.00  0.00    +0.157 HD
ENDBRANCH   6   7
BRANCH   1  16
ATOM     16  S   UNL     1      -1.581  -1.282   0.065  0.00  0.00    +0.068 S 
ATOM     17  O   UNL     1      -1.917   0.089   0.231  0.00  0.00    -0.152 OA
ATOM     18  O   UNL     1      -0.317  -1.807   0.447  0.00  0.00    -0.152 OA
BRANCH  16  23
ATOM     19  C   UNL     1      -2.665  -3.392   1.588  0.00  0.00    +0.038 A 
ATOM     20  C   UNL     1      -3.769  -3.940   2.214  0.00  0.00    +0.030 A 
ATOM     21  C   UNL     1      -4.951  -3.276   2.163  0.00  0.00    +0.080 A 
ATOM     22  S   UNL     1      -4.521  -1.831   1.208  0.00  0.00    -0.057 S 
ATOM     23  C   UNL     1      -2.797  -2.208   0.941  0.00  0.00    +0.144 A 
ATOM     24 CL   UNL     1      -6.484  -3.718   2.848  0.00  0.00    -0.076 Cl
ENDBRANCH  16  23
ENDBRANCH   1  16
TORSDOF 3
