REMARK  Name = ZINC48310908
REMARK  11 active torsions:
REMARK  status: ('A' for Active; 'I' for Inactive)
REMARK    1  A    between atoms: C_1  and  C_2
REMARK    2  A    between atoms: C_3  and  C_10
REMARK    3  A    between atoms: C_4  and  C_7
REMARK    4  A    between atoms: C_7  and  C_8
REMARK    5  A    between atoms: C_7  and  C_9
REMARK    6  A    between atoms: N_12  and  C_13
REMARK    7  A    between atoms: C_13  and  C_14
REMARK    8  A    between atoms: C_17  and  C_20
REMARK    9  A    between atoms: C_20  and  N_21
REMARK   10  A    between atoms: C_23  and  C_30
REMARK   11  A    between atoms: C_26  and  C_29
REMARK                            x       y       z     vdW  Elec       q    Type
REMARK                         _______ _______ _______ _____ _____    ______ ____
ROOT
ATOM      1  C   UNL     1      -2.617   0.319  -5.096  0.00  0.00    -0.030 A 
ATOM      2  C   UNL     1      -3.258  -0.766  -5.663  0.00  0.00    +0.005 A 
ATOM      3  C   UNL     1      -4.565  -0.647  -6.097  0.00  0.00    +0.002 A 
ATOM      4  C   UNL     1      -5.231   0.556  -5.962  0.00  0.00    -0.064 A 
ATOM      5  C   UNL     1      -4.590   1.641  -5.394  0.00  0.00    +0.002 A 
ATOM      6  C   UNL     1      -3.284   1.522  -4.957  0.00  0.00    +0.005 A 
ENDROOT
BRANCH   1   7
ATOM      7  C   UNL     1      -1.191   0.190  -4.624  0.00  0.00    +0.139 C 
BRANCH   7  10
ATOM      8  C   UNL     1      -0.005  -0.429  -2.588  0.00  0.00    +0.249 C 
ATOM      9  O   UNL     1       1.043  -0.234  -3.174  0.00  0.00    -0.270 OA
ATOM     10  N   UNL     1      -1.178  -0.245  -3.225  0.00  0.00    -0.307 N 
ATOM     11  H   UNL     1      -2.014  -0.401  -2.758  0.00  0.00    +0.149 HD
BRANCH   8  14
ATOM     12  C   UNL     1      -0.018   1.503   0.010  0.00  0.00    +0.070 C 
ATOM     13  C   UNL     1       0.002  -0.004   0.002  0.00  0.00    +0.093 A 
ATOM     14  C   UNL     1       0.009  -0.867  -1.180  0.00  0.00    +0.102 A 
ATOM     15  C   UNL     1       0.029  -2.155  -0.729  0.00  0.00    +0.152 A 
ATOM     16  O   UNL     1       0.035  -2.126   0.606  0.00  0.00    -0.358 OA
ATOM     17  N   UNL     1       0.023  -0.782   1.044  0.00  0.00    -0.083 NA
BRANCH  15  18
ATOM     18  C   UNL     1       0.042  -3.394  -1.587  0.00  0.00    +0.052 C 
ATOM     19  C   UNL     1       1.304  -4.206  -1.291  0.00  0.00    +0.015 C 
ATOM     20  C   UNL     1      -1.194  -4.242  -1.279  0.00  0.00    +0.015 C 
ENDBRANCH  15  18
ENDBRANCH   8  14
ENDBRANCH   7  10
ENDBRANCH   1   7
BRANCH   4  21
ATOM     21  C   UNL     1      -6.656   0.686  -6.436  0.00  0.00    -0.043 C 
BRANCH  21  22
ATOM     22  N   UNL     1      -7.570   0.339  -5.339  0.00  0.00    +0.383 N 
ATOM     23  C   UNL     1      -7.396  -1.075  -4.988  0.00  0.00    -0.075 C 
ATOM     24  C   UNL     1      -8.286  -1.421  -3.792  0.00  0.00    -0.031 C 
ATOM     25  C   UNL     1      -9.750  -1.162  -4.161  0.00  0.00    +0.003 C 
ATOM     26  C   UNL     1      -9.905   0.298  -4.597  0.00  0.00    -0.031 C 
ATOM     27  C   UNL     1      -8.954   0.580  -5.763  0.00  0.00    -0.075 C 
ATOM     28  C   UNL     1     -11.348   0.548  -5.041  0.00  0.00    +0.005 C 
ATOM     29  C   UNL     1      -7.898  -0.550  -2.596  0.00  0.00    +0.005 C 
ATOM     30  H   UNL     1      -7.361   0.912  -4.535  0.00  0.00    -0.081 HD
ENDBRANCH  21  22
ENDBRANCH   4  21
TORSDOF 6
