REMARK  Name = ZINC67398718
REMARK  6 active torsions:
REMARK  status: ('A' for Active; 'I' for Inactive)
REMARK    1  A    between atoms: C_1  and  C_2
REMARK    2  A    between atoms: C_2  and  C_3
REMARK    3  A    between atoms: C_3  and  C_4
REMARK    4  A    between atoms: C_7  and  N_10
REMARK    5  A    between atoms: C_11  and  C_13
REMARK    6  A    between atoms: N_15  and  C_16
REMARK                            x       y       z     vdW  Elec       q    Type
REMARK                         _______ _______ _______ _____ _____    ______ ____
ROOT
ATOM      1  C   UNL     1      -0.741  -4.328   6.219  0.00  0.00    +0.303 C 
ATOM      2  O   UNL     1      -1.427  -3.327   6.233  0.00  0.00    -0.265 OA
ATOM      3  N   UNL     1      -0.520  -5.010   7.360  0.00  0.00    -0.276 N 
ATOM      4  H   UNL     1      -0.040  -5.852   7.337  0.00  0.00    +0.155 HD
ENDROOT
BRANCH   3   5
ATOM      5  C   UNL     1      -0.983  -4.502   8.578  0.00  0.00    +0.056 A 
ATOM      6  C   UNL     1      -1.192  -3.136   8.727  0.00  0.00    +0.072 A 
ATOM      7  C   UNL     1      -1.650  -2.638   9.932  0.00  0.00    +0.144 A 
ATOM      8  C   UNL     1      -1.901  -3.506  10.995  0.00  0.00    +0.077 A 
ATOM      9  C   UNL     1      -1.692  -4.867  10.845  0.00  0.00    +0.048 A 
ATOM     10  C   UNL     1      -1.240  -5.366   9.637  0.00  0.00    +0.064 A 
ATOM     11 CL   UNL     1      -0.985  -7.072   9.445  0.00  0.00    -0.082 Cl
ATOM     12  N   UNL     1      -2.363  -2.983  12.212  0.00  0.00    -0.280 N 
ATOM     13  C   UNL     1      -2.853  -1.724  12.240  0.00  0.00    +0.255 C 
ATOM     14  O   UNL     1      -3.231  -1.240  13.287  0.00  0.00    -0.272 OA
ATOM     15  C   UNL     1      -2.929  -0.923  10.965  0.00  0.00    +0.325 C 
ATOM     16  O   UNL     1      -1.861  -1.304  10.094  0.00  0.00    -0.481 OA
ATOM     17  H   UNL     1      -2.332  -3.517  13.021  0.00  0.00    +0.155 HD
ENDBRANCH   3   5
BRANCH   1  19
ATOM     18  N   UNL     1      -0.363  -4.123   3.795  0.00  0.00    -0.305 N 
ATOM     19  C   UNL     1      -0.142  -4.804   4.936  0.00  0.00    +0.300 C 
ATOM     20  O   UNL     1       0.544  -5.806   4.922  0.00  0.00    -0.265 OA
ATOM     21  H   UNL     1      -0.911  -3.323   3.806  0.00  0.00    +0.149 HD
BRANCH  18  25
ATOM     22  C   UNL     1       0.780  -2.019   1.247  0.00  0.00    -0.011 C 
ATOM     23  C   UNL     1      -0.646  -2.558   1.375  0.00  0.00    +0.005 C 
ATOM     24  C   UNL     1      -0.617  -4.087   1.363  0.00  0.00    +0.022 C 
ATOM     25  C   UNL     1       0.225  -4.590   2.537  0.00  0.00    +0.073 C 
ATOM     26  C   UNL     1       1.651  -4.052   2.410  0.00  0.00    +0.022 C 
ATOM     27  C   UNL     1       1.622  -2.522   2.422  0.00  0.00    +0.005 C 
BRANCH  22  28
ATOM     28  C   UNL     1       0.751  -0.489   1.259  0.00  0.00    +0.003 C 
BRANCH  28  30
ATOM     29  C   UNL     1      -0.014   1.546   0.029  0.00  0.00    +0.004 C 
ATOM     30  C   UNL     1       0.015   0.016   0.017  0.00  0.00    -0.003 C 
ENDBRANCH  28  30
ENDBRANCH  22  28
ENDBRANCH  18  25
ENDBRANCH   1  19
TORSDOF 5
