REMARK  Name = ZINC41584052
REMARK  10 active torsions:
REMARK  status: ('A' for Active; 'I' for Inactive)
REMARK    1  A    between atoms: C_1  and  C_2
REMARK    2  A    between atoms: C_2  and  C_3
REMARK    3  A    between atoms: C_3  and  C_4
REMARK    4  A    between atoms: C_4  and  N_5
REMARK    5  A    between atoms: N_5  and  C_6
REMARK    6  A    between atoms: N_5  and  C_7
REMARK    7  A    between atoms: C_7  and  C_8
REMARK    8  A    between atoms: C_9  and  O_31
REMARK    9  A    between atoms: C_11  and  C_30
REMARK   10  A    between atoms: C_16  and  C_17
REMARK                            x       y       z     vdW  Elec       q    Type
REMARK                         _______ _______ _______ _____ _____    ______ ____
ROOT
ATOM      1  C   UNL     1       2.574  -3.587  -3.948  0.00  0.00    +0.020 A 
ATOM      2  C   UNL     1       2.003  -3.744  -5.201  0.00  0.00    +0.122 A 
ATOM      3  C   UNL     1       2.749  -4.254  -6.260  0.00  0.00    +0.050 A 
ATOM      4  C   UNL     1       4.056  -4.606  -6.072  0.00  0.00    -0.033 A 
ATOM      5  C   UNL     1       4.644  -4.453  -4.817  0.00  0.00    +0.071 A 
ATOM      6  C   UNL     1       3.903  -3.935  -3.742  0.00  0.00    +0.145 A 
ATOM      7  O   UNL     1       4.681  -3.876  -2.639  0.00  0.00    -0.451 OA
ATOM      8  C   UNL     1       5.936  -4.322  -2.884  0.00  0.00    +0.176 C 
ATOM      9  C   UNL     1       6.952  -4.390  -1.986  0.00  0.00    +0.061 C 
ATOM     10  C   UNL     1       5.995  -4.730  -4.295  0.00  0.00    +0.232 C 
ATOM     11  O   UNL     1       6.950  -5.184  -4.901  0.00  0.00    -0.283 OA
ATOM     12  C   UNL     1       4.861  -5.158  -7.221  0.00  0.00    +0.045 C 
ENDROOT
BRANCH   9  13
ATOM     13  C   UNL     1       6.788  -3.813  -0.647  0.00  0.00    +0.022 A 
ATOM     14  C   UNL     1       5.510  -3.517  -0.160  0.00  0.00    +0.031 A 
ATOM     15  C   UNL     1       5.365  -2.973   1.099  0.00  0.00    +0.042 A 
ATOM     16  C   UNL     1       6.480  -2.718   1.883  0.00  0.00    +0.029 A 
ATOM     17  C   UNL     1       7.749  -3.006   1.414  0.00  0.00    +0.022 A 
ATOM     18  C   UNL     1       7.914  -3.561   0.157  0.00  0.00    +0.136 A 
ATOM     19  O   UNL     1       9.152  -3.863  -0.309  0.00  0.00    -0.465 OA
ATOM     20  C   UNL     1      10.262  -3.269   0.370  0.00  0.00    +0.395 C 
ATOM     21  O   UNL     1      10.079  -3.440   1.781  0.00  0.00    -0.339 OA
ATOM     22  C   UNL     1       8.947  -2.716   2.283  0.00  0.00    +0.202 C 
ATOM     23 CL   UNL     1       3.780  -2.607   1.704  0.00  0.00    -0.084 Cl
ENDBRANCH   9  13
BRANCH   2  24
ATOM     24  O   UNL     1       0.705  -3.398  -5.397  0.00  0.00    -0.506 OA
ATOM     25  H   UNL     1       0.581  -2.479  -5.670  0.00  0.00    +0.292 HD
ENDBRANCH   2  24
BRANCH   1  26
ATOM     26  C   UNL     1       1.755  -3.034  -2.810  0.00  0.00    -0.036 C 
BRANCH  26  27
ATOM     27  N   UNL     1       1.878  -1.570  -2.785  0.00  0.00    +0.381 N 
ATOM     28  C   UNL     1       1.281  -1.008  -4.004  0.00  0.00    -0.096 C 
ATOM     29  H   UNL     1       2.853  -1.315  -2.740  0.00  0.00    -0.082 HD
BRANCH  27  30
ATOM     30  C   UNL     1       1.178  -1.040  -1.607  0.00  0.00    -0.079 C 
BRANCH  30  31
ATOM     31  C   UNL     1       1.410   0.469  -1.512  0.00  0.00    -0.019 C 
BRANCH  31  33
ATOM     32  C   UNL     1       0.913   2.530  -0.190  0.00  0.00    +0.004 C 
ATOM     33  C   UNL     1       0.681   1.021  -0.285  0.00  0.00    -0.005 C 
ENDBRANCH  31  33
ENDBRANCH  30  31
ENDBRANCH  27  30
ENDBRANCH  26  27
ENDBRANCH   1  26
TORSDOF 7
