REMARK  Name = ZINC17859426
REMARK  8 active torsions:
REMARK  status: ('A' for Active; 'I' for Inactive)
REMARK    1  A    between atoms: C_1  and  C_2
REMARK    2  A    between atoms: C_4  and  C_30
REMARK    3  A    between atoms: C_5  and  S_9
REMARK    4  A    between atoms: C_6  and  C_8
REMARK    5  A    between atoms: S_9  and  N_12
REMARK    6  A    between atoms: C_15  and  C_18
REMARK    7  A    between atoms: C_22  and  C_29
REMARK    8  A    between atoms: C_25  and  C_28
REMARK                            x       y       z     vdW  Elec       q    Type
REMARK                         _______ _______ _______ _____ _____    ______ ____
ROOT
ATOM      1  N   UNL     1      -0.002  -5.076   0.495  0.00  0.00    -0.177 NA
ATOM      2  C   UNL     1       0.638  -5.628  -0.707  0.00  0.00    +0.110 C 
ATOM      3  C   UNL     1       0.760  -7.147  -0.547  0.00  0.00    +0.030 C 
ATOM      4  C   UNL     1       1.496  -7.461   0.757  0.00  0.00    +0.078 C 
ATOM      5  C   UNL     1       0.696  -6.913   1.942  0.00  0.00    +0.030 C 
ATOM      6  C   UNL     1       0.577  -5.387   1.809  0.00  0.00    +0.110 C 
ENDROOT
BRANCH   4   7
ATOM      7  C   UNL     1       1.648  -8.953   0.901  0.00  0.00    +0.219 C 
ATOM      8  O   UNL     1       0.843  -9.697   0.384  0.00  0.00    -0.275 OA
ATOM      9  N   UNL     1       2.679  -9.460   1.605  0.00  0.00    -0.301 N 
ATOM     10  C   UNL     1       3.608  -8.573   2.319  0.00  0.00    +0.111 C 
ATOM     11  C   UNL     1       3.686  -9.016   3.784  0.00  0.00    +0.004 C 
ATOM     12  C   UNL     1       4.062 -10.498   3.845  0.00  0.00    +0.009 C 
ATOM     13  C   UNL     1       2.983 -11.329   3.146  0.00  0.00    +0.004 C 
ATOM     14  C   UNL     1       2.893 -10.912   1.679  0.00  0.00    +0.111 C 
ATOM     15  C   UNL     1       3.342 -12.813   3.237  0.00  0.00    +0.009 C 
ATOM     16  C   UNL     1       4.748  -8.189   4.511  0.00  0.00    +0.009 C 
ENDBRANCH   4   7
BRANCH   1  17
ATOM     17  S   UNL     1      -1.345  -4.115   0.370  0.00  0.00    +0.061 S 
ATOM     18  O   UNL     1      -2.025  -4.204   1.615  0.00  0.00    -0.153 OA
ATOM     19  O   UNL     1      -1.968  -4.446  -0.863  0.00  0.00    -0.153 OA
BRANCH  17  24
ATOM     20  C   UNL     1       0.581   1.580  -0.141  0.00  0.00    +0.044 C 
ATOM     21  C   UNL     1       0.100   0.158  -0.014  0.00  0.00    -0.050 A 
ATOM     22  C   UNL     1      -0.150  -0.378   1.236  0.00  0.00    +0.008 A 
ATOM     23  C   UNL     1      -0.592  -1.682   1.353  0.00  0.00    -0.024 A 
ATOM     24  C   UNL     1      -0.783  -2.452   0.221  0.00  0.00    +0.111 A 
ATOM     25  C   UNL     1      -0.534  -1.916  -1.029  0.00  0.00    -0.024 A 
ATOM     26  C   UNL     1      -0.097  -0.610  -1.146  0.00  0.00    +0.008 A 
ATOM     27  C   UNL     1      -0.743  -2.755  -2.263  0.00  0.00    +0.046 C 
ATOM     28  C   UNL     1      -0.864  -2.266   2.716  0.00  0.00    +0.046 C 
ENDBRANCH  17  24
ENDBRANCH   1  17
TORSDOF 3
