REMARK  Name = ZINC34920685
REMARK  6 active torsions:
REMARK  status: ('A' for Active; 'I' for Inactive)
REMARK    1  A    between atoms: C_1  and  N_2
REMARK    2  A    between atoms: N_2  and  C_3
REMARK    3  A    between atoms: N_2  and  C_4
REMARK    4  A    between atoms: C_10  and  C_12
REMARK    5  A    between atoms: C_18  and  C_20
REMARK    6  A    between atoms: C_23  and  C_26
REMARK                            x       y       z     vdW  Elec       q    Type
REMARK                         _______ _______ _______ _____ _____    ______ ____
ROOT
ATOM      1  C   UNL     1      -4.583  -3.859  -0.151  0.00  0.00    +0.191 C 
ATOM      2  C   UNL     1      -5.687  -3.224   0.730  0.00  0.00    +0.194 C 
ATOM      3  O   UNL     1      -6.899  -3.680   0.085  0.00  0.00    -0.354 OA
ATOM      4  C   UNL     1      -6.624  -5.023  -0.345  0.00  0.00    +0.139 C 
ATOM      5  N   UNL     1      -5.169  -5.166  -0.526  0.00  0.00    -0.255 N 
ATOM      6  C   UNL     1      -4.505  -6.262  -0.944  0.00  0.00    +0.249 C 
ATOM      7  O   UNL     1      -5.113  -7.289  -1.175  0.00  0.00    -0.270 OA
ATOM      8  C   UNL     1      -7.113  -6.009   0.716  0.00  0.00    +0.055 C 
ATOM      9  C   UNL     1      -6.823  -7.439   0.256  0.00  0.00    +0.004 C 
ATOM     10  C   UNL     1      -7.543  -7.706  -1.067  0.00  0.00    +0.000 C 
ATOM     11  C   UNL     1      -7.043  -6.722  -2.127  0.00  0.00    +0.004 C 
ATOM     12  C   UNL     1      -7.333  -5.290  -1.673  0.00  0.00    +0.055 C 
ENDROOT
BRANCH   1  18
ATOM     13  C   UNL     1      -0.744  -1.637   1.673  0.00  0.00    -0.050 C 
ATOM     14  C   UNL     1      -1.230  -0.960   0.364  0.00  0.00    +0.005 C 
ATOM     15  C   UNL     1      -2.499  -1.763   0.009  0.00  0.00    +0.106 C 
ATOM     16  N   UNL     1      -2.393  -3.067   0.681  0.00  0.00    -0.301 N 
ATOM     17  C   UNL     1      -1.113  -3.119   1.413  0.00  0.00    +0.092 C 
ATOM     18  C   UNL     1      -3.313  -4.050   0.638  0.00  0.00    +0.238 C 
ATOM     19  O   UNL     1      -3.120  -5.088   1.234  0.00  0.00    -0.273 OA
BRANCH  13  21
ATOM     20  C   UNL     1       1.025  -0.053   2.011  0.00  0.00    -0.096 C 
ATOM     21  N   UNL     1       0.706  -1.477   1.842  0.00  0.00    +0.379 N 
ATOM     22  C   UNL     1       1.145  -2.222   3.030  0.00  0.00    -0.096 C 
ATOM     23  H   UNL     1       1.181  -1.834   1.027  0.00  0.00    -0.082 HD
ENDBRANCH  13  21
ENDBRANCH   1  18
BRANCH   6  24
ATOM     24  C   UNL     1      -3.038  -6.215  -1.122  0.00  0.00    +0.037 A 
ATOM     25  C   UNL     1      -2.376  -4.987  -1.159  0.00  0.00    +0.013 A 
ATOM     26  C   UNL     1      -1.007  -4.949  -1.325  0.00  0.00    +0.013 A 
ATOM     27  C   UNL     1      -0.290  -6.126  -1.455  0.00  0.00    +0.055 A 
ATOM     28  C   UNL     1      -0.941  -7.347  -1.419  0.00  0.00    +0.013 A 
ATOM     29  C   UNL     1      -2.309  -7.398  -1.247  0.00  0.00    +0.013 A 
BRANCH  27  30
ATOM     30  C   UNL     1       1.205  -6.078  -1.636  0.00  0.00    +0.417 C 
ATOM     31  F   UNL     1       1.828  -6.109  -0.384  0.00  0.00    -0.166 F 
ATOM     32  F   UNL     1       1.619  -7.181  -2.391  0.00  0.00    -0.166 F 
ATOM     33  F   UNL     1       1.556  -4.899  -2.302  0.00  0.00    -0.166 F 
ENDBRANCH  27  30
ENDBRANCH   6  24
TORSDOF 4
