REMARK  Name = ZINC26846058
REMARK  6 active torsions:
REMARK  status: ('A' for Active; 'I' for Inactive)
REMARK    1  A    between atoms: C_1  and  C_2
REMARK    2  A    between atoms: C_4  and  C_20
REMARK    3  A    between atoms: C_5  and  S_9
REMARK    4  A    between atoms: C_6  and  C_8
REMARK    5  A    between atoms: S_9  and  N_12
REMARK    6  A    between atoms: C_17  and  C_19
REMARK                            x       y       z     vdW  Elec       q    Type
REMARK                         _______ _______ _______ _____ _____    ______ ____
ROOT
ATOM      1  S   UNL     1      -1.105   3.799  -2.156  0.00  0.00    +0.062 S 
ATOM      2  O   UNL     1      -0.620   5.102  -1.866  0.00  0.00    -0.153 OA
ATOM      3  O   UNL     1      -0.247   2.735  -2.546  0.00  0.00    -0.153 OA
ENDROOT
BRANCH   1   8
ATOM      4  C   UNL     1      -5.187   4.418  -6.556  0.00  0.00    +0.044 C 
ATOM      5  C   UNL     1      -4.168   4.264  -5.457  0.00  0.00    -0.050 A 
ATOM      6  C   UNL     1      -4.205   5.100  -4.357  0.00  0.00    +0.008 A 
ATOM      7  C   UNL     1      -3.270   4.958  -3.349  0.00  0.00    -0.024 A 
ATOM      8  C   UNL     1      -2.297   3.979  -3.441  0.00  0.00    +0.111 A 
ATOM      9  C   UNL     1      -2.257   3.146  -4.543  0.00  0.00    -0.024 A 
ATOM     10  C   UNL     1      -3.196   3.285  -5.549  0.00  0.00    +0.008 A 
ATOM     11  C   UNL     1      -1.194   2.084  -4.646  0.00  0.00    +0.046 C 
ATOM     12  C   UNL     1      -3.310   5.870  -2.150  0.00  0.00    +0.046 C 
ENDBRANCH   1   8
BRANCH   1  13
ATOM     13  N   UNL     1      -1.914   3.283  -0.806  0.00  0.00    -0.169 NA
ATOM     14  C   UNL     1      -2.188   4.202   0.310  0.00  0.00    +0.138 C 
ATOM     15  C   UNL     1      -3.678   4.109   0.659  0.00  0.00    +0.177 C 
ATOM     16  O   UNL     1      -4.029   2.739   0.864  0.00  0.00    -0.377 OA
ATOM     17  C   UNL     1      -3.861   1.912  -0.290  0.00  0.00    +0.180 C 
ATOM     18  C   UNL     1      -2.381   1.893  -0.688  0.00  0.00    +0.102 C 
ATOM     19  C   UNL     1      -2.216   1.177  -2.030  0.00  0.00    +0.028 C 
ENDBRANCH   1  13
TORSDOF 2
