REMARK  Name = ZINC43573966
REMARK  9 active torsions:
REMARK  status: ('A' for Active; 'I' for Inactive)
REMARK    1  A    between atoms: C_1  and  C_2
REMARK    2  A    between atoms: C_2  and  C_3
REMARK    3  A    between atoms: C_3  and  C_4
REMARK    4  A    between atoms: C_22  and  C_37
REMARK    5  A    between atoms: C_25  and  O_36
REMARK    6  A    between atoms: C_28  and  C_35
REMARK    7  A    between atoms: C_29  and  C_31
REMARK    8  A    between atoms: C_31  and  C_33
REMARK    9  A    between atoms: C_33  and  O_34
REMARK                            x       y       z     vdW  Elec       q    Type
REMARK                         _______ _______ _______ _____ _____    ______ ____
ROOT
ATOM      1  C   UNL     1       1.081  -2.108  -1.327  0.00  0.00    +0.252 C 
ATOM      2  O   UNL     1      -0.307  -2.453  -1.195  0.00  0.00    -0.345 OA
ATOM      3  C   UNL     1      -0.846  -2.453  -2.524  0.00  0.00    +0.161 C 
ATOM      4  C   UNL     1      -1.740  -3.707  -2.710  0.00  0.00    +0.039 C 
ATOM      5  C   UNL     1      -1.353  -4.202  -4.107  0.00  0.00    +0.004 C 
ATOM      6  C   UNL     1      -1.649  -5.662  -4.396  0.00  0.00    -0.000 C 
ATOM      7  C   UNL     1      -3.158  -5.909  -4.332  0.00  0.00    +0.008 C 
ATOM      8  C   UNL     1      -3.448  -7.392  -4.584  0.00  0.00    +0.032 C 
ATOM      9  C   UNL     1      -2.816  -7.778  -5.908  0.00  0.00    -0.056 C 
ATOM     10  C   UNL     1      -3.559  -8.392  -6.818  0.00  0.00    +0.051 C 
ATOM     11  C   UNL     1      -2.989  -8.764  -8.122  0.00  0.00    +0.179 C 
ATOM     12  O   UNL     1      -3.655  -9.363  -8.945  0.00  0.00    -0.288 OA
ATOM     13  C   UNL     1      -1.592  -8.394  -8.409  0.00  0.00    +0.047 C 
ATOM     14  C   UNL     1      -0.867  -7.787  -7.483  0.00  0.00    -0.012 C 
ATOM     15  C   UNL     1      -1.369  -7.446  -6.122  0.00  0.00    +0.013 C 
ATOM     16  C   UNL     1      -1.117  -5.970  -5.805  0.00  0.00    +0.035 C 
ATOM     17  C   UNL     1       0.372  -5.656  -5.926  0.00  0.00    +0.120 C 
ATOM     18  C   UNL     1       0.684  -4.212  -5.503  0.00  0.00    +0.042 C 
ATOM     19  C   UNL     1       0.189  -4.025  -4.087  0.00  0.00    +0.012 C 
ATOM     20  C   UNL     1       0.382  -2.624  -3.462  0.00  0.00    +0.164 C 
ATOM     21  O   UNL     1       1.522  -2.639  -2.584  0.00  0.00    -0.334 OA
ATOM     22  C   UNL     1       0.822  -5.094  -3.194  0.00  0.00    +0.015 C 
ATOM     23  C   UNL     1      -0.551  -8.246  -5.106  0.00  0.00    +0.020 C 
ENDROOT
BRANCH  20  24
ATOM     24  C   UNL     1       0.460  -1.533  -4.499  0.00  0.00    +0.193 C 
ATOM     25  O   UNL     1      -0.552  -1.012  -4.904  0.00  0.00    -0.292 OA
BRANCH  24  26
ATOM     26  C   UNL     1       1.799  -1.092  -5.030  0.00  0.00    +0.233 C 
BRANCH  26  27
ATOM     27  O   UNL     1       1.620   0.024  -5.905  0.00  0.00    -0.387 OA
ATOM     28  H   UNL     1       2.443   0.362  -6.285  0.00  0.00    +0.210 HD
ENDBRANCH  26  27
ENDBRANCH  24  26
ENDBRANCH  20  24
BRANCH  17  29
ATOM     29  O   UNL     1       0.779  -5.842  -7.283  0.00  0.00    -0.391 OA
ATOM     30  H   UNL     1       1.716  -5.662  -7.441  0.00  0.00    +0.210 HD
ENDBRANCH  17  29
BRANCH   1  31
ATOM     31  C   UNL     1       1.245  -0.587  -1.315  0.00  0.00    +0.061 C 
BRANCH  31  33
ATOM     32  C   UNL     1       1.061   1.474   0.086  0.00  0.00    +0.004 C 
ATOM     33  C   UNL     1       0.896  -0.047   0.074  0.00  0.00    +0.002 C 
ENDBRANCH  31  33
ENDBRANCH   1  31
TORSDOF 6
