REMARK  Name = ZINC39835423
REMARK  5 active torsions:
REMARK  status: ('A' for Active; 'I' for Inactive)
REMARK    1  A    between atoms: C_1  and  C_2
REMARK    2  A    between atoms: C_5  and  C_8
REMARK    3  A    between atoms: C_9  and  C_10
REMARK    4  A    between atoms: C_18  and  C_19
REMARK    5  A    between atoms: C_22  and  C_24
REMARK                            x       y       z     vdW  Elec       q    Type
REMARK                         _______ _______ _______ _____ _____    ______ ____
ROOT
ATOM      1  C   UNL     1       0.472  -6.410   1.090  0.00  0.00    +0.176 A 
ATOM      2  N   UNL     1       0.149  -7.172   0.031  0.00  0.00    -0.201 NA
ATOM      3  C   UNL     1       0.135  -8.422   0.389  0.00  0.00    +0.200 A 
ATOM      4  N   UNL     1       0.453  -8.528   1.716  0.00  0.00    -0.169 N 
ATOM      5  N   UNL     1       0.671  -7.186   2.131  0.00  0.00    -0.142 NA
ATOM      6  C   UNL     1       0.489  -9.747   2.268  0.00  0.00    +0.288 A 
ATOM      7  O   UNL     1       0.767  -9.884   3.446  0.00  0.00    -0.265 OA
ATOM      8  C   UNL     1       0.197 -10.880   1.460  0.00  0.00    +0.085 A 
ATOM      9  C   UNL     1       0.172 -12.202   1.797  0.00  0.00    +0.066 C 
ATOM     10  S   UNL     1      -0.128 -10.106  -0.118  0.00  0.00    -0.044 S 
ENDROOT
BRANCH   9  11
ATOM     11  C   UNL     1       0.283 -12.587   3.152  0.00  0.00    +0.129 A 
ATOM     12  C   UNL     1       0.411 -13.880   3.623  0.00  0.00    +0.049 A 
ATOM     13  C   UNL     1       0.489 -13.789   5.021  0.00  0.00    +0.045 A 
ATOM     14  C   UNL     1       0.409 -12.478   5.342  0.00  0.00    +0.103 A 
ATOM     15  O   UNL     1       0.290 -11.758   4.217  0.00  0.00    -0.461 OA
ATOM     16  C   UNL     1       0.451 -11.915   6.739  0.00  0.00    +0.086 C 
ENDBRANCH   9  11
BRANCH   1  18
ATOM     17  C   UNL     1       0.363  -4.255  -0.049  0.00  0.00    +0.011 C 
ATOM     18  C   UNL     1       0.591  -4.941   1.083  0.00  0.00    +0.050 C 
BRANCH  17  23
ATOM     19  C   UNL     1       0.826   1.477  -0.077  0.00  0.00    +0.044 C 
ATOM     20  C   UNL     1       0.705  -0.025  -0.069  0.00  0.00    -0.050 A 
ATOM     21  C   UNL     1       0.358  -0.694  -1.230  0.00  0.00    +0.004 A 
ATOM     22  C   UNL     1       0.245  -2.068  -1.231  0.00  0.00    +0.008 A 
ATOM     23  C   UNL     1       0.482  -2.786  -0.056  0.00  0.00    -0.025 A 
ATOM     24  C   UNL     1       0.832  -2.104   1.113  0.00  0.00    +0.008 A 
ATOM     25  C   UNL     1       0.947  -0.730   1.097  0.00  0.00    +0.004 A 
ENDBRANCH  17  23
ENDBRANCH   1  18
TORSDOF 3
