REMARK  Name = ZINC13126828
REMARK  5 active torsions:
REMARK  status: ('A' for Active; 'I' for Inactive)
REMARK    1  A    between atoms: C_4  and  O_22
REMARK    2  A    between atoms: C_5  and  C_7
REMARK    3  A    between atoms: C_10  and  C_12
REMARK    4  A    between atoms: C_12  and  O_13
REMARK    5  A    between atoms: O_13  and  C_14
REMARK                            x       y       z     vdW  Elec       q    Type
REMARK                         _______ _______ _______ _____ _____    ______ ____
ROOT
ATOM      1  C   UNL     1       1.248  -2.160  -0.023  0.00  0.00    +0.252 A 
ATOM      2  N   UNL     1       2.319  -2.920  -0.032  0.00  0.00    -0.107 NA
ATOM      3  N   UNL     1       1.962  -4.156  -0.037  0.00  0.00    -0.108 NA
ATOM      4  C   UNL     1       0.661  -4.234  -0.032  0.00  0.00    +0.255 A 
ATOM      5  O   UNL     1       0.177  -2.980  -0.017  0.00  0.00    -0.417 OA
ENDROOT
BRANCH   1  10
ATOM      6  C   UNL     1      -0.017   1.375   0.010  0.00  0.00    +0.001 A 
ATOM      7  C   UNL     1       1.169   2.089   0.002  0.00  0.00    +0.004 A 
ATOM      8  C   UNL     1       2.383   1.428  -0.013  0.00  0.00    +0.046 A 
ATOM      9  C   UNL     1       2.419   0.043  -0.021  0.00  0.00    +0.129 A 
ATOM     10  C   UNL     1       1.221  -0.683  -0.014  0.00  0.00    +0.080 A 
ATOM     11  C   UNL     1       0.002  -0.004   0.002  0.00  0.00    +0.017 A 
BRANCH   9  12
ATOM     12  O   UNL     1       3.610  -0.609  -0.037  0.00  0.00    -0.506 OA
ATOM     13  H   UNL     1       3.964  -0.802   0.842  0.00  0.00    +0.292 HD
ENDBRANCH   9  12
ENDBRANCH   1  10
BRANCH   4  14
ATOM     14  C   UNL     1      -0.154  -5.502  -0.035  0.00  0.00    +0.326 C 
BRANCH  14  15
ATOM     15  O   UNL     1      -0.405  -5.910   1.311  0.00  0.00    -0.481 OA
BRANCH  15  16
ATOM     16  C   UNL     1      -1.133  -7.045   1.486  0.00  0.00    +0.140 A 
ATOM     17  C   UNL     1      -1.591  -7.753   0.385  0.00  0.00    +0.048 A 
ATOM     18  C   UNL     1      -2.330  -8.906   0.564  0.00  0.00    +0.023 A 
ATOM     19  C   UNL     1      -2.615  -9.355   1.842  0.00  0.00    +0.043 A 
ATOM     20  C   UNL     1      -2.160  -8.651   2.942  0.00  0.00    +0.043 A 
ATOM     21  C   UNL     1      -1.415  -7.500   2.767  0.00  0.00    +0.084 A 
ATOM     22 CL   UNL     1      -0.838  -6.620   4.147  0.00  0.00    -0.080 Cl
ATOM     23 CL   UNL     1      -3.546 -10.804   2.064  0.00  0.00    -0.083 Cl
ENDBRANCH  15  16
ENDBRANCH  14  15
ENDBRANCH   4  14
TORSDOF 5
