REMARK  Name = ZINC61639267
REMARK  3 active torsions:
REMARK  status: ('A' for Active; 'I' for Inactive)
REMARK    1  A    between atoms: C_1  and  N_2
REMARK    2  A    between atoms: C_7  and  C_9
REMARK    3  A    between atoms: C_9  and  N_10
REMARK                            x       y       z     vdW  Elec       q    Type
REMARK                         _______ _______ _______ _____ _____    ______ ____
ROOT
ATOM      1  C   UNL     1      -2.195  -4.258   0.011  0.00  0.00    +0.204 C 
ENDROOT
BRANCH   1   2
ATOM      2  N   UNL     1      -2.178  -4.743  -1.371  0.00  0.00    -0.223 N 
ATOM      3  C   UNL     1      -0.994  -4.902  -1.996  0.00  0.00    +0.275 A 
ATOM      4  O   UNL     1       0.050  -4.645  -1.423  0.00  0.00    -0.266 OA
ATOM      5  C   UNL     1      -0.986  -5.390  -3.381  0.00  0.00    +0.050 A 
ATOM      6  C   UNL     1       0.198  -5.579  -4.092  0.00  0.00    +0.014 A 
ATOM      7  C   UNL     1       0.142  -6.039  -5.389  0.00  0.00    +0.001 A 
ATOM      8  C   UNL     1      -1.079  -6.315  -5.991  0.00  0.00    +0.001 A 
ATOM      9  C   UNL     1      -2.252  -6.138  -5.314  0.00  0.00    +0.010 A 
ATOM     10  C   UNL     1      -2.227  -5.672  -3.997  0.00  0.00    +0.007 A 
ATOM     11  C   UNL     1      -3.453  -5.465  -3.228  0.00  0.00    +0.141 A 
ATOM     12  N   UNL     1      -3.387  -5.035  -2.003  0.00  0.00    -0.176 NA
ENDBRANCH   1   2
BRANCH   1  19
ATOM     13  C   UNL     1      -0.018   1.461   0.010  0.00  0.00    +0.127 C 
ATOM     14  N   UNL     1       0.002  -0.004   0.002  0.00  0.00    -0.332 N 
ATOM     15  C   UNL     1      -1.193  -0.716   0.010  0.00  0.00    +0.119 A 
ATOM     16  C   UNL     1      -2.403  -0.030   0.019  0.00  0.00    +0.045 A 
ATOM     17  C   UNL     1      -3.584  -0.750   0.026  0.00  0.00    +0.025 A 
ATOM     18  C   UNL     1      -3.515  -2.138   0.023  0.00  0.00    +0.064 A 
ATOM     19  C   UNL     1      -2.278  -2.753   0.014  0.00  0.00    +0.083 A 
ATOM     20  N   UNL     1      -1.168  -2.039   0.002  0.00  0.00    -0.234 NA
ATOM     21 CL   UNL     1      -4.967  -3.089   0.033  0.00  0.00    -0.082 Cl
ATOM     22  H   UNL     1       0.849  -0.478  -0.009  0.00  0.00    +0.147 HD
ENDBRANCH   1  19
TORSDOF 2
