REMARK  Name = ZINC09187576
REMARK  5 active torsions:
REMARK  status: ('A' for Active; 'I' for Inactive)
REMARK    1  A    between atoms: C_1  and  O_2
REMARK    2  A    between atoms: O_2  and  C_3
REMARK    3  A    between atoms: C_8  and  N_9
REMARK    4  A    between atoms: C_19  and  C_25
REMARK    5  A    between atoms: C_25  and  C_27
REMARK                            x       y       z     vdW  Elec       q    Type
REMARK                         _______ _______ _______ _____ _____    ______ ____
ROOT
ATOM      1  N   UNL     1       1.967   0.898   0.760  0.00  0.00    -0.206 N 
ATOM      2  C   UNL     1       1.117  -0.143   1.004  0.00  0.00    +0.229 C 
ATOM      3  O   UNL     1       1.236  -1.002   1.852  0.00  0.00    -0.275 OA
ATOM      4  C   UNL     1       0.002  -0.004   0.002  0.00  0.00    +0.073 C 
ATOM      5  C   UNL     1      -1.445  -0.194   0.460  0.00  0.00    -0.055 C 
ATOM      6  C   UNL     1      -1.618   0.257   1.913  0.00  0.00    -0.016 C 
ATOM      7  C   UNL     1      -2.815   1.226   1.917  0.00  0.00    -0.020 C 
ATOM      8  C   UNL     1      -3.293   1.302   0.457  0.00  0.00    -0.077 C 
ATOM      9  C   UNL     1      -1.249   1.901  -0.730  0.00  0.00    +0.017 C 
ATOM     10  C   UNL     1      -0.019   1.578   0.011  0.00  0.00    +0.080 C 
ATOM     11  C   UNL     1       1.392   1.886  -0.001  0.00  0.00    +0.229 C 
ATOM     12  O   UNL     1       1.945   2.810  -0.559  0.00  0.00    -0.275 OA
ATOM     13  N   UNL     1      -2.184   0.792  -0.352  0.00  0.00    +0.389 N 
ATOM     14  H   UNL     1      -2.550   0.347  -1.202  0.00  0.00    -0.080 HD
ENDROOT
BRANCH   1  20
ATOM     15  C   UNL     1       3.558   1.533   2.473  0.00  0.00    +0.142 A 
ATOM     16  C   UNL     1       4.862   1.580   2.941  0.00  0.00    +0.049 A 
ATOM     17  C   UNL     1       5.890   1.061   2.177  0.00  0.00    +0.024 A 
ATOM     18  C   UNL     1       5.621   0.489   0.946  0.00  0.00    +0.043 A 
ATOM     19  C   UNL     1       4.322   0.434   0.474  0.00  0.00    +0.047 A 
ATOM     20  C   UNL     1       3.286   0.953   1.236  0.00  0.00    +0.087 A 
ATOM     21 CL   UNL     1       6.917  -0.162  -0.009  0.00  0.00    -0.083 Cl
BRANCH  15  23
ATOM     22  C   UNL     1       2.900   2.629   4.478  0.00  0.00    +0.277 C 
ATOM     23  O   UNL     1       2.547   2.049   3.221  0.00  0.00    -0.493 OA
ENDBRANCH  15  23
ENDBRANCH   1  20
BRANCH   9  24
ATOM     24  C   UNL     1      -0.984   1.912  -2.213  0.00  0.00    +0.151 C 
ATOM     25  O   UNL     1      -1.368   0.993  -2.904  0.00  0.00    -0.294 OA
BRANCH  24  26
ATOM     26  C   UNL     1      -0.259   3.037  -2.822  0.00  0.00    +0.016 A 
ATOM     27  C   UNL     1       0.181   4.102  -2.029  0.00  0.00    +0.014 A 
ATOM     28  C   UNL     1       0.865   5.149  -2.605  0.00  0.00    +0.039 A 
ATOM     29  C   UNL     1       1.107   5.156  -3.971  0.00  0.00    +0.123 A 
ATOM     30  C   UNL     1       0.668   4.106  -4.764  0.00  0.00    +0.039 A 
ATOM     31  C   UNL     1      -0.011   3.049  -4.200  0.00  0.00    +0.014 A 
ATOM     32  F   UNL     1       1.773   6.189  -4.531  0.00  0.00    -0.205 F 
ENDBRANCH  24  26
ENDBRANCH   9  24
TORSDOF 4
