REMARK  Name = ZINC51580987
REMARK  11 active torsions:
REMARK  status: ('A' for Active; 'I' for Inactive)
REMARK    1  A    between atoms: C_1  and  C_2
REMARK    2  A    between atoms: C_2  and  C_3
REMARK    3  A    between atoms: C_3  and  C_4
REMARK    4  A    between atoms: C_4  and  C_6
REMARK    5  A    between atoms: C_4  and  N_7
REMARK    6  A    between atoms: C_8  and  C_10
REMARK    7  A    between atoms: N_15  and  C_17
REMARK    8  A    between atoms: C_17  and  C_19
REMARK    9  A    between atoms: C_17  and  C_20
REMARK   10  A    between atoms: N_22  and  C_23
REMARK   11  A    between atoms: N_22  and  C_24
REMARK                            x       y       z     vdW  Elec       q    Type
REMARK                         _______ _______ _______ _____ _____    ______ ____
ROOT
ATOM      1  C   UNL     1       3.070  -5.258  -0.688  0.00  0.00    +0.058 C 
ATOM      2  C   UNL     1       4.353  -6.005  -0.313  0.00  0.00    +0.009 C 
ATOM      3  C   UNL     1       5.037  -6.498  -1.591  0.00  0.00    -0.018 C 
ATOM      4  C   UNL     1       4.063  -7.377  -2.378  0.00  0.00    -0.078 C 
ATOM      5  N   UNL     1       2.869  -6.598  -2.729  0.00  0.00    +0.388 N 
ATOM      6  C   UNL     1       2.168  -6.182  -1.509  0.00  0.00    -0.065 C 
ATOM      7  H   UNL     1       3.145  -5.781  -3.253  0.00  0.00    -0.081 HD
ENDROOT
BRANCH   1   9
ATOM      8  N   UNL     1       2.954  -4.015   1.448  0.00  0.00    -0.313 N 
ATOM      9  C   UNL     1       2.349  -4.835   0.566  0.00  0.00    +0.215 C 
ATOM     10  O   UNL     1       1.223  -5.232   0.781  0.00  0.00    -0.276 OA
ATOM     11  H   UNL     1       3.854  -3.697   1.275  0.00  0.00    +0.149 HD
BRANCH   8  12
ATOM     12  C   UNL     1       2.253  -3.604   2.666  0.00  0.00    +0.070 C 
ATOM     13  C   UNL     1       2.444  -4.668   3.748  0.00  0.00    +0.028 C 
BRANCH  12  14
ATOM     14  C   UNL     1       2.822  -2.271   3.157  0.00  0.00    +0.022 C 
BRANCH  14  16
ATOM     15  C   UNL     1       3.089   0.155   2.619  0.00  0.00    +0.004 C 
ATOM     16  C   UNL     1       2.520  -1.179   2.128  0.00  0.00    -0.002 C 
ENDBRANCH  14  16
ENDBRANCH  12  14
ENDBRANCH   8  12
ENDBRANCH   1   9
BRANCH   5  17
ATOM     17  C   UNL     1       1.973  -7.423  -3.551  0.00  0.00    +0.016 C 
ATOM     18  C   UNL     1       0.735  -6.608  -3.930  0.00  0.00    -0.004 C 
BRANCH  17  19
ATOM     19  C   UNL     1       2.693  -7.854  -4.802  0.00  0.00    +0.202 C 
ATOM     20  O   UNL     1       3.596  -7.177  -5.246  0.00  0.00    -0.277 OA
ATOM     21  N   UNL     1       2.333  -8.992  -5.428  0.00  0.00    -0.303 N 
ATOM     22  C   UNL     1       1.242  -9.810  -4.892  0.00  0.00    +0.132 C 
BRANCH  21  23
ATOM     23  C   UNL     1       3.033  -9.411  -6.645  0.00  0.00    +0.076 C 
ATOM     24  C   UNL     1       2.036  -9.502  -7.802  0.00  0.00    +0.022 C 
ATOM     25  C   UNL     1       2.767  -9.939  -9.073  0.00  0.00    +0.002 C 
ATOM     26  C   UNL     1       3.409 -11.309  -8.845  0.00  0.00    +0.000 C 
ATOM     27  C   UNL     1       4.407 -11.219  -7.689  0.00  0.00    +0.002 C 
ATOM     28  C   UNL     1       3.675 -10.781  -6.418  0.00  0.00    +0.022 C 
ENDBRANCH  21  23
ENDBRANCH  17  19
ENDBRANCH   5  17
TORSDOF 7
