REMARK  Name = ZINC44027479
REMARK  2 active torsions:
REMARK  status: ('A' for Active; 'I' for Inactive)
REMARK    1  A    between atoms: C_1  and  N_2
REMARK    2  A    between atoms: C_10  and  C_11
REMARK                            x       y       z     vdW  Elec       q    Type
REMARK                         _______ _______ _______ _____ _____    ______ ____
ROOT
ATOM      1  C   UNL     1       0.087   1.336   0.176  0.00  0.00    +0.172 C 
ATOM      2  N   UNL     1       0.234  -0.121   0.115  0.00  0.00    -0.271 N 
ATOM      3  C   UNL     1       0.152  -0.867  -0.986  0.00  0.00    +0.050 A 
ATOM      4  C   UNL     1       0.365  -2.186  -0.606  0.00  0.00    +0.062 A 
ATOM      5  C   UNL     1       0.563  -2.203   0.776  0.00  0.00    +0.146 A 
ATOM      6  N   UNL     1       0.492  -0.967   1.204  0.00  0.00    -0.179 NA
ATOM      7  C   UNL     1       0.371  -3.278  -1.604  0.00  0.00    +0.192 C 
ATOM      8  O   UNL     1       0.379  -4.452  -1.274  0.00  0.00    -0.287 OA
ATOM      9  C   UNL     1       0.367  -2.883  -2.963  0.00  0.00    +0.002 C 
ATOM     10  C   UNL     1       0.166  -3.822  -3.933  0.00  0.00    +0.036 C 
ATOM     11  C   UNL     1       0.579  -1.449  -3.356  0.00  0.00    +0.045 C 
ATOM     12  C   UNL     1      -0.126  -0.476  -2.413  0.00  0.00    +0.060 C 
ENDROOT
BRANCH  10  13
ATOM     13  C   UNL     1       0.282  -3.468  -5.288  0.00  0.00    +0.086 A 
ATOM     14  C   UNL     1      -0.694  -3.602  -6.264  0.00  0.00    +0.156 A 
ATOM     15  N   UNL     1      -0.192  -3.153  -7.409  0.00  0.00    -0.209 NA
ATOM     16  C   UNL     1       1.038  -2.745  -7.220  0.00  0.00    +0.179 A 
ATOM     17  N   UNL     1       1.409  -2.904  -5.915  0.00  0.00    -0.292 N 
ATOM     18  C   UNL     1       2.680  -2.509  -5.572  0.00  0.00    +0.101 A 
ATOM     19  C   UNL     1       3.504  -1.992  -6.484  0.00  0.00    +0.067 A 
ATOM     20  S   UNL     1       2.495  -2.040  -7.957  0.00  0.00    -0.058 S 
ATOM     21 CL   UNL     1      -2.291  -4.242  -6.030  0.00  0.00    -0.060 Cl
ENDBRANCH  10  13
TORSDOF 1
