REMARK  Name = ZINC46097010
REMARK  5 active torsions:
REMARK  status: ('A' for Active; 'I' for Inactive)
REMARK    1  A    between atoms: C_1  and  C_2
REMARK    2  A    between atoms: C_2  and  C_3
REMARK    3  A    between atoms: N_15  and  C_16
REMARK    4  A    between atoms: C_16  and  C_17
REMARK    5  A    between atoms: C_22  and  N_23
REMARK                            x       y       z     vdW  Elec       q    Type
REMARK                         _______ _______ _______ _____ _____    ______ ____
ROOT
ATOM      1  C   UNL     1      -1.313  -0.849  -2.728  0.00  0.00    +0.108 C 
ATOM      2  C   UNL     1      -2.115  -0.917  -1.430  0.00  0.00    -0.017 A 
ATOM      3  C   UNL     1      -3.457  -1.291  -1.380  0.00  0.00    +0.013 A 
ATOM      4  C   UNL     1      -4.104  -1.333  -0.193  0.00  0.00    +0.046 A 
ATOM      5  S   UNL     1      -2.819  -0.834   0.944  0.00  0.00    -0.101 S 
ATOM      6  C   UNL     1      -1.523  -0.605  -0.245  0.00  0.00    -0.004 A 
ATOM      7  C   UNL     1      -0.114  -0.169  -0.009  0.00  0.00    +0.062 C 
ATOM      8  C   UNL     1       0.720  -0.501  -1.256  0.00  0.00    +0.115 C 
ATOM      9  N   UNL     1      -0.061  -0.133  -2.447  0.00  0.00    -0.278 N 
ATOM     10  C   UNL     1       0.363   0.848  -3.268  0.00  0.00    +0.303 C 
ATOM     11  O   UNL     1       1.348   1.500  -2.978  0.00  0.00    -0.253 OA
ATOM     12  N   UNL     1      -0.304   1.107  -4.410  0.00  0.00    -0.295 N 
ATOM     13  H   UNL     1      -1.129   0.638  -4.607  0.00  0.00    +0.151 HD
ENDROOT
BRANCH   1  15
ATOM     14  C   UNL     1      -0.289  -2.190  -4.572  0.00  0.00    +0.006 C 
ATOM     15  C   UNL     1      -1.000  -2.264  -3.219  0.00  0.00    +0.024 C 
ENDBRANCH   1  15
BRANCH  12  16
ATOM     16  C   UNL     1       0.218   2.098  -5.355  0.00  0.00    +0.144 C 
BRANCH  16  17
ATOM     17  C   UNL     1      -0.707   2.198  -6.540  0.00  0.00    +0.014 A 
ATOM     18  C   UNL     1      -0.407   1.541  -7.722  0.00  0.00    +0.010 A 
ATOM     19  C   UNL     1      -1.288   1.661  -8.787  0.00  0.00    +0.020 A 
ATOM     20  C   UNL     1      -2.428   2.426  -8.639  0.00  0.00    +0.113 A 
ATOM     21  N   UNL     1      -2.687   3.041  -7.501  0.00  0.00    -0.236 NA
ATOM     22  C   UNL     1      -1.874   2.946  -6.461  0.00  0.00    +0.160 A 
BRANCH  22  23
ATOM     23  N   UNL     1      -2.191   3.611  -5.271  0.00  0.00    -0.202 N 
ATOM     24  C   UNL     1      -2.972   4.701  -5.138  0.00  0.00    +0.226 A 
ATOM     25  N   UNL     1      -3.020   5.012  -3.868  0.00  0.00    -0.222 NA
ATOM     26  C   UNL     1      -2.287   4.150  -3.164  0.00  0.00    +0.245 A 
ATOM     27  N   UNL     1      -1.764   3.271  -3.977  0.00  0.00    -0.152 NA
ENDBRANCH  22  23
ENDBRANCH  16  17
ENDBRANCH  12  16
TORSDOF 4
