REMARK  Name = ZINC59872674
REMARK  7 active torsions:
REMARK  status: ('A' for Active; 'I' for Inactive)
REMARK    1  A    between atoms: C_1  and  C_2
REMARK    2  A    between atoms: C_8  and  C_10
REMARK    3  A    between atoms: C_10  and  O_11
REMARK    4  A    between atoms: O_11  and  C_12
REMARK    5  A    between atoms: C_12  and  C_14
REMARK    6  A    between atoms: C_17  and  O_33
REMARK    7  A    between atoms: C_21  and  C_23
REMARK                            x       y       z     vdW  Elec       q    Type
REMARK                         _______ _______ _______ _____ _____    ______ ____
ROOT
ATOM      1  C   UNL     1       5.619  -6.300   1.862  0.00  0.00    +0.187 C 
ATOM      2  C   UNL     1       4.976  -7.515   1.161  0.00  0.00    +0.066 C 
ATOM      3  C   UNL     1       5.665  -8.720   1.853  0.00  0.00    +0.134 C 
ATOM      4  C   UNL     1       5.821  -8.199   3.304  0.00  0.00    +0.140 C 
ATOM      5  N   UNL     1       6.138  -6.763   3.158  0.00  0.00    -0.285 N 
ATOM      6  C   UNL     1       6.792  -6.004   4.059  0.00  0.00    +0.223 C 
ATOM      7  O   UNL     1       7.066  -4.852   3.796  0.00  0.00    -0.275 OA
ENDROOT
BRANCH   6   8
ATOM      8  C   UNL     1       7.182  -6.586   5.393  0.00  0.00    +0.048 C 
ATOM      9  C   UNL     1       5.967  -7.268   6.027  0.00  0.00    +0.019 C 
ATOM     10  C   UNL     1       6.363  -7.859   7.381  0.00  0.00    -0.009 C 
ATOM     11  C   UNL     1       6.858  -6.741   8.301  0.00  0.00    +0.007 C 
ATOM     12  C   UNL     1       8.072  -6.059   7.667  0.00  0.00    -0.009 C 
ATOM     13  C   UNL     1       7.676  -5.468   6.313  0.00  0.00    +0.019 C 
ATOM     14  C   UNL     1       9.188  -7.087   7.468  0.00  0.00    +0.007 C 
ATOM     15  C   UNL     1       8.694  -8.205   6.549  0.00  0.00    -0.009 C 
ATOM     16  C   UNL     1       7.479  -8.887   7.182  0.00  0.00    +0.007 C 
ATOM     17  C   UNL     1       8.298  -7.614   5.194  0.00  0.00    +0.019 C 
ENDBRANCH   6   8
BRANCH   1  18
ATOM     18  C   UNL     1       4.584  -5.226   2.079  0.00  0.00    +0.328 C 
ATOM     19  O   UNL     1       4.306  -4.873   3.200  0.00  0.00    -0.249 OA
BRANCH  18  20
ATOM     20  O   UNL     1       3.972  -4.662   1.026  0.00  0.00    -0.454 OA
BRANCH  20  21
ATOM     21  C   UNL     1       3.001  -3.651   1.305  0.00  0.00    +0.327 C 
BRANCH  21  29
ATOM     22  C   UNL     1       0.531   1.974  -0.018  0.00  0.00    +0.007 C 
ATOM     23  C   UNL     1       0.421   0.449   0.017  0.00  0.00    -0.011 C 
ATOM     24  C   UNL     1       1.054  -0.138  -1.247  0.00  0.00    +0.022 C 
ATOM     25  C   UNL     1       0.911  -1.663  -1.225  0.00  0.00    +0.108 C 
ATOM     26  N   UNL     1       1.483  -2.173   0.028  0.00  0.00    -0.299 N 
ATOM     27  C   UNL     1       1.010  -1.612   1.301  0.00  0.00    +0.108 C 
ATOM     28  C   UNL     1       1.152  -0.087   1.250  0.00  0.00    +0.022 C 
ATOM     29  C   UNL     1       2.424  -3.138   0.011  0.00  0.00    +0.253 C 
ATOM     30  O   UNL     1       2.806  -3.593  -1.046  0.00  0.00    -0.272 OA
ENDBRANCH  21  29
ENDBRANCH  20  21
ENDBRANCH  18  20
ENDBRANCH   1  18
BRANCH   3  31
ATOM     31  O   UNL     1       4.832  -9.880   1.812  0.00  0.00    -0.390 OA
ATOM     32  H   UNL     1       5.220 -10.659   2.232  0.00  0.00    +0.210 HD
ENDBRANCH   3  31
TORSDOF 6
