REMARK  Name = ZINC36157730
REMARK  4 active torsions:
REMARK  status: ('A' for Active; 'I' for Inactive)
REMARK    1  A    between atoms: C_3  and  N_10
REMARK    2  A    between atoms: C_4  and  C_8
REMARK    3  A    between atoms: N_10  and  C_11
REMARK    4  A    between atoms: C_11  and  C_12
REMARK                            x       y       z     vdW  Elec       q    Type
REMARK                         _______ _______ _______ _____ _____    ______ ____
ROOT
ATOM      1  C   UNL     1       3.540   3.617  -0.014  0.00  0.00    +0.176 C 
ENDROOT
BRANCH   1   2
ATOM      2  C   UNL     1       4.950   4.149  -0.026  0.00  0.00    +0.128 A 
ATOM      3  N   UNL     1       5.132   5.496  -0.015  0.00  0.00    -0.309 N 
ATOM      4  H   UNL     1       4.368   6.093  -0.001  0.00  0.00    +0.170 HD
ATOM      5  C   UNL     1       6.391   5.996  -0.025  0.00  0.00    +0.266 A 
ATOM      6  O   UNL     1       6.588   7.199  -0.016  0.00  0.00    -0.267 OA
ATOM      7  C   UNL     1       7.457   5.095  -0.046  0.00  0.00    +0.102 A 
ATOM      8  C   UNL     1       7.241   3.706  -0.057  0.00  0.00    +0.085 A 
ATOM      9  N   UNL     1       5.928   3.301  -0.040  0.00  0.00    -0.232 NA
ATOM     10  C   UNL     1       8.398   2.915  -0.078  0.00  0.00    +0.036 A 
ATOM     11  C   UNL     1       9.617   3.496  -0.086  0.00  0.00    +0.048 A 
ATOM     12  S   UNL     1       9.224   5.237  -0.066  0.00  0.00    -0.090 S 
ENDBRANCH   1   2
BRANCH   1  13
ATOM     13  N   UNL     1       3.571   2.152  -0.022  0.00  0.00    -0.336 N 
ATOM     14  H   UNL     1       4.421   1.685  -0.033  0.00  0.00    +0.147 HD
BRANCH  13  17
ATOM     15  C   UNL     1      -0.017   1.380   0.010  0.00  0.00    +0.005 A 
ATOM     16  C   UNL     1       1.164   2.096   0.002  0.00  0.00    +0.024 A 
ATOM     17  C   UNL     1       2.382   1.431  -0.013  0.00  0.00    +0.048 A 
ATOM     18  C   UNL     1       2.408   0.027  -0.021  0.00  0.00    +0.108 A 
ATOM     19  C   UNL     1       1.204  -0.685  -0.013  0.00  0.00    +0.142 A 
ATOM     20  C   UNL     1       0.002  -0.004   0.002  0.00  0.00    +0.040 A 
ATOM     21  F   UNL     1       1.217  -2.036  -0.021  0.00  0.00    -0.204 F 
BRANCH  18  22
ATOM     22  C   UNL     1       3.659  -0.670  -0.038  0.00  0.00    +0.104 C 
ATOM     23  N   UNL     1       4.651  -1.224  -0.051  0.00  0.00    -0.191 NA
ENDBRANCH  18  22
ENDBRANCH  13  17
ENDBRANCH   1  13
TORSDOF 4
