REMARK  Name = ZINC20568802
REMARK  11 active torsions:
REMARK  status: ('A' for Active; 'I' for Inactive)
REMARK    1  A    between atoms: C_1  and  C_2
REMARK    2  A    between atoms: C_2  and  C_3
REMARK    3  A    between atoms: C_3  and  N_4
REMARK    4  A    between atoms: N_7  and  C_10
REMARK    5  A    between atoms: C_10  and  C_11
REMARK    6  A    between atoms: N_13  and  C_14
REMARK    7  A    between atoms: C_15  and  C_28
REMARK    8  A    between atoms: C_20  and  C_24
REMARK    9  A    between atoms: C_24  and  C_25
REMARK   10  A    between atoms: C_24  and  C_26
REMARK   11  A    between atoms: C_24  and  C_27
REMARK                            x       y       z     vdW  Elec       q    Type
REMARK                         _______ _______ _______ _____ _____    ______ ____
ROOT
ATOM      1  C   UNL     1      -3.571  -6.497   1.240  0.00  0.00    +0.232 C 
ATOM      2  O   UNL     1      -4.484  -5.701   1.280  0.00  0.00    -0.274 OA
ATOM      3  N   UNL     1      -3.826  -7.820   1.290  0.00  0.00    -0.278 N 
ATOM      4  H   UNL     1      -3.096  -8.457   1.258  0.00  0.00    +0.155 HD
ENDROOT
BRANCH   3   5
ATOM      5  C   UNL     1      -5.136  -8.270   1.387  0.00  0.00    +0.090 A 
ATOM      6  C   UNL     1      -5.583  -9.579   1.454  0.00  0.00    +0.084 A 
ATOM      7  C   UNL     1      -7.017  -9.788   1.552  0.00  0.00    -0.018 A 
ATOM      8  C   UNL     1      -7.741  -8.647   1.564  0.00  0.00    -0.004 A 
ATOM      9  S   UNL     1      -6.541  -7.353   1.456  0.00  0.00    -0.077 S 
ATOM     10  C   UNL     1      -9.231  -8.529   1.654  0.00  0.00    +0.047 C 
ATOM     11  C   UNL     1      -9.843  -9.904   1.351  0.00  0.00    -0.000 C 
ATOM     12  C   UNL     1      -9.108 -10.966   2.175  0.00  0.00    +0.009 C 
ATOM     13  C   UNL     1      -7.687 -11.151   1.637  0.00  0.00    +0.037 C 
BRANCH  11  14
ATOM     14  C   UNL     1     -11.327  -9.899   1.726  0.00  0.00    -0.035 C 
ATOM     15  C   UNL     1     -12.054  -8.828   0.910  0.00  0.00    +0.011 C 
ATOM     16  C   UNL     1     -11.934 -11.270   1.423  0.00  0.00    +0.011 C 
ATOM     17  C   UNL     1     -11.475  -9.593   3.217  0.00  0.00    +0.011 C 
ENDBRANCH  11  14
BRANCH   6  18
ATOM     18  C   UNL     1      -4.670 -10.682   1.428  0.00  0.00    +0.102 C 
ATOM     19  N   UNL     1      -3.945 -11.556   1.407  0.00  0.00    -0.191 NA
ENDBRANCH   6  18
ENDBRANCH   3   5
BRANCH   1  20
ATOM     20  C   UNL     1      -2.149  -6.009   1.135  0.00  0.00    +0.180 C 
BRANCH  20  24
ATOM     21  N   UNL     1      -1.413  -2.002   0.005  0.00  0.00    +0.381 N 
ATOM     22  C   UNL     1      -0.808  -2.490   1.251  0.00  0.00    -0.063 C 
ATOM     23  C   UNL     1      -0.770  -4.020   1.235  0.00  0.00    +0.066 C 
ATOM     24  N   UNL     1      -2.138  -4.540   1.098  0.00  0.00    -0.298 NA
ATOM     25  C   UNL     1      -2.766  -4.040  -0.133  0.00  0.00    +0.066 C 
ATOM     26  C   UNL     1      -2.787  -2.510  -0.105  0.00  0.00    -0.063 C 
ATOM     27  H   UNL     1      -0.871  -2.327  -0.782  0.00  0.00    -0.082 HD
BRANCH  21  28
ATOM     28  C   UNL     1      -1.433  -0.534   0.013  0.00  0.00    -0.079 C 
BRANCH  28  30
ATOM     29  C   UNL     1      -0.019   1.526   0.010  0.00  0.00    +0.002 C 
ATOM     30  C   UNL     1       0.002  -0.004   0.002  0.00  0.00    -0.022 C 
ENDBRANCH  28  30
ENDBRANCH  21  28
ENDBRANCH  20  24
ENDBRANCH   1  20
TORSDOF 7
