REMARK  Name = ZINC02469555
REMARK  3 active torsions:
REMARK  status: ('A' for Active; 'I' for Inactive)
REMARK    1  A    between atoms: C_1  and  O_2
REMARK    2  A    between atoms: O_2  and  C_3
REMARK    3  A    between atoms: C_8  and  C_9
REMARK                            x       y       z     vdW  Elec       q    Type
REMARK                         _______ _______ _______ _____ _____    ______ ____
ROOT
ATOM      1  C   UNL     1      -1.292  -0.776   0.010  0.00  0.00    +0.063 C 
ATOM      2  C   UNL     1      -2.118  -0.403  -1.225  0.00  0.00    +0.109 C 
ATOM      3  C   UNL     1      -3.503  -0.983  -1.099  0.00  0.00    +0.218 C 
ATOM      4  O   UNL     1      -4.082  -1.378  -2.089  0.00  0.00    -0.275 OA
ATOM      5  N   UNL     1      -4.103  -1.066   0.104  0.00  0.00    -0.285 N 
ATOM      6  C   UNL     1      -3.459  -0.575   1.247  0.00  0.00    +0.041 A 
ATOM      7  C   UNL     1      -2.078  -0.430   1.250  0.00  0.00    -0.015 A 
ATOM      8  C   UNL     1      -1.430   0.028   2.380  0.00  0.00    +0.055 A 
ATOM      9  C   UNL     1      -2.159   0.351   3.512  0.00  0.00    +0.167 A 
ATOM     10  C   UNL     1      -3.547   0.214   3.510  0.00  0.00    +0.168 A 
ATOM     11  C   UNL     1      -4.194  -0.248   2.378  0.00  0.00    +0.073 A 
ATOM     12  O   UNL     1      -4.016   0.601   4.736  0.00  0.00    -0.453 OA
ATOM     13  C   UNL     1      -2.874   0.449   5.611  0.00  0.00    +0.466 C 
ATOM     14  O   UNL     1      -1.778   0.819   4.741  0.00  0.00    -0.453 OA
ATOM     15  H   UNL     1      -4.983  -1.467   0.178  0.00  0.00    +0.155 HD
ENDROOT
BRANCH   1  21
ATOM     16  C   UNL     1       1.213  -0.680  -0.013  0.00  0.00    +0.124 A 
ATOM     17  C   UNL     1       2.403   0.032  -0.021  0.00  0.00    +0.047 A 
ATOM     18  C   UNL     1       2.381   1.413  -0.013  0.00  0.00    +0.023 A 
ATOM     19  C   UNL     1       1.171   2.086   0.002  0.00  0.00    +0.041 A 
ATOM     20  C   UNL     1      -0.017   1.377   0.010  0.00  0.00    +0.027 A 
ATOM     21  C   UNL     1       0.002  -0.004   0.002  0.00  0.00    +0.004 A 
ATOM     22 CL   UNL     1       1.145   3.822   0.011  0.00  0.00    -0.084 Cl
BRANCH  16  24
ATOM     23  C   UNL     1       2.516  -2.669  -0.037  0.00  0.00    +0.277 C 
ATOM     24  O   UNL     1       1.234  -2.039  -0.021  0.00  0.00    -0.495 OA
ENDBRANCH  16  24
ENDBRANCH   1  21
TORSDOF 2
