REMARK  Name = ZINC40091158
REMARK  4 active torsions:
REMARK  status: ('A' for Active; 'I' for Inactive)
REMARK    1  A    between atoms: C_1  and  C_2
REMARK    2  A    between atoms: N_5  and  C_11
REMARK    3  A    between atoms: C_6  and  C_10
REMARK    4  A    between atoms: C_11  and  N_12
REMARK                            x       y       z     vdW  Elec       q    Type
REMARK                         _______ _______ _______ _____ _____    ______ ____
ROOT
ATOM      1  N   UNL     1      -3.232  -2.605  -1.346  0.00  0.00    -0.261 N 
ATOM      2  C   UNL     1      -3.913  -1.594  -2.024  0.00  0.00    +0.092 A 
ATOM      3  C   UNL     1      -4.344  -0.328  -1.661  0.00  0.00    +0.031 A 
ATOM      4  C   UNL     1      -5.012   0.460  -2.578  0.00  0.00    +0.017 A 
ATOM      5  C   UNL     1      -5.252  -0.012  -3.857  0.00  0.00    +0.021 A 
ATOM      6  C   UNL     1      -4.826  -1.274  -4.226  0.00  0.00    +0.063 A 
ATOM      7  C   UNL     1      -4.154  -2.071  -3.313  0.00  0.00    +0.158 A 
ATOM      8  O   UNL     1      -3.631  -3.319  -3.385  0.00  0.00    -0.407 OA
ATOM      9  C   UNL     1      -3.073  -3.633  -2.204  0.00  0.00    +0.422 A 
ATOM     10  O   UNL     1      -2.515  -4.682  -1.948  0.00  0.00    -0.223 OA
ATOM     11 BR   UNL     1      -6.168   1.074  -5.105  0.00  0.00    -0.050 Br
ENDROOT
BRANCH   1  12
ATOM     12  C   UNL     1      -2.768  -2.557   0.042  0.00  0.00    +0.216 C 
BRANCH  12  16
ATOM     13  C   UNL     1      -0.019   1.526   0.010  0.00  0.00    +0.039 C 
ATOM     14  C   UNL     1       0.002  -0.004   0.002  0.00  0.00    +0.129 C 
ATOM     15  C   UNL     1      -1.434  -0.535   0.015  0.00  0.00    +0.117 C 
ATOM     16  N   UNL     1      -1.407  -2.003   0.085  0.00  0.00    -0.277 NA
ATOM     17  C   UNL     1      -0.692  -2.455   1.287  0.00  0.00    +0.081 C 
ATOM     18  C   UNL     1       0.736  -1.905   1.261  0.00  0.00    +0.178 C 
ATOM     19  O   UNL     1       0.692  -0.479   1.161  0.00  0.00    -0.374 OA
ATOM     20  C   UNL     1      -1.415  -1.943   2.534  0.00  0.00    +0.026 C 
ENDBRANCH  12  16
ENDBRANCH   1  12
TORSDOF 2
