REMARK  Name = ZINC32966786
REMARK  8 active torsions:
REMARK  status: ('A' for Active; 'I' for Inactive)
REMARK    1  A    between atoms: C_1  and  C_2
REMARK    2  A    between atoms: C_7  and  C_9
REMARK    3  A    between atoms: C_7  and  C_10
REMARK    4  A    between atoms: N_13  and  C_17
REMARK    5  A    between atoms: C_17  and  C_18
REMARK    6  A    between atoms: N_20  and  C_21
REMARK    7  A    between atoms: N_20  and  C_27
REMARK    8  A    between atoms: C_21  and  C_22
REMARK                            x       y       z     vdW  Elec       q    Type
REMARK                         _______ _______ _______ _____ _____    ______ ____
ROOT
ATOM      1  C   UNL     1      -4.509  -4.121  -1.157  0.00  0.00    +0.213 C 
ENDROOT
BRANCH   1  13
ATOM      2  C   UNL     1      -0.781   1.455   1.135  0.00  0.00    +0.007 C 
ATOM      3  C   UNL     1      -0.617  -0.025   0.785  0.00  0.00    -0.011 C 
ATOM      4  C   UNL     1      -1.980  -0.718   0.843  0.00  0.00    +0.038 C 
ATOM      5  C   UNL     1      -1.814  -2.198   0.515  0.00  0.00    +0.113 C 
ATOM      6  C   UNL     1      -0.854  -2.863   1.495  0.00  0.00    +0.041 C 
ATOM      7  C   UNL     1       0.505  -2.162   1.435  0.00  0.00    -0.032 C 
ATOM      8  C   UNL     1       0.332  -0.684   1.789  0.00  0.00    +0.009 C 
ATOM      9  C   UNL     1       1.081  -2.284   0.022  0.00  0.00    +0.011 C 
ATOM     10  C   UNL     1       1.462  -2.817   2.434  0.00  0.00    +0.011 C 
ATOM     11  C   UNL     1      -3.154  -2.896   0.532  0.00  0.00    +0.247 C 
ATOM     12  O   UNL     1      -3.912  -3.007   1.472  0.00  0.00    -0.273 OA
ATOM     13  N   UNL     1      -3.330  -3.369  -0.719  0.00  0.00    -0.215 N 
ATOM     14  C   UNL     1      -2.295  -3.066  -1.511  0.00  0.00    +0.310 C 
ATOM     15  O   UNL     1      -2.223  -3.383  -2.682  0.00  0.00    -0.252 OA
ATOM     16  N   UNL     1      -1.341  -2.368  -0.865  0.00  0.00    -0.285 N 
ATOM     17  H   UNL     1      -0.506  -2.043  -1.237  0.00  0.00    +0.151 HD
ENDBRANCH   1  13
BRANCH   1  18
ATOM     18  C   UNL     1      -5.551  -3.165  -1.676  0.00  0.00    +0.234 C 
ATOM     19  O   UNL     1      -5.298  -1.982  -1.764  0.00  0.00    -0.274 OA
ATOM     20  N   UNL     1      -6.764  -3.624  -2.042  0.00  0.00    -0.288 N 
BRANCH  20  21
ATOM     21  C   UNL     1      -7.739  -2.714  -2.650  0.00  0.00    +0.099 C 
ATOM     22  C   UNL     1      -7.123  -2.048  -3.892  0.00  0.00    +0.047 C 
ATOM     23  C   UNL     1      -8.008  -0.864  -4.349  0.00  0.00    +0.168 C 
ATOM     24  S   UNL     1      -8.802  -0.324  -2.781  0.00  0.00    -0.029 S 
ATOM     25  O   UNL     1      -8.287   0.950  -2.417  0.00  0.00    -0.174 OA
ATOM     26  O   UNL     1     -10.207  -0.505  -2.887  0.00  0.00    -0.174 OA
ATOM     27  C   UNL     1      -8.116  -1.595  -1.638  0.00  0.00    +0.188 C 
ENDBRANCH  20  21
BRANCH  20  28
ATOM     28  C   UNL     1      -7.109  -5.032  -1.833  0.00  0.00    +0.182 C 
BRANCH  28  29
ATOM     29  C   UNL     1      -7.735  -5.199  -0.472  0.00  0.00    +0.122 A 
ATOM     30  C   UNL     1      -9.049  -5.115  -0.196  0.00  0.00    +0.046 A 
ATOM     31  C   UNL     1      -9.190  -5.335   1.194  0.00  0.00    +0.041 A 
ATOM     32  C   UNL     1      -7.955  -5.540   1.683  0.00  0.00    +0.195 A 
ATOM     33  O   UNL     1      -7.078  -5.462   0.669  0.00  0.00    -0.466 OA
ENDBRANCH  28  29
ENDBRANCH  20  28
ENDBRANCH   1  18
TORSDOF 5
