REMARK  Name = ZINC15828534
REMARK  3 active torsions:
REMARK  status: ('A' for Active; 'I' for Inactive)
REMARK    1  A    between atoms: C_1  and  C_2
REMARK    2  A    between atoms: N_5  and  S_8
REMARK    3  A    between atoms: S_8  and  C_11
REMARK                            x       y       z     vdW  Elec       q    Type
REMARK                         _______ _______ _______ _____ _____    ______ ____
ROOT
ATOM      1  C   UNL     1       0.051  -2.793  -0.013  0.00  0.00    +0.190 A 
ATOM      2  C   UNL     1       1.244  -2.145  -0.021  0.00  0.00    +0.047 A 
ATOM      3  C   UNL     1       1.235  -0.679  -0.013  0.00  0.00    +0.021 A 
ATOM      4  C   UNL     1       2.429   0.049  -0.020  0.00  0.00    +0.031 A 
ATOM      5  C   UNL     1       2.388   1.426  -0.012  0.00  0.00    +0.042 A 
ATOM      6  C   UNL     1       1.168   2.090   0.002  0.00  0.00    +0.023 A 
ATOM      7  C   UNL     1      -0.017   1.385   0.010  0.00  0.00    +0.048 A 
ATOM      8  C   UNL     1       0.002  -0.004   0.002  0.00  0.00    +0.139 A 
ATOM      9  O   UNL     1      -1.150  -0.709   0.010  0.00  0.00    -0.421 OA
ATOM     10  C   UNL     1      -1.150  -2.051   0.002  0.00  0.00    +0.364 A 
ATOM     11  O   UNL     1      -2.214  -2.644   0.009  0.00  0.00    -0.243 OA
ATOM     12 CL   UNL     1       3.866   2.335  -0.020  0.00  0.00    -0.084 Cl
ENDROOT
BRANCH   1  13
ATOM     13  S   UNL     1       0.002  -4.554  -0.023  0.00  0.00    +0.068 S 
ATOM     14  O   UNL     1      -0.915  -4.929  -1.042  0.00  0.00    -0.153 OA
ATOM     15  O   UNL     1       1.352  -4.998  -0.011  0.00  0.00    -0.153 OA
BRANCH  13  20
ATOM     16  C   UNL     1      -1.919  -8.205   3.959  0.00  0.00    +0.007 C 
ATOM     17  C   UNL     1      -1.619  -6.816   3.393  0.00  0.00    -0.012 C 
ATOM     18  C   UNL     1      -2.394  -6.619   2.088  0.00  0.00    +0.020 C 
ATOM     19  C   UNL     1      -2.118  -5.215   1.542  0.00  0.00    +0.110 C 
ATOM     20  N   UNL     1      -0.666  -5.033   1.415  0.00  0.00    -0.176 NA
ATOM     21  C   UNL     1       0.183  -5.290   2.586  0.00  0.00    +0.110 C 
ATOM     22  C   UNL     1      -0.118  -6.689   3.122  0.00  0.00    +0.020 C 
ENDBRANCH  13  20
ENDBRANCH   1  13
TORSDOF 2
