REMARK  Name = ZINC60030374
REMARK  7 active torsions:
REMARK  status: ('A' for Active; 'I' for Inactive)
REMARK    1  A    between atoms: C_1  and  O_2
REMARK    2  A    between atoms: O_2  and  C_3
REMARK    3  A    between atoms: C_6  and  N_26
REMARK    4  A    between atoms: C_8  and  C_9
REMARK    5  A    between atoms: N_11  and  C_12
REMARK    6  A    between atoms: C_12  and  C_13
REMARK    7  A    between atoms: N_17  and  C_19
REMARK                            x       y       z     vdW  Elec       q    Type
REMARK                         _______ _______ _______ _____ _____    ______ ____
ROOT
ATOM      1  C   UNL     1       0.067  -2.830   0.032  0.00  0.00    +0.248 C 
ATOM      2  O   UNL     1      -0.492  -2.287  -0.900  0.00  0.00    -0.270 OA
ATOM      3  N   UNL     1       0.126  -4.175   0.092  0.00  0.00    -0.311 N 
ATOM      4  H   UNL     1       0.572  -4.608   0.837  0.00  0.00    +0.149 HD
ENDROOT
BRANCH   1  10
ATOM      5  C   UNL     1       0.625  -0.617   1.040  0.00  0.00    +0.132 A 
ATOM      6  C   UNL     1       1.202   0.138   2.050  0.00  0.00    +0.048 A 
ATOM      7  C   UNL     1       1.835  -0.488   3.105  0.00  0.00    +0.036 A 
ATOM      8  C   UNL     1       1.900  -1.871   3.164  0.00  0.00    +0.127 A 
ATOM      9  C   UNL     1       1.332  -2.636   2.169  0.00  0.00    +0.049 A 
ATOM     10  C   UNL     1       0.683  -2.016   1.098  0.00  0.00    +0.080 A 
BRANCH   8  11
ATOM     11  N   UNL     1       2.582  -2.529   4.301  0.00  0.00    +0.056 N 
ATOM     12  O   UNL     1       3.082  -1.860   5.175  0.00  0.00    -0.126 OA
ATOM     13  O   UNL     1       2.640  -3.735   4.355  0.00  0.00    -0.126 OA
ENDBRANCH   8  11
BRANCH   5  15
ATOM     14  C   UNL     1      -0.017   1.425   0.010  0.00  0.00    +0.277 C 
ATOM     15  O   UNL     1       0.002  -0.004   0.002  0.00  0.00    -0.494 OA
ENDBRANCH   5  15
ENDBRANCH   1  10
BRANCH   3  16
ATOM     16  C   UNL     1      -0.486  -4.983  -0.966  0.00  0.00    +0.109 C 
BRANCH  16  17
ATOM     17  C   UNL     1      -0.279  -6.467  -0.658  0.00  0.00    +0.025 C 
ATOM     18  C   UNL     1      -1.114  -6.893   0.579  0.00  0.00    +0.025 C 
ATOM     19  C   UNL     1      -1.320  -8.404   0.309  0.00  0.00    +0.105 C 
ATOM     20  N   UNL     1      -1.500  -8.506  -1.150  0.00  0.00    -0.330 N 
ATOM     21  C   UNL     1      -0.857  -7.345  -1.789  0.00  0.00    +0.110 C 
BRANCH  20  22
ATOM     22  C   UNL     1      -2.166  -9.536  -1.819  0.00  0.00    +0.031 A 
ATOM     23  C   UNL     1      -2.261  -9.519  -3.205  0.00  0.00    +0.023 A 
ATOM     24  C   UNL     1      -2.920 -10.539  -3.863  0.00  0.00    +0.003 A 
ATOM     25  C   UNL     1      -3.486 -11.576  -3.144  0.00  0.00    +0.015 A 
ATOM     26  C   UNL     1      -3.393 -11.596  -1.764  0.00  0.00    +0.020 A 
ATOM     27  C   UNL     1      -2.729 -10.582  -1.099  0.00  0.00    +0.038 A 
ATOM     28 BR   UNL     1      -4.167 -13.017  -0.785  0.00  0.00    -0.050 Br
ENDBRANCH  20  22
ENDBRANCH  16  17
ENDBRANCH   3  16
TORSDOF 6
