REMARK  Name = ZINC04019439
REMARK  12 active torsions:
REMARK  status: ('A' for Active; 'I' for Inactive)
REMARK    1  A    between atoms: C_1  and  C_2
REMARK    2  A    between atoms: C_2  and  C_3
REMARK    3  A    between atoms: C_3  and  N_71
REMARK    4  A    between atoms: C_7  and  C_27
REMARK    5  A    between atoms: C_13  and  C_14
REMARK    6  A    between atoms: C_17  and  N_20
REMARK    7  A    between atoms: N_20  and  C_21
REMARK    8  A    between atoms: N_20  and  C_22
REMARK    9  A    between atoms: C_24  and  C_26
REMARK   10  A    between atoms: C_30  and  N_33
REMARK   11  A    between atoms: N_33  and  C_34
REMARK   12  A    between atoms: N_33  and  C_35
REMARK                            x       y       z     vdW  Elec       q    Type
REMARK                         _______ _______ _______ _____ _____    ______ ____
ROOT
ATOM      1  C   UNL     1      -1.831  -0.995  -2.770  0.00  0.00    -0.066 C 
ATOM      2  C   UNL     1      -1.054  -1.729  -1.674  0.00  0.00    +0.050 C 
ATOM      3  C   UNL     1      -0.880  -0.858  -0.417  0.00  0.00    +0.138 C 
ATOM      4  N   UNL     1      -1.141  -1.840   0.661  0.00  0.00    -0.185 N 
ATOM      5  N   UNL     1      -1.874  -2.897   0.107  0.00  0.00    -0.181 NA
ATOM      6  C   UNL     1      -1.995  -2.823  -1.170  0.00  0.00    +0.064 C 
ATOM      7  C   UNL     1      -2.804  -3.557  -2.072  0.00  0.00    -0.040 C 
ATOM      8  C   UNL     1      -3.401  -4.698  -1.670  0.00  0.00    +0.011 C 
ATOM      9  C   UNL     1      -2.994  -3.061  -3.477  0.00  0.00    -0.041 C 
ATOM     10  C   UNL     1      -0.745  -1.735   1.945  0.00  0.00    +0.232 C 
ATOM     11  O   UNL     1      -0.112  -0.765   2.307  0.00  0.00    -0.274 OA
ATOM     12  C   UNL     1      -1.089  -2.821   2.931  0.00  0.00    +0.111 C 
ATOM     13  N   UNL     1      -2.077  -1.965  -3.879  0.00  0.00    +0.383 N 
ATOM     14  H   UNL     1      -1.177  -2.381  -4.147  0.00  0.00    -0.081 HD
ENDROOT
BRANCH   8  15
ATOM     15  C   UNL     1      -4.368  -5.371  -2.551  0.00  0.00    -0.025 A 
ATOM     16  C   UNL     1      -5.323  -4.622  -3.248  0.00  0.00    +0.010 A 
ATOM     17  C   UNL     1      -6.222  -5.255  -4.076  0.00  0.00    +0.023 A 
ATOM     18  C   UNL     1      -6.190  -6.639  -4.211  0.00  0.00    +0.029 A 
ATOM     19  C   UNL     1      -5.247  -7.389  -3.515  0.00  0.00    +0.023 A 
ATOM     20  C   UNL     1      -4.340  -6.763  -2.690  0.00  0.00    +0.010 A 
BRANCH  18  21
ATOM     21  N   UNL     1      -7.106  -7.278  -5.046  0.00  0.00    -0.336 N 
ATOM     22  C   UNL     1      -7.075  -8.735  -5.190  0.00  0.00    +0.129 C 
ATOM     23  C   UNL     1      -8.101  -6.490  -5.780  0.00  0.00    +0.129 C 
ENDBRANCH  18  21
ENDBRANCH   8  15
BRANCH   3  24
ATOM     24  C   UNL     1       0.523  -0.316  -0.325  0.00  0.00    -0.024 A 
ATOM     25  C   UNL     1       0.765   1.019  -0.593  0.00  0.00    +0.007 A 
ATOM     26  C   UNL     1       2.049   1.520  -0.510  0.00  0.00    +0.023 A 
ATOM     27  C   UNL     1       3.098   0.681  -0.156  0.00  0.00    +0.029 A 
ATOM     28  C   UNL     1       2.852  -0.659   0.113  0.00  0.00    +0.023 A 
ATOM     29  C   UNL     1       1.565  -1.153   0.027  0.00  0.00    +0.007 A 
BRANCH  27  30
ATOM     30  N   UNL     1       4.398   1.185  -0.070  0.00  0.00    -0.336 N 
ATOM     31  C   UNL     1       5.503   0.299   0.303  0.00  0.00    +0.129 C 
ATOM     32  C   UNL     1       4.657   2.599  -0.354  0.00  0.00    +0.129 C 
ENDBRANCH  27  30
ENDBRANCH   3  24
BRANCH  13  33
ATOM     33  C   UNL     1      -2.632  -1.262  -5.036  0.00  0.00    -0.079 C 
BRANCH  33  35
ATOM     34  C   UNL     1      -4.493   0.125  -5.960  0.00  0.00    +0.002 C 
ATOM     35  C   UNL     1      -3.970  -0.592  -4.715  0.00  0.00    -0.022 C 
ENDBRANCH  33  35
ENDBRANCH  13  33
TORSDOF 6
