REMARK  Name = ZINC03464095
REMARK  6 active torsions:
REMARK  status: ('A' for Active; 'I' for Inactive)
REMARK    1  A    between atoms: C_1  and  C_2
REMARK    2  A    between atoms: C_2  and  C_3
REMARK    3  A    between atoms: C_3  and  C_25
REMARK    4  A    between atoms: N_6  and  C_10
REMARK    5  A    between atoms: C_10  and  C_11
REMARK    6  A    between atoms: N_13  and  C_14
REMARK                            x       y       z     vdW  Elec       q    Type
REMARK                         _______ _______ _______ _____ _____    ______ ____
ROOT
ATOM      1  C   UNL     1       0.718  -0.497  -1.257  0.00  0.00    +0.138 C 
ATOM      2  C   UNL     1       0.081   0.093  -2.499  0.00  0.00    +0.251 C 
ATOM      3  O   UNL     1      -1.061  -0.057  -2.878  0.00  0.00    -0.272 OA
ATOM      4  N   UNL     1       1.047   0.819  -3.095  0.00  0.00    -0.215 N 
ATOM      5  C   UNL     1       2.195   0.770  -2.408  0.00  0.00    +0.310 C 
ATOM      6  O   UNL     1       3.210   1.345  -2.748  0.00  0.00    -0.252 OA
ATOM      7  N   UNL     1       2.099   0.013  -1.301  0.00  0.00    -0.281 N 
ATOM      8  H   UNL     1       2.803  -0.163  -0.657  0.00  0.00    +0.152 HD
ENDROOT
BRANCH   1   9
ATOM      9  C   UNL     1       0.707  -2.003  -1.315  0.00  0.00    -0.015 A 
ATOM     10  C   UNL     1      -0.340  -2.709  -0.752  0.00  0.00    +0.007 A 
ATOM     11  C   UNL     1      -0.351  -4.090  -0.805  0.00  0.00    +0.020 A 
ATOM     12  C   UNL     1       0.686  -4.766  -1.423  0.00  0.00    +0.041 A 
ATOM     13  C   UNL     1       1.734  -4.059  -1.987  0.00  0.00    +0.020 A 
ATOM     14  C   UNL     1       1.740  -2.678  -1.938  0.00  0.00    +0.007 A 
ATOM     15 CL   UNL     1       0.673  -6.501  -1.490  0.00  0.00    -0.084 Cl
ENDBRANCH   1   9
BRANCH   1  17
ATOM     16  C   UNL     1      -0.019   1.526   0.010  0.00  0.00    +0.007 C 
ATOM     17  C   UNL     1       0.002  -0.004   0.002  0.00  0.00    +0.037 C 
ENDBRANCH   1  17
BRANCH   4  18
ATOM     18  C   UNL     1       0.864   1.569  -4.340  0.00  0.00    +0.213 C 
BRANCH  18  19
ATOM     19  C   UNL     1       0.403   2.967  -4.021  0.00  0.00    +0.231 C 
ATOM     20  O   UNL     1       0.243   3.305  -2.867  0.00  0.00    -0.274 OA
ATOM     21  N   UNL     1       0.169   3.843  -5.018  0.00  0.00    -0.307 N 
ATOM     22  H   UNL     1       0.296   3.573  -5.941  0.00  0.00    +0.149 HD
BRANCH  21  23
ATOM     23  C   UNL     1      -0.280   5.203  -4.708  0.00  0.00    +0.103 C 
ATOM     24  C   UNL     1       0.126   6.139  -5.845  0.00  0.00    +0.027 C 
ATOM     25  C   UNL     1      -0.536   7.502  -5.610  0.00  0.00    +0.007 C 
ATOM     26  C   UNL     1      -2.039   7.353  -5.838  0.00  0.00    +0.035 C 
ATOM     27  C   UNL     1      -2.583   6.194  -5.045  0.00  0.00    -0.042 A 
ATOM     28  C   UNL     1      -1.775   5.205  -4.530  0.00  0.00    -0.024 A 
ATOM     29  C   UNL     1      -2.342   4.159  -3.813  0.00  0.00    +0.006 A 
ATOM     30  C   UNL     1      -3.706   4.106  -3.611  0.00  0.00    +0.000 A 
ATOM     31  C   UNL     1      -4.516   5.101  -4.126  0.00  0.00    +0.000 A 
ATOM     32  C   UNL     1      -3.955   6.139  -4.838  0.00  0.00    +0.004 A 
ENDBRANCH  21  23
ENDBRANCH  18  19
ENDBRANCH   4  18
TORSDOF 5
