REMARK  Name = ZINC44933586
REMARK  7 active torsions:
REMARK  status: ('A' for Active; 'I' for Inactive)
REMARK    1  A    between atoms: C_1  and  C_2
REMARK    2  A    between atoms: C_5  and  C_8
REMARK    3  A    between atoms: C_8  and  C_10
REMARK    4  A    between atoms: C_8  and  N_11
REMARK    5  A    between atoms: C_12  and  C_14
REMARK    6  A    between atoms: N_18  and  S_26
REMARK    7  A    between atoms: S_26  and  C_29
REMARK                            x       y       z     vdW  Elec       q    Type
REMARK                         _______ _______ _______ _____ _____    ______ ____
ROOT
ATOM      1  C   UNL     1       2.460  -6.468   1.999  0.00  0.00    +0.260 C 
ATOM      2  C   UNL     1       1.674  -6.632   3.293  0.00  0.00    +0.075 C 
ATOM      3  C   UNL     1       2.564  -6.966   4.476  0.00  0.00    +0.135 C 
ATOM      4  N   UNL     1       3.218  -8.266   4.272  0.00  0.00    -0.204 N 
ATOM      5  C   UNL     1       4.369  -8.308   3.471  0.00  0.00    +0.092 A 
ATOM      6  C   UNL     1       5.598  -8.641   4.014  0.00  0.00    +0.028 A 
ATOM      7  C   UNL     1       6.720  -8.667   3.204  0.00  0.00    +0.002 A 
ATOM      8  C   UNL     1       6.615  -8.362   1.859  0.00  0.00    +0.004 A 
ATOM      9  C   UNL     1       5.387  -8.032   1.312  0.00  0.00    +0.047 A 
ATOM     10  C   UNL     1       4.262  -8.008   2.117  0.00  0.00    +0.144 A 
ATOM     11  O   UNL     1       3.038  -7.705   1.588  0.00  0.00    -0.478 OA
ENDROOT
BRANCH   1  13
ATOM     12  N   UNL     1       0.959  -4.758   1.029  0.00  0.00    -0.306 N 
ATOM     13  C   UNL     1       1.534  -5.972   0.919  0.00  0.00    +0.254 C 
ATOM     14  O   UNL     1       1.306  -6.665  -0.050  0.00  0.00    -0.272 OA
ATOM     15  H   UNL     1       1.142  -4.204   1.804  0.00  0.00    +0.149 HD
BRANCH  12  16
ATOM     16  C   UNL     1       0.059  -4.275  -0.021  0.00  0.00    +0.100 C 
ATOM     17  C   UNL     1      -1.353  -4.805   0.234  0.00  0.00    +0.033 C 
BRANCH  16  22
ATOM     18  C   UNL     1      -0.018   1.503   0.010  0.00  0.00    +0.044 C 
ATOM     19  C   UNL     1       0.002  -0.004   0.002  0.00  0.00    -0.050 A 
ATOM     20  C   UNL     1       0.006  -0.689  -1.199  0.00  0.00    +0.004 A 
ATOM     21  C   UNL     1       0.025  -2.071  -1.206  0.00  0.00    +0.006 A 
ATOM     22  C   UNL     1       0.040  -2.768  -0.013  0.00  0.00    -0.027 A 
ATOM     23  C   UNL     1       0.037  -2.084   1.188  0.00  0.00    +0.006 A 
ATOM     24  C   UNL     1       0.023  -0.702   1.195  0.00  0.00    +0.004 A 
ENDBRANCH  16  22
ENDBRANCH  12  16
ENDBRANCH   1  13
BRANCH   4  25
ATOM     25  S   UNL     1       2.614  -9.641   4.968  0.00  0.00    +0.043 S 
ATOM     26  O   UNL     1       3.735 -10.505   5.097  0.00  0.00    -0.155 OA
ATOM     27  O   UNL     1       1.913  -9.188   6.119  0.00  0.00    -0.155 OA
ATOM     28  C   UNL     1       1.448 -10.308   3.749  0.00  0.00    +0.218 C 
ENDBRANCH   4  25
TORSDOF 4
