REMARK  Name = ZINC51454218
REMARK  2 active torsions:
REMARK  status: ('A' for Active; 'I' for Inactive)
REMARK    1  A    between atoms: C_4  and  C_7
REMARK    2  A    between atoms: N_19  and  C_20
REMARK                            x       y       z     vdW  Elec       q    Type
REMARK                         _______ _______ _______ _____ _____    ______ ____
ROOT
ATOM      1  C   UNL     1       3.441  -1.119  -0.376  0.00  0.00    +0.155 C 
ATOM      2  C   UNL     1       3.956  -1.881  -1.575  0.00  0.00    +0.044 A 
ATOM      3  C   UNL     1       3.841  -1.545  -2.869  0.00  0.00    +0.025 A 
ATOM      4  C   UNL     1       4.480  -2.553  -3.622  0.00  0.00    +0.019 A 
ATOM      5  C   UNL     1       4.959  -3.467  -2.751  0.00  0.00    +0.086 A 
ATOM      6  N   UNL     1       4.638  -3.065  -1.492  0.00  0.00    -0.347 N 
ATOM      7  C   UNL     1       4.948  -3.761  -0.238  0.00  0.00    +0.140 C 
ATOM      8  C   UNL     1       4.830  -2.776   0.929  0.00  0.00    +0.132 C 
ATOM      9  N   UNL     1       3.584  -2.006   0.794  0.00  0.00    -0.271 N 
ATOM     10  C   UNL     1       2.601  -2.110   1.710  0.00  0.00    +0.307 C 
ATOM     11  O   UNL     1       1.550  -1.521   1.543  0.00  0.00    -0.252 OA
ATOM     12  N   UNL     1       2.783  -2.865   2.811  0.00  0.00    -0.267 N 
ATOM     13  H   UNL     1       3.624  -3.327   2.949  0.00  0.00    +0.156 HD
ENDROOT
BRANCH  12  14
ATOM     14  C   UNL     1       1.756  -2.982   3.759  0.00  0.00    +0.070 A 
ATOM     15  C   UNL     1       0.746  -2.031   3.810  0.00  0.00    +0.029 A 
ATOM     16  C   UNL     1      -0.266  -2.149   4.743  0.00  0.00    +0.040 A 
ATOM     17  C   UNL     1      -0.273  -3.213   5.629  0.00  0.00    +0.126 A 
ATOM     18  C   UNL     1       0.733  -4.163   5.581  0.00  0.00    +0.078 A 
ATOM     19  C   UNL     1       1.744  -4.054   4.644  0.00  0.00    +0.147 A 
ATOM     20  F   UNL     1       2.723  -4.984   4.593  0.00  0.00    -0.203 F 
ATOM     21  F   UNL     1      -1.264  -3.325   6.541  0.00  0.00    -0.205 F 
ENDBRANCH  12  14
BRANCH   1  25
ATOM     22  C   UNL     1      -0.669  -0.107  -0.948  0.00  0.00    +0.000 A 
ATOM     23  C   UNL     1       0.266   0.890  -0.744  0.00  0.00    +0.000 A 
ATOM     24  C   UNL     1       1.596   0.562  -0.558  0.00  0.00    +0.006 A 
ATOM     25  C   UNL     1       1.991  -0.762  -0.577  0.00  0.00    -0.021 A 
ATOM     26  C   UNL     1       1.056  -1.759  -0.780  0.00  0.00    +0.006 A 
ATOM     27  C   UNL     1      -0.274  -1.432  -0.967  0.00  0.00    +0.000 A 
ENDBRANCH   1  25
TORSDOF 2
