REMARK  Name = ZINC12149530
REMARK  8 active torsions:
REMARK  status: ('A' for Active; 'I' for Inactive)
REMARK    1  A    between atoms: C_1  and  C_2
REMARK    2  A    between atoms: C_4  and  C_8
REMARK    3  A    between atoms: C_5  and  C_7
REMARK    4  A    between atoms: C_17  and  C_21
REMARK    5  A    between atoms: C_21  and  N_69
REMARK    6  A    between atoms: C_24  and  O_27
REMARK    7  A    between atoms: O_27  and  C_28
REMARK    8  A    between atoms: C_28  and  C_29
REMARK                            x       y       z     vdW  Elec       q    Type
REMARK                         _______ _______ _______ _____ _____    ______ ____
ROOT
ATOM      1  C   UNL     1      -0.236   2.639   1.871  0.00  0.00    +0.250 C 
ATOM      2  O   UNL     1      -1.025   3.259   2.558  0.00  0.00    -0.270 OA
ATOM      3  N   UNL     1      -0.518   1.376   1.494  0.00  0.00    -0.290 N 
ATOM      4  C   UNL     1      -1.683   0.688   2.058  0.00  0.00    +0.149 C 
ATOM      5  C   UNL     1      -2.707   0.361   0.981  0.00  0.00    +0.248 C 
ATOM      6  O   UNL     1      -2.134  -0.513   0.002  0.00  0.00    -0.490 OA
ATOM      7  C   UNL     1      -1.514   0.093  -1.041  0.00  0.00    +0.125 A 
ATOM      8  C   UNL     1      -2.104   0.100  -2.297  0.00  0.00    +0.046 A 
ATOM      9  C   UNL     1      -1.516   0.805  -3.329  0.00  0.00    +0.005 A 
ATOM     10  C   UNL     1      -0.341   1.502  -3.118  0.00  0.00    -0.063 A 
ATOM     11  C   UNL     1       0.262   1.481  -1.872  0.00  0.00    +0.010 A 
ATOM     12  C   UNL     1      -0.318   0.768  -0.846  0.00  0.00    +0.012 A 
ATOM     13  C   UNL     1       0.341   0.698   0.517  0.00  0.00    +0.147 C 
ENDROOT
BRANCH   1  17
ATOM     14  C   UNL     1       4.019   3.780  -0.703  0.00  0.00    +0.086 C 
ATOM     15  C   UNL     1       2.897   3.757   0.304  0.00  0.00    +0.103 A 
ATOM     16  C   UNL     1       1.848   2.921   0.281  0.00  0.00    +0.057 A 
ATOM     17  C   UNL     1       1.028   3.269   1.450  0.00  0.00    +0.078 A 
ATOM     18  C   UNL     1       1.679   4.300   2.061  0.00  0.00    +0.114 A 
ATOM     19  O   UNL     1       2.789   4.569   1.367  0.00  0.00    -0.464 OA
ATOM     20  C   UNL     1       1.226   5.012   3.310  0.00  0.00    +0.087 C 
ENDBRANCH   1  17
BRANCH  10  21
ATOM     21  C   UNL     1       0.284   2.284  -4.245  0.00  0.00    -0.043 C 
BRANCH  21  27
ATOM     22  C   UNL     1      -1.677   3.670  -4.551  0.00  0.00    -0.076 C 
ATOM     23  C   UNL     1      -2.219   5.092  -4.394  0.00  0.00    +0.013 C 
ATOM     24  C   UNL     1      -1.463   6.029  -5.340  0.00  0.00    +0.115 C 
ATOM     25  C   UNL     1       0.034   5.959  -5.026  0.00  0.00    +0.013 C 
ATOM     26  C   UNL     1       0.512   4.512  -5.165  0.00  0.00    -0.076 C 
ATOM     27  N   UNL     1      -0.238   3.666  -4.211  0.00  0.00    +0.382 N 
ATOM     28  H   UNL     1      -0.118   4.045  -3.265  0.00  0.00    -0.081 HD
BRANCH  24  29
ATOM     29  O   UNL     1      -1.927   7.369  -5.157  0.00  0.00    -0.372 OA
BRANCH  29  30
ATOM     30  C   UNL     1      -3.021   7.726  -6.004  0.00  0.00    +0.195 C 
BRANCH  30  31
ATOM     31  C   UNL     1      -3.426   9.151  -5.728  0.00  0.00    -0.022 A 
ATOM     32  C   UNL     1      -4.386   9.424  -4.771  0.00  0.00    +0.006 A 
ATOM     33  C   UNL     1      -4.753  10.731  -4.514  0.00  0.00    +0.000 A 
ATOM     34  C   UNL     1      -4.169  11.765  -5.221  0.00  0.00    +0.000 A 
ATOM     35  C   UNL     1      -3.214  11.492  -6.182  0.00  0.00    +0.000 A 
ATOM     36  C   UNL     1      -2.842  10.185  -6.435  0.00  0.00    +0.006 A 
ENDBRANCH  30  31
ENDBRANCH  29  30
ENDBRANCH  24  29
ENDBRANCH  21  27
ENDBRANCH  10  21
TORSDOF 6
