REMARK  Name = ZINC04476281
REMARK  2 active torsions:
REMARK  status: ('A' for Active; 'I' for Inactive)
REMARK    1  A    between atoms: C_23  and  C_27
REMARK    2  A    between atoms: C_24  and  N_26
REMARK                            x       y       z     vdW  Elec       q    Type
REMARK                         _______ _______ _______ _____ _____    ______ ____
ROOT
ATOM      1  C   UNL     1       7.108   3.189   3.553  0.00  0.00    +0.001 A 
ATOM      2  C   UNL     1       6.538   3.608   4.747  0.00  0.00    +0.004 A 
ATOM      3  C   UNL     1       5.253   4.109   4.775  0.00  0.00    +0.047 A 
ATOM      4  C   UNL     1       4.518   4.198   3.600  0.00  0.00    +0.143 A 
ATOM      5  C   UNL     1       5.094   3.774   2.392  0.00  0.00    +0.060 A 
ATOM      6  C   UNL     1       6.396   3.269   2.377  0.00  0.00    +0.015 A 
ATOM      7  C   UNL     1       4.303   3.872   1.155  0.00  0.00    +0.152 A 
ATOM      8  C   UNL     1       3.034   4.365   1.239  0.00  0.00    +0.104 A 
ATOM      9  C   UNL     1       2.529   4.772   2.486  0.00  0.00    +0.346 A 
ATOM     10  O   UNL     1       1.396   5.218   2.549  0.00  0.00    -0.245 OA
ATOM     11  O   UNL     1       3.258   4.684   3.609  0.00  0.00    -0.422 OA
ATOM     12  C   UNL     1       2.178   4.473   0.009  0.00  0.00    +0.148 C 
ATOM     13  C   UNL     1       1.112   3.422   0.010  0.00  0.00    +0.001 A 
ATOM     14  C   UNL     1       1.188   2.046   0.002  0.00  0.00    +0.045 A 
ATOM     15  C   UNL     1      -0.016   1.347   0.009  0.00  0.00    +0.124 A 
ATOM     16  C   UNL     1      -1.230   2.008   0.019  0.00  0.00    +0.040 A 
ATOM     17  C   UNL     1      -1.312   3.391   0.032  0.00  0.00    +0.026 A 
ATOM     18  C   UNL     1      -0.111   4.103   0.025  0.00  0.00    +0.038 A 
ATOM     19  N   UNL     1       0.100   5.471   0.031  0.00  0.00    -0.284 N 
ATOM     20  C   UNL     1       1.413   5.780   0.023  0.00  0.00    +0.238 C 
ATOM     21  O   UNL     1       1.892   6.895   0.026  0.00  0.00    -0.274 OA
ATOM     22  F   UNL     1       0.002  -0.004   0.002  0.00  0.00    -0.205 F 
ATOM     23  C   UNL     1       3.019   4.382  -1.232  0.00  0.00    +0.110 C 
ATOM     24  C   UNL     1       4.284   3.896  -1.178  0.00  0.00    +0.199 C 
ATOM     25  O   UNL     1       4.829   3.480  -0.021  0.00  0.00    -0.440 OA
ATOM     26  H   UNL     1      -0.612   6.130   0.040  0.00  0.00    +0.155 HD
ENDROOT
BRANCH  24  27
ATOM     27  N   UNL     1       5.026   3.827  -2.331  0.00  0.00    -0.328 N 
ATOM     28  H   UNL     1       5.932   3.481  -2.305  0.00  0.00    +0.145 HD
ATOM     29  H   UNL     1       4.644   4.125  -3.172  0.00  0.00    +0.145 HD
ENDBRANCH  24  27
BRANCH  23  30
ATOM     30  C   UNL     1       2.479   4.813  -2.486  0.00  0.00    +0.102 C 
ATOM     31  N   UNL     1       2.051   5.155  -3.481  0.00  0.00    -0.191 NA
ENDBRANCH  23  30
TORSDOF 2
