REMARK  Name = ZINC00159209
REMARK  2 active torsions:
REMARK  status: ('A' for Active; 'I' for Inactive)
REMARK    1  A    between atoms: C_5  and  C_7
REMARK    2  A    between atoms: C_7  and  N_8
REMARK                            x       y       z     vdW  Elec       q    Type
REMARK                         _______ _______ _______ _____ _____    ______ ____
ROOT
ATOM      1  N   UNL     1       1.369  -2.680   1.350  0.00  0.00    -0.222 N 
ATOM      2  C   UNL     1       2.535  -2.935   2.008  0.00  0.00    +0.183 A 
ATOM      3  C   UNL     1       2.171  -3.386   3.283  0.00  0.00    +0.162 A 
ATOM      4  C   UNL     1       3.244  -3.738   4.215  0.00  0.00    +0.117 A 
ATOM      5  S   UNL     1       2.897  -4.300   5.794  0.00  0.00    -0.030 S 
ATOM      6  N   UNL     1       4.519  -3.604   3.783  0.00  0.00    -0.338 N 
ATOM      7  C   UNL     1       4.775  -3.157   2.528  0.00  0.00    +0.199 A 
ATOM      8  N   UNL     1       3.834  -2.840   1.686  0.00  0.00    -0.217 NA
ATOM      9  N   UNL     1       0.833  -3.392   3.355  0.00  0.00    -0.125 NA
ATOM     10  N   UNL     1       0.330  -2.978   2.244  0.00  0.00    -0.063 NA
ATOM     11  H   UNL     1       5.255  -3.828   4.374  0.00  0.00    +0.167 HD
ENDROOT
BRANCH   1  12
ATOM     12  C   UNL     1       1.229  -2.186  -0.022  0.00  0.00    +0.184 C 
BRANCH  12  17
ATOM     13  C   UNL     1      -0.017   1.378   0.010  0.00  0.00    +0.000 A 
ATOM     14  C   UNL     1       1.171   2.086   0.002  0.00  0.00    +0.001 A 
ATOM     15  C   UNL     1       2.377   1.412  -0.013  0.00  0.00    +0.020 A 
ATOM     16  C   UNL     1       2.397   0.029  -0.021  0.00  0.00    +0.046 A 
ATOM     17  C   UNL     1       1.208  -0.679  -0.013  0.00  0.00    -0.008 A 
ATOM     18  C   UNL     1       0.002  -0.004   0.002  0.00  0.00    +0.007 A 
ATOM     19 CL   UNL     1       3.912  -0.818  -0.041  0.00  0.00    -0.083 Cl
ENDBRANCH  12  17
ENDBRANCH   1  12
TORSDOF 2
