REMARK  Name = ZINC57554449
REMARK  4 active torsions:
REMARK  status: ('A' for Active; 'I' for Inactive)
REMARK    1  A    between atoms: C_1  and  C_2
REMARK    2  A    between atoms: C_5  and  C_8
REMARK    3  A    between atoms: N_14  and  C_15
REMARK    4  A    between atoms: C_18  and  C_21
REMARK                            x       y       z     vdW  Elec       q    Type
REMARK                         _______ _______ _______ _____ _____    ______ ____
ROOT
ATOM      1  C   UNL     1       0.059  -4.275  -0.021  0.00  0.00    +0.130 C 
ATOM      2  C   UNL     1       1.472  -4.800   0.302  0.00  0.00    +0.133 C 
ATOM      3  N   UNL     1       1.286  -5.573   1.540  0.00  0.00    -0.297 N 
ATOM      4  C   UNL     1      -0.004  -5.524   1.899  0.00  0.00    +0.307 C 
ATOM      5  O   UNL     1      -0.438  -6.080   2.889  0.00  0.00    -0.252 OA
ATOM      6  N   UNL     1      -0.775  -4.808   1.065  0.00  0.00    -0.247 N 
ATOM      7  H   UNL     1       1.986  -6.043   2.019  0.00  0.00    +0.150 HD
ENDROOT
BRANCH   1  12
ATOM      8  C   UNL     1      -0.018   1.503   0.010  0.00  0.00    +0.044 C 
ATOM      9  C   UNL     1       0.002  -0.004   0.002  0.00  0.00    -0.050 A 
ATOM     10  C   UNL     1       0.006  -0.689  -1.199  0.00  0.00    +0.004 A 
ATOM     11  C   UNL     1       0.025  -2.071  -1.206  0.00  0.00    +0.006 A 
ATOM     12  C   UNL     1       0.040  -2.768  -0.013  0.00  0.00    -0.025 A 
ATOM     13  C   UNL     1       0.037  -2.084   1.188  0.00  0.00    +0.006 A 
ATOM     14  C   UNL     1       0.023  -0.702   1.195  0.00  0.00    +0.004 A 
ENDBRANCH   1  12
BRANCH   6  15
ATOM     15  C   UNL     1      -2.152  -4.600   1.207  0.00  0.00    +0.038 A 
ATOM     16  C   UNL     1      -2.841  -3.840   0.271  0.00  0.00    +0.024 A 
ATOM     17  C   UNL     1      -4.199  -3.637   0.413  0.00  0.00    +0.005 A 
ATOM     18  C   UNL     1      -4.874  -4.190   1.486  0.00  0.00    -0.050 A 
ATOM     19  C   UNL     1      -4.191  -4.947   2.420  0.00  0.00    +0.005 A 
ATOM     20  C   UNL     1      -2.833  -5.158   2.281  0.00  0.00    +0.024 A 
ATOM     21  C   UNL     1      -6.357  -3.966   1.638  0.00  0.00    +0.044 C 
ENDBRANCH   6  15
TORSDOF 2
