REMARK  Name = ZINC00877236
REMARK  6 active torsions:
REMARK  status: ('A' for Active; 'I' for Inactive)
REMARK    1  A    between atoms: C_1  and  C_2
REMARK    2  A    between atoms: C_4  and  C_26
REMARK    3  A    between atoms: C_7  and  C_25
REMARK    4  A    between atoms: C_11  and  S_15
REMARK    5  A    between atoms: S_15  and  C_16
REMARK    6  A    between atoms: C_16  and  C_17
REMARK                            x       y       z     vdW  Elec       q    Type
REMARK                         _______ _______ _______ _____ _____    ______ ____
ROOT
ATOM      1  C   UNL     1      -1.336   2.104   0.020  0.00  0.00    +0.044 C 
ATOM      2  C   UNL     1      -0.017   1.375   0.010  0.00  0.00    -0.048 A 
ATOM      3  C   UNL     1       1.167   2.098   0.002  0.00  0.00    +0.007 A 
ATOM      4  C   UNL     1       2.381   1.446  -0.012  0.00  0.00    -0.041 A 
ATOM      5  C   UNL     1       2.416   0.049  -0.021  0.00  0.00    +0.002 A 
ATOM      6  C   UNL     1       3.692  -0.673  -0.038  0.00  0.00    +0.017 A 
ATOM      7  C   UNL     1       3.684  -2.025  -0.045  0.00  0.00    -0.005 A 
ATOM      8  C   UNL     1       2.460  -2.734  -0.037  0.00  0.00    +0.165 A 
ATOM      9  N   UNL     1       2.178  -4.024  -0.042  0.00  0.00    -0.128 NA
ATOM     10  N   UNL     1       0.904  -4.192  -0.030  0.00  0.00    -0.122 NA
ATOM     11  C   UNL     1       0.291  -3.028  -0.018  0.00  0.00    +0.197 A 
ATOM     12  N   UNL     1       1.257  -2.064  -0.022  0.00  0.00    -0.270 N 
ATOM     13  C   UNL     1       1.214  -0.681  -0.013  0.00  0.00    +0.058 A 
ATOM     14  C   UNL     1       0.002  -0.004   0.002  0.00  0.00    +0.030 A 
ATOM     15  C   UNL     1       4.988  -2.782  -0.062  0.00  0.00    +0.047 C 
ATOM     16  C   UNL     1       3.664   2.236  -0.019  0.00  0.00    +0.044 C 
ENDROOT
BRANCH  11  17
ATOM     17  S   UNL     1      -1.450  -2.764   0.001  0.00  0.00    -0.076 S 
BRANCH  17  18
ATOM     18  C   UNL     1      -2.029  -4.479  -0.003  0.00  0.00    +0.173 C 
BRANCH  18  19
ATOM     19  C   UNL     1      -3.536  -4.500   0.011  0.00  0.00    +0.229 C 
ATOM     20  O   UNL     1      -4.157  -3.459   0.023  0.00  0.00    -0.275 OA
ATOM     21  N   UNL     1      -4.193  -5.677   0.011  0.00  0.00    -0.264 N 
ATOM     22  C   UNL     1      -5.583  -5.697   0.024  0.00  0.00    +0.164 A 
ATOM     23  N   UNL     1      -6.426  -4.684   0.044  0.00  0.00    -0.233 NA
ATOM     24  C   UNL     1      -7.730  -4.879   0.050  0.00  0.00    +0.120 A 
ATOM     25  C   UNL     1      -8.192  -6.154   0.047  0.00  0.00    +0.068 A 
ATOM     26  S   UNL     1      -6.654  -7.064   0.027  0.00  0.00    -0.061 S 
ATOM     27  H   UNL     1      -3.696  -6.510   0.001  0.00  0.00    +0.157 HD
ENDBRANCH  18  19
ENDBRANCH  17  18
ENDBRANCH  11  17
TORSDOF 3
