REMARK  Name = ZINC40036307
REMARK  10 active torsions:
REMARK  status: ('A' for Active; 'I' for Inactive)
REMARK    1  A    between atoms: C_1  and  C_2
REMARK    2  A    between atoms: C_2  and  C_3
REMARK    3  A    between atoms: C_3  and  C_4
REMARK    4  A    between atoms: C_4  and  C_32
REMARK    5  A    between atoms: N_16  and  C_30
REMARK    6  A    between atoms: N_19  and  N_20
REMARK    7  A    between atoms: C_21  and  C_22
REMARK    8  A    between atoms: C_25  and  C_28
REMARK    9  A    between atoms: C_28  and  C_29
REMARK   10  A    between atoms: C_30  and  C_31
REMARK                            x       y       z     vdW  Elec       q    Type
REMARK                         _______ _______ _______ _____ _____    ______ ____
ROOT
ATOM      1  C   UNL     1       0.739  -2.027  -1.265  0.00  0.00    +0.004 C 
ATOM      2  C   UNL     1       1.543  -2.411  -2.505  0.00  0.00    +0.047 C 
ATOM      3  C   UNL     1       0.756  -2.125  -3.755  0.00  0.00    -0.037 A 
ATOM      4  C   UNL     1       1.394  -1.686  -4.897  0.00  0.00    +0.004 A 
ATOM      5  C   UNL     1       0.663  -1.429  -6.044  0.00  0.00    +0.000 A 
ATOM      6  C   UNL     1      -0.708  -1.611  -6.056  0.00  0.00    +0.001 A 
ATOM      7  C   UNL     1      -1.358  -2.049  -4.919  0.00  0.00    +0.010 A 
ATOM      8  C   UNL     1      -0.627  -2.306  -3.763  0.00  0.00    +0.004 A 
ATOM      9  C   UNL     1      -1.298  -2.767  -2.526  0.00  0.00    +0.084 A 
ATOM     10  C   UNL     1      -0.634  -2.636  -1.315  0.00  0.00    +0.049 A 
ATOM     11  C   UNL     1      -1.266  -3.081  -0.147  0.00  0.00    +0.260 A 
ATOM     12  O   UNL     1      -0.713  -2.984   0.937  0.00  0.00    -0.267 OA
ATOM     13  N   UNL     1      -2.502  -3.618  -0.245  0.00  0.00    -0.280 N 
ATOM     14  C   UNL     1      -3.112  -3.718  -1.459  0.00  0.00    +0.219 A 
ATOM     15  N   UNL     1      -2.522  -3.303  -2.562  0.00  0.00    -0.214 NA
ATOM     16  N   UNL     1      -4.368  -4.262  -1.534  0.00  0.00    -0.206 N 
ATOM     17  C   UNL     1       1.468  -2.529  -0.017  0.00  0.00    +0.017 C 
ATOM     18  H   UNL     1      -4.811  -4.572  -0.729  0.00  0.00    +0.177 HD
ENDROOT
BRANCH  16  19
ATOM     19  N   UNL     1      -5.010  -4.372  -2.775  0.00  0.00    -0.188 NA
ATOM     20  C   UNL     1      -6.199  -4.888  -2.846  0.00  0.00    +0.138 C 
BRANCH  20  21
ATOM     21  C   UNL     1      -6.875  -5.003  -4.152  0.00  0.00    -0.005 A 
ATOM     22  C   UNL     1      -6.236  -4.564  -5.314  0.00  0.00    +0.010 A 
ATOM     23  C   UNL     1      -6.875  -4.675  -6.532  0.00  0.00    +0.004 A 
ATOM     24  C   UNL     1      -8.144  -5.220  -6.604  0.00  0.00    -0.048 A 
ATOM     25  C   UNL     1      -8.783  -5.657  -5.457  0.00  0.00    +0.004 A 
ATOM     26  C   UNL     1      -8.154  -5.558  -4.233  0.00  0.00    +0.010 A 
BRANCH  24  27
ATOM     27  C   UNL     1      -8.835  -5.338  -7.938  0.00  0.00    +0.032 C 
ATOM     28  C   UNL     1      -8.496  -6.690  -8.570  0.00  0.00    +0.009 C 
ENDBRANCH  24  27
ENDBRANCH  20  21
ENDBRANCH  16  19
BRANCH  13  29
ATOM     29  C   UNL     1      -3.188  -4.095   0.958  0.00  0.00    +0.125 C 
ATOM     30  C   UNL     1      -4.010  -2.955   1.562  0.00  0.00    +0.027 C 
ENDBRANCH  13  29
BRANCH   1  31
ATOM     31  C   UNL     1       0.613  -0.504  -1.198  0.00  0.00    +0.011 C 
BRANCH  31  33
ATOM     32  C   UNL     1      -0.294   1.411   0.126  0.00  0.00    +0.004 C 
ATOM     33  C   UNL     1      -0.168  -0.112   0.058  0.00  0.00    -0.003 C 
ENDBRANCH  31  33
ENDBRANCH   1  31
TORSDOF 6
