REMARK  Name = ZINC20611163
REMARK  8 active torsions:
REMARK  status: ('A' for Active; 'I' for Inactive)
REMARK    1  A    between atoms: C_1  and  C_2
REMARK    2  A    between atoms: C_5  and  O_9
REMARK    3  A    between atoms: C_6  and  C_8
REMARK    4  A    between atoms: O_9  and  C_10
REMARK    5  A    between atoms: C_10  and  C_11
REMARK    6  A    between atoms: N_13  and  C_14
REMARK    7  A    between atoms: C_19  and  C_20
REMARK    8  A    between atoms: N_22  and  C_24
REMARK                            x       y       z     vdW  Elec       q    Type
REMARK                         _______ _______ _______ _____ _____    ______ ____
ROOT
ATOM      1  C   UNL     1      -2.364   1.110  -0.074  0.00  0.00    +0.039 A 
ATOM      2  C   UNL     1      -2.280  -0.253  -0.078  0.00  0.00    +0.055 A 
ATOM      3  C   UNL     1      -3.455  -1.017  -0.165  0.00  0.00    +0.115 A 
ATOM      4  C   UNL     1      -4.748  -0.323  -0.260  0.00  0.00    +0.114 A 
ATOM      5  C   UNL     1      -4.766   1.083  -0.255  0.00  0.00    +0.037 A 
ATOM      6  C   UNL     1      -3.597   1.768  -0.164  0.00  0.00    -0.027 A 
ATOM      7  C   UNL     1      -3.627   3.275  -0.161  0.00  0.00    +0.046 C 
ATOM      8  N   UNL     1      -5.647  -1.292  -0.331  0.00  0.00    -0.147 NA
ATOM      9  N   UNL     1      -5.039  -2.427  -0.290  0.00  0.00    -0.149 N 
ATOM     10  N   UNL     1      -3.761  -2.305  -0.193  0.00  0.00    -0.147 NA
ENDROOT
BRANCH   9  11
ATOM     11  C   UNL     1      -5.699  -3.661  -0.344  0.00  0.00    +0.086 A 
ATOM     12  C   UNL     1      -7.083  -3.707  -0.443  0.00  0.00    +0.032 A 
ATOM     13  C   UNL     1      -7.731  -4.925  -0.503  0.00  0.00    +0.040 A 
ATOM     14  C   UNL     1      -7.001  -6.101  -0.452  0.00  0.00    +0.124 A 
ATOM     15  C   UNL     1      -5.621  -6.058  -0.348  0.00  0.00    +0.040 A 
ATOM     16  C   UNL     1      -4.969  -4.842  -0.294  0.00  0.00    +0.032 A 
ATOM     17  F   UNL     1      -7.637  -7.292  -0.504  0.00  0.00    -0.205 F 
ENDBRANCH   9  11
BRANCH   1  20
ATOM     18  C   UNL     1      -0.091   1.338   0.590  0.00  0.00    +0.255 C 
ATOM     19  O   UNL     1      -0.145   0.246   1.115  0.00  0.00    -0.272 OA
ATOM     20  N   UNL     1      -1.191   1.867   0.018  0.00  0.00    -0.282 N 
ATOM     21  H   UNL     1      -1.166   2.893  -0.377  0.00  0.00    +0.155 HD
BRANCH  18  22
ATOM     22  C   UNL     1       1.209   2.101   0.572  0.00  0.00    +0.324 C 
BRANCH  22  23
ATOM     23  O   UNL     1       2.220   1.335   1.230  0.00  0.00    -0.483 OA
BRANCH  23  28
ATOM     24  C   UNL     1       7.364   3.611   1.526  0.00  0.00    +0.044 C 
ATOM     25  C   UNL     1       5.987   3.002   1.447  0.00  0.00    -0.050 A 
ATOM     26  C   UNL     1       4.963   3.690   0.823  0.00  0.00    +0.007 A 
ATOM     27  C   UNL     1       3.701   3.135   0.749  0.00  0.00    +0.046 A 
ATOM     28  C   UNL     1       3.461   1.884   1.301  0.00  0.00    +0.124 A 
ATOM     29  C   UNL     1       4.489   1.198   1.931  0.00  0.00    -0.009 A 
ATOM     30  C   UNL     1       5.751   1.757   1.998  0.00  0.00    +0.010 A 
ATOM     31  C   UNL     1       4.231  -0.157   2.538  0.00  0.00    +0.047 C 
ENDBRANCH  23  28
ENDBRANCH  22  23
ENDBRANCH  18  22
ENDBRANCH   1  20
TORSDOF 5
