REMARK  Name = ZINC64108167
REMARK  3 active torsions:
REMARK  status: ('A' for Active; 'I' for Inactive)
REMARK    1  A    between atoms: C_1  and  C_2
REMARK    2  A    between atoms: C_5  and  C_9
REMARK    3  A    between atoms: C_7  and  C_8
REMARK                            x       y       z     vdW  Elec       q    Type
REMARK                         _______ _______ _______ _____ _____    ______ ____
ROOT
ATOM      1  C   UNL     1       0.059  -4.275  -0.021  0.00  0.00    +0.191 C 
ATOM      2  C   UNL     1       1.465  -4.757  -0.276  0.00  0.00    +0.261 C 
ATOM      3  O   UNL     1       2.216  -4.972   0.655  0.00  0.00    -0.271 OA
ATOM      4  N   UNL     1       1.878  -4.946  -1.528  0.00  0.00    -0.162 NA
ATOM      5  C   UNL     1       1.038  -4.791  -2.537  0.00  0.00    +0.143 C 
ATOM      6  C   UNL     1       1.528  -4.814  -3.923  0.00  0.00    +0.035 A 
ATOM      7  C   UNL     1       2.860  -5.094  -4.227  0.00  0.00    +0.013 A 
ATOM      8  C   UNL     1       3.267  -5.106  -5.544  0.00  0.00    +0.001 A 
ATOM      9  C   UNL     1       2.362  -4.841  -6.561  0.00  0.00    +0.002 A 
ATOM     10  C   UNL     1       1.041  -4.561  -6.274  0.00  0.00    +0.024 A 
ATOM     11  C   UNL     1       0.612  -4.543  -4.956  0.00  0.00    +0.043 A 
ATOM     12  N   UNL     1      -0.704  -4.259  -4.624  0.00  0.00    -0.295 N 
ATOM     13  C   UNL     1      -1.116  -4.283  -3.347  0.00  0.00    +0.157 C 
ATOM     14  S   UNL     1      -2.748  -3.897  -3.005  0.00  0.00    -0.017 S 
ATOM     15  N   UNL     1      -0.301  -4.598  -2.322  0.00  0.00    -0.199 N 
ATOM     16  N   UNL     1      -0.831  -4.768  -1.076  0.00  0.00    -0.216 NA
ATOM     17  H   UNL     1      -1.336  -4.039  -5.326  0.00  0.00    +0.154 HD
ATOM     18  H   UNL     1      -1.079  -5.733  -0.917  0.00  0.00    +0.146 HD
ENDROOT
BRANCH   1  23
ATOM     19  C   UNL     1      -0.018   1.503   0.010  0.00  0.00    +0.044 C 
ATOM     20  C   UNL     1       0.002  -0.004   0.002  0.00  0.00    -0.048 A 
ATOM     21  C   UNL     1       0.006  -0.689  -1.199  0.00  0.00    +0.004 A 
ATOM     22  C   UNL     1       0.025  -2.071  -1.207  0.00  0.00    +0.006 A 
ATOM     23  C   UNL     1       0.040  -2.768  -0.013  0.00  0.00    -0.020 A 
ATOM     24  C   UNL     1       0.037  -2.084   1.188  0.00  0.00    +0.009 A 
ATOM     25  C   UNL     1       0.023  -0.702   1.195  0.00  0.00    -0.047 A 
ATOM     26  C   UNL     1       0.025   0.045   2.504  0.00  0.00    +0.044 C 
ENDBRANCH   1  23
TORSDOF 1
