REMARK  Name = ZINC19925241
REMARK  3 active torsions:
REMARK  status: ('A' for Active; 'I' for Inactive)
REMARK    1  A    between atoms: C_6  and  C_10
REMARK    2  A    between atoms: N_12  and  N_13
REMARK    3  A    between atoms: C_14  and  C_15
REMARK                            x       y       z     vdW  Elec       q    Type
REMARK                         _______ _______ _______ _____ _____    ______ ____
ROOT
ATOM      1  C   UNL     1       2.289   6.573   0.015  0.00  0.00    +0.283 C 
ATOM      2  O   UNL     1       3.505   6.596   0.004  0.00  0.00    -0.267 OA
ATOM      3  N   UNL     1       1.593   7.727   0.028  0.00  0.00    -0.202 N 
ATOM      4  H   UNL     1       0.493   7.706   0.039  0.00  0.00    +0.178 HD
ENDROOT
BRANCH   1  10
ATOM      5  C   UNL     1      -1.241   1.758   0.018  0.00  0.00    +0.005 A 
ATOM      6  C   UNL     1      -0.013   1.076   0.008  0.00  0.00    +0.018 A 
ATOM      7  C   UNL     1       1.148   1.762   0.001  0.00  0.00    +0.093 A 
ATOM      8  N   UNL     1       1.149   3.129   0.008  0.00  0.00    -0.306 N 
ATOM      9  C   UNL     1       2.157   4.045   0.003  0.00  0.00    +0.125 A 
ATOM     10  C   UNL     1       1.576   5.282   0.015  0.00  0.00    +0.146 A 
ATOM     11  N   UNL     1       0.240   5.117   0.027  0.00  0.00    -0.223 NA
ATOM     12  C   UNL     1      -0.035   3.824   0.023  0.00  0.00    +0.138 A 
ATOM     13  C   UNL     1      -1.257   3.117   0.031  0.00  0.00    +0.047 A 
ENDBRANCH   1  10
BRANCH   3  14
ATOM     14  N   UNL     1       2.270   8.954   0.029  0.00  0.00    -0.187 NA
ATOM     15  C   UNL     1       1.600  10.065   0.042  0.00  0.00    +0.138 C 
BRANCH  15  16
ATOM     16  C   UNL     1       2.313  11.356   0.042  0.00  0.00    -0.005 A 
ATOM     17  C   UNL     1       3.710  11.386   0.035  0.00  0.00    +0.011 A 
ATOM     18  C   UNL     1       4.370  12.597   0.031  0.00  0.00    +0.020 A 
ATOM     19  C   UNL     1       3.652  13.781   0.045  0.00  0.00    +0.041 A 
ATOM     20  C   UNL     1       2.267  13.758   0.057  0.00  0.00    +0.020 A 
ATOM     21  C   UNL     1       1.595  12.554   0.056  0.00  0.00    +0.011 A 
ATOM     22 CL   UNL     1       4.491  15.300   0.047  0.00  0.00    -0.084 Cl
ENDBRANCH  15  16
ENDBRANCH   3  14
TORSDOF 3
