REMARK  Name = ZINC63503033
REMARK  1 active torsions:
REMARK  status: ('A' for Active; 'I' for Inactive)
REMARK    1  A    between atoms: N_4  and  C_6
REMARK                            x       y       z     vdW  Elec       q    Type
REMARK                         _______ _______ _______ _____ _____    ______ ____
ROOT
ATOM      1  C   UNL     1       1.743  -1.732  -0.024  0.00  0.00    +0.078 C 
ATOM      2  C   UNL     1       2.446  -2.364   0.970  0.00  0.00    +0.123 C 
ATOM      3  C   UNL     1       3.024  -1.878   2.169  0.00  0.00    +0.301 C 
ATOM      4  O   UNL     1       2.962  -0.702   2.483  0.00  0.00    -0.265 OA
ATOM      5  N   UNL     1       3.648  -2.792   2.946  0.00  0.00    -0.078 NA
ATOM      6  N   UNL     1       3.889  -3.951   2.634  0.00  0.00    -0.175 NA
ATOM      7  C   UNL     1       3.597  -4.560   1.330  0.00  0.00    +0.272 C 
ATOM      8  N   UNL     1       2.585  -3.749   0.669  0.00  0.00    -0.287 N 
ATOM      9  C   UNL     1       1.532  -4.014  -0.280  0.00  0.00    +0.166 C 
ATOM     10  C   UNL     1       1.528  -2.717  -1.110  0.00  0.00    +0.009 C 
ATOM     11  C   UNL     1       1.291  -2.886  -2.395  0.00  0.00    -0.049 C 
ATOM     12  C   UNL     1       0.635  -1.808  -3.260  0.00  0.00    +0.032 C 
ATOM     13  C   UNL     1      -0.506  -2.468  -4.040  0.00  0.00    +0.004 C 
ATOM     14  C   UNL     1       0.026  -3.684  -4.799  0.00  0.00    +0.002 C 
ATOM     15  C   UNL     1       0.492  -4.754  -3.810  0.00  0.00    +0.018 C 
ATOM     16  C   UNL     1       1.687  -4.223  -3.014  0.00  0.00    +0.075 C 
ATOM     17  S   UNL     1       1.915  -5.302  -1.512  0.00  0.00    -0.126 S 
ENDROOT
BRANCH   1  21
ATOM     18  C   UNL     1      -0.016   1.343   0.009  0.00  0.00    +0.019 A 
ATOM     19  C   UNL     1       1.323   1.786  -0.001  0.00  0.00    +0.019 A 
ATOM     20  C   UNL     1       2.111   0.693  -0.014  0.00  0.00    +0.091 A 
ATOM     21  N   UNL     1       1.307  -0.413  -0.013  0.00  0.00    -0.321 N 
ATOM     22  C   UNL     1       0.002  -0.004   0.002  0.00  0.00    +0.091 A 
ENDBRANCH   1  21
TORSDOF 1
