REMARK  Name = ZINC30471014
REMARK  6 active torsions:
REMARK  status: ('A' for Active; 'I' for Inactive)
REMARK    1  A    between atoms: C_1  and  C_2
REMARK    2  A    between atoms: C_16  and  C_17
REMARK    3  A    between atoms: N_19  and  C_20
REMARK    4  A    between atoms: N_19  and  C_26
REMARK    5  A    between atoms: C_20  and  C_21
REMARK    6  A    between atoms: C_26  and  C_27
REMARK                            x       y       z     vdW  Elec       q    Type
REMARK                         _______ _______ _______ _____ _____    ______ ____
ROOT
ATOM      1  C   UNL     1       1.611   6.087  -3.804  0.00  0.00    +0.046 C 
ATOM      2  C   UNL     1       1.917   4.734  -4.394  0.00  0.00    -0.017 A 
ATOM      3  C   UNL     1       1.559   3.574  -3.704  0.00  0.00    +0.076 A 
ATOM      4  C   UNL     1       1.890   2.354  -4.337  0.00  0.00    +0.116 A 
ATOM      5  N   UNL     1       1.609   1.180  -3.788  0.00  0.00    -0.226 NA
ATOM      6  C   UNL     1       1.011   1.089  -2.633  0.00  0.00    +0.114 A 
ATOM      7  N   UNL     1       0.642   2.197  -1.927  0.00  0.00    -0.296 N 
ATOM      8  C   UNL     1       0.879   3.434  -2.396  0.00  0.00    +0.263 A 
ATOM      9  O   UNL     1       0.541   4.417  -1.760  0.00  0.00    -0.267 OA
ATOM     10  C   UNL     1      -0.023   2.006  -0.632  0.00  0.00    +0.126 C 
ATOM     11  C   UNL     1      -1.458   1.540  -0.868  0.00  0.00    +0.022 C 
ATOM     12  C   UNL     1      -1.536   0.024  -0.941  0.00  0.00    +0.002 C 
ATOM     13  C   UNL     1      -0.795  -0.531  -2.144  0.00  0.00    +0.008 C 
ATOM     14  C   UNL     1       0.706  -0.266  -2.037  0.00  0.00    +0.074 C 
ATOM     15  S   UNL     1       2.670   2.877  -5.844  0.00  0.00    -0.064 S 
ATOM     16  C   UNL     1       2.543   4.641  -5.602  0.00  0.00    +0.080 A 
ENDROOT
BRANCH  16  17
ATOM     17  C   UNL     1       3.000   5.720  -6.482  0.00  0.00    +0.254 C 
ATOM     18  O   UNL     1       2.725   6.877  -6.220  0.00  0.00    -0.269 OA
ATOM     19  N   UNL     1       3.724   5.433  -7.582  0.00  0.00    -0.282 N 
BRANCH  19  20
ATOM     20  C   UNL     1       4.270   6.516  -8.403  0.00  0.00    +0.182 C 
BRANCH  20  21
ATOM     21  C   UNL     1       5.644   6.882  -7.902  0.00  0.00    +0.122 A 
ATOM     22  C   UNL     1       6.803   6.339  -8.315  0.00  0.00    +0.046 A 
ATOM     23  C   UNL     1       7.835   6.973  -7.587  0.00  0.00    +0.041 A 
ATOM     24  C   UNL     1       7.245   7.866  -6.772  0.00  0.00    +0.195 A 
ATOM     25  O   UNL     1       5.918   7.811  -6.972  0.00  0.00    -0.466 OA
ENDBRANCH  20  21
ENDBRANCH  19  20
BRANCH  19  26
ATOM     26  C   UNL     1       3.965   4.037  -7.955  0.00  0.00    +0.182 C 
BRANCH  26  27
ATOM     27  C   UNL     1       2.792   3.519  -8.748  0.00  0.00    +0.122 A 
ATOM     28  C   UNL     1       2.658   3.579 -10.085  0.00  0.00    +0.046 A 
ATOM     29  C   UNL     1       1.416   2.981 -10.399  0.00  0.00    +0.041 A 
ATOM     30  C   UNL     1       0.865   2.592  -9.236  0.00  0.00    +0.195 A 
ATOM     31  O   UNL     1       1.706   2.915  -8.239  0.00  0.00    -0.466 OA
ENDBRANCH  26  27
ENDBRANCH  19  26
ENDBRANCH  16  17
TORSDOF 5
