REMARK  Name = ZINC27639987
REMARK  5 active torsions:
REMARK  status: ('A' for Active; 'I' for Inactive)
REMARK    1  A    between atoms: C_1  and  N_2
REMARK    2  A    between atoms: C_8  and  C_14
REMARK    3  A    between atoms: N_16  and  C_17
REMARK    4  A    between atoms: C_20  and  O_23
REMARK    5  A    between atoms: O_23  and  C_24
REMARK                            x       y       z     vdW  Elec       q    Type
REMARK                         _______ _______ _______ _____ _____    ______ ____
ROOT
ATOM      1  C   UNL     1      -2.494   1.003   0.017  0.00  0.00    +0.248 C 
ATOM      2  O   UNL     1      -2.478  -0.212   0.002  0.00  0.00    -0.270 OA
ATOM      3  N   UNL     1      -3.669   1.662   0.028  0.00  0.00    -0.281 N 
ATOM      4  H   UNL     1      -3.685   2.758   0.119  0.00  0.00    +0.155 HD
ENDROOT
BRANCH   1  12
ATOM      5  C   UNL     1       4.857   3.892   0.009  0.00  0.00    +0.154 C 
ATOM      6  N   UNL     1       3.559   3.212   0.011  0.00  0.00    -0.290 N 
ATOM      7  C   UNL     1       2.420   3.941   0.029  0.00  0.00    +0.262 A 
ATOM      8  O   UNL     1       2.450   5.158   0.042  0.00  0.00    -0.267 OA
ATOM      9  C   UNL     1       1.143   3.210   0.030  0.00  0.00    +0.065 A 
ATOM     10  C   UNL     1      -0.083   3.876   0.046  0.00  0.00    +0.016 A 
ATOM     11  C   UNL     1      -1.245   3.160   0.046  0.00  0.00    +0.014 A 
ATOM     12  C   UNL     1      -1.221   1.760   0.024  0.00  0.00    +0.039 A 
ATOM     13  C   UNL     1      -0.013   1.076   0.012  0.00  0.00    +0.041 A 
ATOM     14  C   UNL     1       1.185   1.798   0.012  0.00  0.00    +0.080 A 
ATOM     15  N   UNL     1       2.386   1.173  -0.004  0.00  0.00    -0.222 NA
ATOM     16  C   UNL     1       3.509   1.847  -0.004  0.00  0.00    +0.183 A 
ATOM     17  S   UNL     1       5.027   0.952  -0.027  0.00  0.00    -0.011 S 
ENDBRANCH   1  12
BRANCH   3  18
ATOM     18  C   UNL     1      -4.871   0.951  -0.075  0.00  0.00    +0.034 A 
ATOM     19  C   UNL     1      -5.947   1.501  -0.759  0.00  0.00    +0.027 A 
ATOM     20  C   UNL     1      -7.130   0.797  -0.866  0.00  0.00    +0.048 A 
ATOM     21  C   UNL     1      -7.247  -0.455  -0.281  0.00  0.00    +0.130 A 
ATOM     22  C   UNL     1      -6.175  -1.004   0.407  0.00  0.00    +0.048 A 
ATOM     23  C   UNL     1      -4.989  -0.303   0.510  0.00  0.00    +0.027 A 
BRANCH  21  24
ATOM     24  O   UNL     1      -8.415  -1.145  -0.381  0.00  0.00    -0.406 OA
BRANCH  24  25
ATOM     25  C   UNL     1      -9.478  -0.521  -1.103  0.00  0.00    +0.575 C 
ATOM     26  F   UNL     1      -9.069  -0.280  -2.420  0.00  0.00    -0.133 F 
ATOM     27  F   UNL     1     -10.595  -1.363  -1.109  0.00  0.00    -0.133 F 
ATOM     28  F   UNL     1      -9.810   0.691  -0.489  0.00  0.00    -0.133 F 
ENDBRANCH  24  25
ENDBRANCH  21  24
ENDBRANCH   3  18
TORSDOF 4
