REMARK  Name = ZINC49023659
REMARK  6 active torsions:
REMARK  status: ('A' for Active; 'I' for Inactive)
REMARK    1  A    between atoms: C_1  and  C_2
REMARK    2  A    between atoms: C_2  and  C_4
REMARK    3  A    between atoms: C_2  and  C_20
REMARK    4  A    between atoms: C_4  and  N_5
REMARK    5  A    between atoms: N_5  and  C_6
REMARK    6  A    between atoms: N_9  and  C_10
REMARK                            x       y       z     vdW  Elec       q    Type
REMARK                         _______ _______ _______ _____ _____    ______ ____
ROOT
ATOM      1  N   UNL     1       2.145  -0.097   1.157  0.00  0.00    -0.287 N 
ATOM      2  C   UNL     1       2.564   1.186   1.726  0.00  0.00    +0.133 C 
ATOM      3  C   UNL     1       3.053  -0.905   0.575  0.00  0.00    +0.306 C 
ATOM      4  O   UNL     1       2.704  -1.970   0.103  0.00  0.00    -0.252 OA
ATOM      5  N   UNL     1       4.346  -0.533   0.515  0.00  0.00    -0.269 N 
ATOM      6  H   UNL     1       4.614   0.344   0.833  0.00  0.00    +0.156 HD
ENDROOT
BRANCH   5   7
ATOM      7  C   UNL     1       5.302  -1.409  -0.004  0.00  0.00    +0.043 A 
ATOM      8  C   UNL     1       4.980  -2.257  -1.042  0.00  0.00    +0.024 A 
ATOM      9  C   UNL     1       5.926  -3.134  -1.566  0.00  0.00    +0.002 A 
ATOM     10  C   UNL     1       7.194  -3.181  -1.071  0.00  0.00    +0.010 A 
ATOM     11  C   UNL     1       7.562  -2.334  -0.014  0.00  0.00    +0.002 A 
ATOM     12  C   UNL     1       6.607  -1.433   0.524  0.00  0.00    +0.006 A 
ATOM     13  C   UNL     1       7.005  -0.593   1.578  0.00  0.00    +0.030 A 
ATOM     14  C   UNL     1       8.286  -0.676   2.033  0.00  0.00    +0.111 A 
ATOM     15  N   UNL     1       9.161  -1.523   1.509  0.00  0.00    -0.263 NA
ATOM     16  C   UNL     1       8.857  -2.344   0.531  0.00  0.00    +0.119 A 
ENDBRANCH   5   7
BRANCH   1  17
ATOM     17  C   UNL     1       0.738  -0.502   1.222  0.00  0.00    +0.127 C 
BRANCH  17  19
ATOM     18  C   UNL     1      -0.013   1.528  -0.025  0.00  0.00    +0.025 C 
ATOM     19  C   UNL     1       0.006  -0.001  -0.024  0.00  0.00    +0.106 C 
BRANCH  19  20
ATOM     20  C   UNL     1      -1.376  -0.509  -0.019  0.00  0.00    +0.067 C 
ATOM     21  N   UNL     1      -2.442  -0.901  -0.014  0.00  0.00    -0.196 NA
ENDBRANCH  19  20
ENDBRANCH  17  19
ENDBRANCH   1  17
TORSDOF 4
