REMARK  Name = ZINC04126356
REMARK  6 active torsions:
REMARK  status: ('A' for Active; 'I' for Inactive)
REMARK    1  A    between atoms: C_1  and  C_2
REMARK    2  A    between atoms: C_4  and  N_24
REMARK    3  A    between atoms: C_7  and  N_8
REMARK    4  A    between atoms: N_8  and  C_9
REMARK    5  A    between atoms: C_9  and  C_10
REMARK    6  A    between atoms: C_14  and  C_23
REMARK                            x       y       z     vdW  Elec       q    Type
REMARK                         _______ _______ _______ _____ _____    ______ ____
ROOT
ATOM      1  C   UNL     1       3.852  -0.837  -0.036  0.00  0.00    +0.034 A 
ATOM      2  C   UNL     1       4.472  -1.149   1.129  0.00  0.00    +0.020 A 
ATOM      3  C   UNL     1       5.858  -1.618   1.079  0.00  0.00    -0.001 A 
ATOM      4  C   UNL     1       6.548  -1.962   2.247  0.00  0.00    +0.014 A 
ATOM      5  C   UNL     1       7.842  -2.390   2.168  0.00  0.00    -0.031 A 
ATOM      6  C   UNL     1       8.480  -2.490   0.937  0.00  0.00    +0.046 A 
ATOM      7  C   UNL     1       7.819  -2.157  -0.227  0.00  0.00    +0.046 A 
ATOM      8  C   UNL     1       6.500  -1.717  -0.170  0.00  0.00    +0.051 A 
ATOM      9  N   UNL     1       5.816  -1.378  -1.317  0.00  0.00    -0.322 N 
ATOM     10  H   UNL     1       6.274  -1.449  -2.203  0.00  0.00    +0.169 HD
ATOM     11  C   UNL     1       4.541  -0.954  -1.262  0.00  0.00    +0.254 A 
ATOM     12  O   UNL     1       3.966  -0.663  -2.297  0.00  0.00    -0.268 OA
ATOM     13 CL   UNL     1      10.125  -3.038   0.864  0.00  0.00    -0.083 Cl
ATOM     14  C   UNL     1       8.584  -2.760   3.426  0.00  0.00    +0.045 C 
ENDROOT
BRANCH   1  15
ATOM     15  C   UNL     1       2.424  -0.357  -0.021  0.00  0.00    +0.142 C 
BRANCH  15  16
ATOM     16  N   UNL     1       2.401   1.108  -0.014  0.00  0.00    -0.339 N 
ATOM     17  H   UNL     1       3.233   1.606  -0.019  0.00  0.00    +0.146 HD
BRANCH  16  24
ATOM     18  C   UNL     1       2.449   3.953  -0.000  0.00  0.00    +0.046 C 
ATOM     19  C   UNL     1       1.157   3.176   0.008  0.00  0.00    -0.027 A 
ATOM     20  C   UNL     1      -0.051   3.845   0.022  0.00  0.00    +0.038 A 
ATOM     21  C   UNL     1      -1.237   3.134   0.030  0.00  0.00    +0.127 A 
ATOM     22  C   UNL     1      -1.217   1.751   0.017  0.00  0.00    +0.034 A 
ATOM     23  C   UNL     1      -0.013   1.076   0.008  0.00  0.00    +0.025 A 
ATOM     24  C   UNL     1       1.181   1.788   0.000  0.00  0.00    +0.030 A 
BRANCH  21  25
ATOM     25  N   UNL     1      -2.530   3.853   0.045  0.00  0.00    +0.056 N 
ATOM     26  O   UNL     1      -2.549   5.071   0.052  0.00  0.00    -0.126 OA
ATOM     27  O   UNL     1      -3.575   3.228   0.052  0.00  0.00    -0.126 OA
ENDBRANCH  21  25
ENDBRANCH  16  24
ENDBRANCH  15  16
ENDBRANCH   1  15
TORSDOF 4
