REMARK  Name = ZINC09159567
REMARK  6 active torsions:
REMARK  status: ('A' for Active; 'I' for Inactive)
REMARK    1  A    between atoms: C_1  and  C_2
REMARK    2  A    between atoms: C_2  and  O_3
REMARK    3  A    between atoms: O_3  and  C_4
REMARK    4  A    between atoms: C_9  and  C_10
REMARK    5  A    between atoms: C_12  and  C_36
REMARK    6  A    between atoms: C_36  and  C_38
REMARK                            x       y       z     vdW  Elec       q    Type
REMARK                         _______ _______ _______ _____ _____    ______ ____
ROOT
ATOM      1  C   UNL     1       3.928   5.496  -0.684  0.00  0.00    +0.074 C 
ATOM      2  C   UNL     1       2.517   4.840  -0.711  0.00  0.00    +0.149 C 
ATOM      3  N   UNL     1       2.771   3.469  -0.252  0.00  0.00    -0.311 N 
ATOM      4  C   UNL     1       1.810   2.510  -0.458  0.00  0.00    +0.038 A 
ATOM      5  C   UNL     1       0.492   2.796  -0.755  0.00  0.00    +0.024 A 
ATOM      6  C   UNL     1      -0.410   1.767  -0.954  0.00  0.00    +0.002 A 
ATOM      7  C   UNL     1      -0.001   0.447  -0.862  0.00  0.00    +0.001 A 
ATOM      8  C   UNL     1       1.311   0.141  -0.557  0.00  0.00    +0.010 A 
ATOM      9  C   UNL     1       2.227   1.164  -0.354  0.00  0.00    -0.004 A 
ATOM     10  C   UNL     1       3.644   0.884  -0.023  0.00  0.00    +0.007 C 
ATOM     11  C   UNL     1       4.552   1.832  -0.319  0.00  0.00    -0.003 C 
ATOM     12  C   UNL     1       4.025   3.082  -0.955  0.00  0.00    +0.119 C 
ATOM     13  C   UNL     1       4.909   4.311  -0.803  0.00  0.00    +0.127 C 
ATOM     14  C   UNL     1       5.826   4.496  -1.983  0.00  0.00    +0.180 C 
ATOM     15  O   UNL     1       5.497   4.606  -3.144  0.00  0.00    -0.291 OA
ATOM     16  C   UNL     1       7.192   4.516  -1.457  0.00  0.00    +0.029 A 
ATOM     17  C   UNL     1       8.402   4.665  -2.143  0.00  0.00    +0.012 A 
ATOM     18  C   UNL     1       9.565   4.645  -1.384  0.00  0.00    +0.001 A 
ATOM     19  C   UNL     1       9.543   4.484  -0.013  0.00  0.00    +0.001 A 
ATOM     20  C   UNL     1       8.356   4.335   0.693  0.00  0.00    +0.012 A 
ATOM     21  C   UNL     1       7.170   4.354  -0.048  0.00  0.00    +0.029 A 
ATOM     22  C   UNL     1       5.787   4.223   0.417  0.00  0.00    +0.180 C 
ATOM     23  O   UNL     1       5.420   4.072   1.562  0.00  0.00    -0.291 OA
ENDROOT
BRANCH   1  29
ATOM     24  C   UNL     1       4.768   7.635  -1.686  0.00  0.00    +0.124 A 
ATOM     25  C   UNL     1       4.918   8.497  -2.763  0.00  0.00    +0.046 A 
ATOM     26  C   UNL     1       4.396   8.158  -3.996  0.00  0.00    +0.004 A 
ATOM     27  C   UNL     1       3.723   6.961  -4.158  0.00  0.00    +0.001 A 
ATOM     28  C   UNL     1       3.576   6.098  -3.088  0.00  0.00    +0.007 A 
ATOM     29  C   UNL     1       4.093   6.435  -1.851  0.00  0.00    +0.001 A 
BRANCH  24  30
ATOM     30  O   UNL     1       5.280   7.967  -0.472  0.00  0.00    -0.492 OA
BRANCH  30  32
ATOM     31  C   UNL     1       6.466   9.416   1.055  0.00  0.00    +0.048 C 
ATOM     32  C   UNL     1       5.963   9.218  -0.376  0.00  0.00    +0.225 C 
ENDBRANCH  30  32
ENDBRANCH  24  30
ENDBRANCH   1  29
BRANCH   2  33
ATOM     33  C   UNL     1       1.582   5.554   0.231  0.00  0.00    +0.151 C 
ATOM     34  O   UNL     1       1.355   5.091   1.323  0.00  0.00    -0.296 OA
ATOM     35  C   UNL     1       0.930   6.846  -0.190  0.00  0.00    +0.088 C 
ENDBRANCH   2  33
TORSDOF 4
