REMARK  Name = ZINC08589199
REMARK  5 active torsions:
REMARK  status: ('A' for Active; 'I' for Inactive)
REMARK    1  A    between atoms: C_4  and  C_7
REMARK    2  A    between atoms: C_7  and  N_8
REMARK    3  A    between atoms: N_20  and  C_23
REMARK    4  A    between atoms: C_23  and  C_24
REMARK    5  A    between atoms: N_26  and  C_27
REMARK                            x       y       z     vdW  Elec       q    Type
REMARK                         _______ _______ _______ _____ _____    ______ ____
ROOT
ATOM      1  N   UNL     1       4.147  -0.946   1.341  0.00  0.00    -0.253 N 
ATOM      2  C   UNL     1       4.922  -0.036   1.964  0.00  0.00    +0.300 A 
ATOM      3  O   UNL     1       5.247   0.989   1.391  0.00  0.00    -0.263 OA
ATOM      4  C   UNL     1       5.354  -0.280   3.293  0.00  0.00    +0.217 A 
ATOM      5  C   UNL     1       4.961  -1.454   3.905  0.00  0.00    +0.105 A 
ATOM      6  C   UNL     1       5.548  -1.428   5.246  0.00  0.00    +0.045 A 
ATOM      7  C   UNL     1       5.528  -2.300   6.336  0.00  0.00    +0.014 A 
ATOM      8  C   UNL     1       6.199  -1.973   7.480  0.00  0.00    +0.001 A 
ATOM      9  C   UNL     1       6.901  -0.779   7.566  0.00  0.00    +0.004 A 
ATOM     10  C   UNL     1       6.933   0.096   6.502  0.00  0.00    +0.047 A 
ATOM     11  C   UNL     1       6.258  -0.216   5.327  0.00  0.00    +0.138 A 
ATOM     12  O   UNL     1       6.117   0.431   4.152  0.00  0.00    -0.448 OA
ATOM     13  N   UNL     1       4.168  -2.351   3.219  0.00  0.00    -0.281 N 
ATOM     14  C   UNL     1       3.773  -2.079   1.960  0.00  0.00    +0.333 A 
ATOM     15  O   UNL     1       3.069  -2.877   1.370  0.00  0.00    -0.246 OA
ENDROOT
BRANCH   1  16
ATOM     16  C   UNL     1       3.701  -0.693  -0.031  0.00  0.00    +0.165 C 
BRANCH  16  20
ATOM     17  C   UNL     1      -0.018   1.407   0.042  0.00  0.00    +0.000 A 
ATOM     18  C   UNL     1       1.173   2.110   0.032  0.00  0.00    +0.000 A 
ATOM     19  C   UNL     1       2.376   1.430   0.008  0.00  0.00    +0.005 A 
ATOM     20  C   UNL     1       2.389   0.048  -0.005  0.00  0.00    -0.028 A 
ATOM     21  C   UNL     1       1.199  -0.655   0.007  0.00  0.00    +0.005 A 
ATOM     22  C   UNL     1      -0.005   0.025   0.029  0.00  0.00    +0.000 A 
ENDBRANCH  16  20
ENDBRANCH   1  16
BRANCH  13  23
ATOM     23  C   UNL     1       3.748  -3.598   3.864  0.00  0.00    +0.223 C 
BRANCH  23  24
ATOM     24  C   UNL     1       2.441  -3.377   4.581  0.00  0.00    +0.237 C 
ATOM     25  O   UNL     1       1.913  -2.286   4.556  0.00  0.00    -0.274 OA
ATOM     26  N   UNL     1       1.860  -4.392   5.250  0.00  0.00    -0.284 N 
ATOM     27  H   UNL     1       2.247  -5.281   5.215  0.00  0.00    +0.155 HD
BRANCH  26  28
ATOM     28  C   UNL     1       0.698  -4.164   5.997  0.00  0.00    +0.034 A 
ATOM     29  C   UNL     1       0.490  -4.849   7.186  0.00  0.00    +0.025 A 
ATOM     30  C   UNL     1      -0.658  -4.623   7.921  0.00  0.00    +0.022 A 
ATOM     31  C   UNL     1      -1.599  -3.714   7.472  0.00  0.00    +0.041 A 
ATOM     32  C   UNL     1      -1.395  -3.030   6.287  0.00  0.00    +0.022 A 
ATOM     33  C   UNL     1      -0.246  -3.248   5.551  0.00  0.00    +0.025 A 
ATOM     34 CL   UNL     1      -3.041  -3.431   8.397  0.00  0.00    -0.084 Cl
ENDBRANCH  26  28
ENDBRANCH  23  24
ENDBRANCH  13  23
TORSDOF 5
