REMARK  Name = ZINC27558296
REMARK  8 active torsions:
REMARK  status: ('A' for Active; 'I' for Inactive)
REMARK    1  A    between atoms: C_1  and  C_2
REMARK    2  A    between atoms: C_2  and  C_4
REMARK    3  A    between atoms: C_2  and  N_11
REMARK    4  A    between atoms: N_11  and  C_12
REMARK    5  A    between atoms: N_11  and  C_13
REMARK    6  A    between atoms: C_13  and  C_14
REMARK    7  A    between atoms: N_19  and  S_22
REMARK    8  A    between atoms: S_22  and  C_25
REMARK                            x       y       z     vdW  Elec       q    Type
REMARK                         _______ _______ _______ _____ _____    ______ ____
ROOT
ATOM      1  C   UNL     1      -0.803   0.354  -2.378  0.00  0.00    +0.199 C 
ATOM      2  O   UNL     1      -0.797  -0.858  -2.373  0.00  0.00    -0.278 OA
ATOM      3  N   UNL     1      -0.071   1.036  -1.474  0.00  0.00    -0.300 N 
ATOM      4  C   UNL     1       0.737   0.322  -0.476  0.00  0.00    +0.125 C 
ATOM      5  C   UNL     1       0.336   0.808   0.923  0.00  0.00    +0.128 C 
ATOM      6  N   UNL     1       0.336   2.278   0.926  0.00  0.00    -0.174 NA
ATOM      7  C   UNL     1      -0.473   2.992  -0.072  0.00  0.00    +0.128 C 
ATOM      8  C   UNL     1      -0.068   2.505  -1.469  0.00  0.00    +0.125 C 
ENDROOT
BRANCH   6   9
ATOM      9  S   UNL     1       1.235   3.115   2.037  0.00  0.00    +0.062 S 
ATOM     10  O   UNL     1       2.279   2.246   2.452  0.00  0.00    -0.153 OA
ATOM     11  O   UNL     1       1.487   4.395   1.473  0.00  0.00    -0.153 OA
BRANCH   9  12
ATOM     12  C   UNL     1       0.209   3.378   3.445  0.00  0.00    +0.124 A 
ATOM     13  C   UNL     1       0.528   2.785   4.653  0.00  0.00    +0.030 A 
ATOM     14  C   UNL     1      -0.274   2.995   5.759  0.00  0.00    +0.002 A 
ATOM     15  C   UNL     1      -1.400   3.791   5.656  0.00  0.00    +0.002 A 
ATOM     16  C   UNL     1      -1.722   4.380   4.448  0.00  0.00    +0.022 A 
ATOM     17  C   UNL     1      -0.917   4.174   3.342  0.00  0.00    +0.067 A 
ATOM     18 CL   UNL     1      -1.322   4.914   1.824  0.00  0.00    -0.082 Cl
ENDBRANCH   9  12
ENDBRANCH   6   9
BRANCH   1  19
ATOM     19  C   UNL     1      -1.627   1.100  -3.396  0.00  0.00    +0.019 C 
BRANCH  19  20
ATOM     20  N   UNL     1      -2.325   0.138  -4.260  0.00  0.00    +0.388 N 
ATOM     21  C   UNL     1      -3.320  -0.628  -3.498  0.00  0.00    -0.095 C 
ATOM     22  H   UNL     1      -1.579  -0.570  -4.649  0.00  0.00    -0.081 HD
BRANCH  20  24
ATOM     23  C   UNL     1      -3.615  -0.223  -6.310  0.00  0.00    -0.008 C 
ATOM     24  C   UNL     1      -2.947   0.815  -5.406  0.00  0.00    -0.041 C 
BRANCH  24  25
ATOM     25  C   UNL     1      -1.891   1.554  -6.186  0.00  0.00    -0.061 A 
ATOM     26  C   UNL     1      -0.692   0.933  -6.487  0.00  0.00    +0.005 A 
ATOM     27  C   UNL     1       0.275   1.609  -7.207  0.00  0.00    +0.038 A 
ATOM     28  C   UNL     1       0.048   2.911  -7.618  0.00  0.00    +0.123 A 
ATOM     29  C   UNL     1      -1.150   3.534  -7.312  0.00  0.00    +0.038 A 
ATOM     30  C   UNL     1      -2.118   2.855  -6.596  0.00  0.00    +0.005 A 
ATOM     31  F   UNL     1       0.995   3.574  -8.316  0.00  0.00    -0.205 F 
ENDBRANCH  24  25
ENDBRANCH  20  24
ENDBRANCH  19  20
ENDBRANCH   1  19
TORSDOF 6
