REMARK  Name = ZINC39484969
REMARK  5 active torsions:
REMARK  status: ('A' for Active; 'I' for Inactive)
REMARK    1  A    between atoms: C_1  and  C_2
REMARK    2  A    between atoms: C_2  and  C_3
REMARK    3  A    between atoms: C_11  and  C_13
REMARK    4  A    between atoms: C_15  and  C_23
REMARK    5  A    between atoms: C_21  and  C_22
REMARK                            x       y       z     vdW  Elec       q    Type
REMARK                         _______ _______ _______ _____ _____    ______ ____
ROOT
ATOM      1  C   UNL     1      -1.470  -0.542  -0.016  0.00  0.00    +0.157 C 
ATOM      2  C   UNL     1      -1.476  -2.048   0.034  0.00  0.00    -0.004 C 
ATOM      3  C   UNL     1      -2.108  -2.429  -1.081  0.00  0.00    +0.067 C 
ATOM      4  C   UNL     1      -2.350  -3.877  -1.445  0.00  0.00    +0.076 C 
ATOM      5  C   UNL     1      -1.394  -4.761  -0.637  0.00  0.00    +0.114 C 
ATOM      6  N   UNL     1      -1.400  -4.327   0.769  0.00  0.00    -0.296 N 
ATOM      7  C   UNL     1      -0.909  -2.969   1.075  0.00  0.00    +0.142 C 
ATOM      8  C   UNL     1      -1.840  -5.144   1.746  0.00  0.00    +0.227 C 
ATOM      9  O   UNL     1      -1.745  -4.807   2.907  0.00  0.00    -0.275 OA
ATOM     10  N   UNL     1      -2.479  -1.342  -1.794  0.00  0.00    -0.158 NA
ATOM     11  N   UNL     1      -2.171  -0.256  -1.283  0.00  0.00    -0.180 NA
ENDROOT
BRANCH   8  12
ATOM     12  C   UNL     1      -2.451  -6.477   1.396  0.00  0.00    +0.141 C 
ATOM     13  C   UNL     1      -3.610  -6.769   2.352  0.00  0.00    +0.190 C 
ATOM     14  O   UNL     1      -3.077  -7.065   3.651  0.00  0.00    -0.457 OA
ATOM     15  C   UNL     1      -2.265  -8.152   3.688  0.00  0.00    +0.332 C 
ATOM     16  O   UNL     1      -2.322  -8.950   4.603  0.00  0.00    -0.246 OA
ATOM     17  C   UNL     1      -1.313  -8.328   2.576  0.00  0.00    +0.091 C 
ATOM     18  C   UNL     1      -1.403  -7.549   1.508  0.00  0.00    -0.051 C 
ATOM     19  C   UNL     1      -0.427  -7.746   0.377  0.00  0.00    +0.040 C 
ATOM     20  C   UNL     1      -4.525  -5.546   2.436  0.00  0.00    +0.053 C 
ENDBRANCH   8  12
BRANCH   1  22
ATOM     21  C   UNL     1      -0.064   1.523  -0.045  0.00  0.00    +0.006 C 
ATOM     22  C   UNL     1      -0.037  -0.007  -0.055  0.00  0.00    +0.030 C 
ENDBRANCH   1  22
TORSDOF 2
