REMARK  Name = ZINC37195366
REMARK  4 active torsions:
REMARK  status: ('A' for Active; 'I' for Inactive)
REMARK    1  A    between atoms: N_9  and  C_12
REMARK    2  A    between atoms: C_12  and  S_13
REMARK    3  A    between atoms: S_13  and  C_14
REMARK    4  A    between atoms: C_15  and  N_21
REMARK                            x       y       z     vdW  Elec       q    Type
REMARK                         _______ _______ _______ _____ _____    ______ ____
ROOT
ATOM      1  C   UNL     1       2.670  -4.163  -0.046  0.00  0.00    +0.223 C 
ENDROOT
BRANCH   1  10
ATOM      2  C   UNL     1      -0.017   1.373   0.010  0.00  0.00    +0.001 A 
ATOM      3  C   UNL     1       1.170   2.095   0.002  0.00  0.00    +0.002 A 
ATOM      4  C   UNL     1       2.386   1.452  -0.013  0.00  0.00    +0.030 A 
ATOM      5  C   UNL     1       2.432   0.055  -0.021  0.00  0.00    +0.100 A 
ATOM      6  C   UNL     1       1.224  -0.675  -0.013  0.00  0.00    +0.068 A 
ATOM      7  C   UNL     1       0.002  -0.004   0.002  0.00  0.00    +0.015 A 
ATOM      8  C   UNL     1       1.298  -2.144  -0.022  0.00  0.00    +0.279 A 
ATOM      9  O   UNL     1       0.291  -2.829  -0.016  0.00  0.00    -0.265 OA
ATOM     10  N   UNL     1       2.530  -2.705  -0.037  0.00  0.00    -0.200 N 
ATOM     11  N   UNL     1       3.668  -1.894  -0.044  0.00  0.00    -0.061 NA
ATOM     12  N   UNL     1       3.612  -0.612  -0.037  0.00  0.00    -0.131 NA
ENDBRANCH   1  10
BRANCH   1  13
ATOM     13  S   UNL     1       2.711  -4.756  -1.760  0.00  0.00    -0.098 S 
BRANCH  13  14
ATOM     14  C   UNL     1       4.323  -4.321  -2.324  0.00  0.00    +0.049 A 
ATOM     15  C   UNL     1       4.545  -3.080  -2.921  0.00  0.00    +0.040 A 
ATOM     16  C   UNL     1       5.815  -2.743  -3.361  0.00  0.00    +0.024 A 
ATOM     17  C   UNL     1       6.860  -3.637  -3.208  0.00  0.00    +0.003 A 
ATOM     18  C   UNL     1       6.641  -4.867  -2.617  0.00  0.00    +0.021 A 
ATOM     19  C   UNL     1       5.378  -5.210  -2.169  0.00  0.00    +0.056 A 
ATOM     20 CL   UNL     1       5.110  -6.753  -1.421  0.00  0.00    -0.082 Cl
BRANCH  15  21
ATOM     21  N   UNL     1       3.486  -2.176  -3.075  0.00  0.00    -0.357 N 
ATOM     22  H   UNL     1       2.598  -2.413  -2.767  0.00  0.00    +0.142 HD
ATOM     23  H   UNL     1       3.642  -1.313  -3.490  0.00  0.00    +0.142 HD
ENDBRANCH  15  21
ENDBRANCH  13  14
ENDBRANCH   1  13
TORSDOF 4
