REMARK  Name = ZINC39431136
REMARK  7 active torsions:
REMARK  status: ('A' for Active; 'I' for Inactive)
REMARK    1  A    between atoms: C_1  and  C_2
REMARK    2  A    between atoms: C_2  and  C_4
REMARK    3  A    between atoms: C_2  and  S_16
REMARK    4  A    between atoms: S_16  and  C_17
REMARK    5  A    between atoms: C_21  and  C_31
REMARK    6  A    between atoms: N_23  and  C_24
REMARK    7  A    between atoms: C_24  and  C_25
REMARK                            x       y       z     vdW  Elec       q    Type
REMARK                         _______ _______ _______ _____ _____    ______ ____
ROOT
ATOM      1  C   UNL     1      -0.340   0.078   2.744  0.00  0.00    +0.257 C 
ATOM      2  N   UNL     1      -0.937   1.404   2.531  0.00  0.00    -0.184 NA
ATOM      3  N   UNL     1      -2.139   1.403   2.814  0.00  0.00    -0.289 N 
ATOM      4  C   UNL     1      -2.577   0.078   3.270  0.00  0.00    +0.204 C 
ATOM      5  N   UNL     1      -1.496  -0.848   2.840  0.00  0.00    -0.242 NA
ATOM      6  H   UNL     1      -2.718   2.178   2.744  0.00  0.00    +0.184 HD
ENDROOT
BRANCH   4   7
ATOM      7  C   UNL     1      -2.719   0.059   4.770  0.00  0.00    +0.026 A 
ATOM      8  C   UNL     1      -2.372  -1.073   5.483  0.00  0.00    +0.010 A 
ATOM      9  C   UNL     1      -2.502  -1.090   6.859  0.00  0.00    +0.001 A 
ATOM     10  C   UNL     1      -2.979   0.025   7.524  0.00  0.00    +0.003 A 
ATOM     11  C   UNL     1      -3.325   1.158   6.813  0.00  0.00    +0.039 A 
ATOM     12  C   UNL     1      -3.190   1.178   5.435  0.00  0.00    +0.130 A 
ATOM     13  F   UNL     1      -3.524   2.287   4.739  0.00  0.00    -0.205 F 
ENDBRANCH   4   7
BRANCH   1  14
ATOM     14  S   UNL     1       0.715  -0.372   1.339  0.00  0.00    -0.106 S 
BRANCH  14  16
ATOM     15  C   UNL     1       2.947   0.014   2.873  0.00  0.00    +0.027 C 
ATOM     16  C   UNL     1       2.247   0.557   1.626  0.00  0.00    +0.112 C 
BRANCH  16  17
ATOM     17  C   UNL     1       3.157   0.405   0.434  0.00  0.00    +0.123 A 
ATOM     18  N   UNL     1       4.410   0.925   0.509  0.00  0.00    -0.309 N 
ATOM     19  H   UNL     1       4.694   1.379   1.318  0.00  0.00    +0.170 HD
ATOM     20  C   UNL     1       5.265   0.815  -0.534  0.00  0.00    +0.259 A 
ATOM     21  O   UNL     1       6.391   1.276  -0.480  0.00  0.00    -0.267 OA
ATOM     22  C   UNL     1       4.782   0.117  -1.735  0.00  0.00    +0.065 A 
ATOM     23  C   UNL     1       5.583  -0.050  -2.862  0.00  0.00    +0.015 A 
ATOM     24  C   UNL     1       5.080  -0.712  -3.961  0.00  0.00    +0.001 A 
ATOM     25  C   UNL     1       3.784  -1.212  -3.951  0.00  0.00    +0.002 A 
ATOM     26  C   UNL     1       2.976  -1.058  -2.847  0.00  0.00    +0.028 A 
ATOM     27  C   UNL     1       3.464  -0.391  -1.722  0.00  0.00    +0.078 A 
ATOM     28  N   UNL     1       2.705  -0.221  -0.610  0.00  0.00    -0.233 NA
ENDBRANCH  16  17
ENDBRANCH  14  16
ENDBRANCH   1  14
BRANCH   5  29
ATOM     29  C   UNL     1      -1.803  -1.445   1.533  0.00  0.00    +0.124 C 
BRANCH  29  30
ATOM     30  C   UNL     1      -2.906  -2.460   1.691  0.00  0.00    -0.033 A 
ATOM     31  C   UNL     1      -2.605  -3.751   2.082  0.00  0.00    +0.005 A 
ATOM     32  C   UNL     1      -3.616  -4.683   2.227  0.00  0.00    +0.000 A 
ATOM     33  C   UNL     1      -4.928  -4.323   1.980  0.00  0.00    +0.000 A 
ATOM     34  C   UNL     1      -5.229  -3.031   1.590  0.00  0.00    +0.000 A 
ATOM     35  C   UNL     1      -4.218  -2.099   1.450  0.00  0.00    +0.005 A 
ENDBRANCH  29  30
ENDBRANCH   5  29
TORSDOF 6
