REMARK  Name = ZINC04950177
REMARK  8 active torsions:
REMARK  status: ('A' for Active; 'I' for Inactive)
REMARK    1  A    between atoms: C_1  and  C_2
REMARK    2  A    between atoms: C_2  and  N_3
REMARK    3  A    between atoms: C_12  and  S_13
REMARK    4  A    between atoms: S_13  and  C_14
REMARK    5  A    between atoms: C_14  and  C_16
REMARK    6  A    between atoms: C_14  and  C_19
REMARK    7  A    between atoms: C_16  and  C_17
REMARK    8  A    between atoms: C_16  and  C_18
REMARK                            x       y       z     vdW  Elec       q    Type
REMARK                         _______ _______ _______ _____ _____    ______ ____
ROOT
ATOM      1  N   UNL     1      -6.470   1.156  -0.815  0.00  0.00    -0.288 N 
ATOM      2  C   UNL     1      -7.522   0.324  -0.704  0.00  0.00    +0.263 A 
ATOM      3  O   UNL     1      -8.644   0.705  -0.988  0.00  0.00    -0.267 OA
ATOM      4  C   UNL     1      -7.305  -1.014  -0.244  0.00  0.00    +0.076 A 
ATOM      5  C   UNL     1      -8.293  -2.076  -0.045  0.00  0.00    -0.023 A 
ATOM      6  C   UNL     1      -7.834  -3.263   0.401  0.00  0.00    -0.004 A 
ATOM      7  S   UNL     1      -6.085  -3.042   0.582  0.00  0.00    -0.073 S 
ATOM      8  C   UNL     1      -5.974  -1.350   0.055  0.00  0.00    +0.117 A 
ATOM      9  N   UNL     1      -4.978  -0.482  -0.081  0.00  0.00    -0.216 NA
ATOM     10  C   UNL     1      -5.206   0.744  -0.507  0.00  0.00    +0.173 A 
ATOM     11  C   UNL     1      -8.635  -4.498   0.682  0.00  0.00    +0.043 C 
ATOM     12  C   UNL     1     -10.119  -4.110   0.740  0.00  0.00    +0.005 C 
ATOM     13  C   UNL     1     -10.447  -3.237  -0.475  0.00  0.00    +0.005 C 
ATOM     14  C   UNL     1      -9.779  -1.869  -0.326  0.00  0.00    +0.037 C 
ENDROOT
BRANCH   1  16
ATOM     15  C   UNL     1      -6.568   2.573  -2.806  0.00  0.00    +0.027 C 
ATOM     16  C   UNL     1      -6.685   2.528  -1.281  0.00  0.00    +0.124 C 
ENDBRANCH   1  16
BRANCH  10  17
ATOM     17  S   UNL     1      -3.860   1.869  -0.675  0.00  0.00    -0.075 S 
BRANCH  17  18
ATOM     18  C   UNL     1      -2.521   0.863   0.012  0.00  0.00    +0.143 C 
BRANCH  18  19
ATOM     19  C   UNL     1      -1.203   1.554  -0.221  0.00  0.00    +0.234 C 
ATOM     20  O   UNL     1      -1.166   2.758  -0.361  0.00  0.00    -0.274 OA
ATOM     21  N   UNL     1      -0.065   0.834  -0.274  0.00  0.00    -0.239 N 
ATOM     22  C   UNL     1       1.114   1.452  -0.488  0.00  0.00    +0.303 C 
ATOM     23  O   UNL     1       1.151   2.659  -0.628  0.00  0.00    -0.253 OA
ATOM     24  N   UNL     1       2.252   0.732  -0.546  0.00  0.00    -0.313 N 
ATOM     25  H   UNL     1      -0.094  -0.129  -0.162  0.00  0.00    +0.159 HD
ATOM     26  H   UNL     1       2.222  -0.231  -0.434  0.00  0.00    +0.146 HD
ATOM     27  H   UNL     1       3.100   1.176  -0.700  0.00  0.00    +0.146 HD
ENDBRANCH  18  19
BRANCH  18  28
ATOM     28  C   UNL     1      -2.742   0.678   1.514  0.00  0.00    +0.005 C 
ATOM     29  C   UNL     1      -1.694  -0.290   2.068  0.00  0.00    +0.009 C 
ATOM     30  C   UNL     1      -2.610   2.029   2.219  0.00  0.00    +0.009 C 
ENDBRANCH  18  28
ENDBRANCH  17  18
ENDBRANCH  10  17
TORSDOF 5
