REMARK  Name = ZINC46861719
REMARK  6 active torsions:
REMARK  status: ('A' for Active; 'I' for Inactive)
REMARK    1  A    between atoms: C_4  and  C_7
REMARK    2  A    between atoms: C_7  and  C_9
REMARK    3  A    between atoms: C_7  and  C_11
REMARK    4  A    between atoms: C_14  and  N_18
REMARK    5  A    between atoms: C_19  and  C_21
REMARK    6  A    between atoms: C_25  and  N_27
REMARK                            x       y       z     vdW  Elec       q    Type
REMARK                         _______ _______ _______ _____ _____    ______ ____
ROOT
ATOM      1  C   UNL     1       3.897  -1.488   1.238  0.00  0.00    -0.008 A 
ATOM      2  C   UNL     1       3.013  -2.509   1.535  0.00  0.00    +0.008 A 
ATOM      3  C   UNL     1       3.147  -3.220   2.711  0.00  0.00    +0.024 A 
ATOM      4  C   UNL     1       4.171  -2.910   3.597  0.00  0.00    +0.035 A 
ATOM      5  C   UNL     1       5.058  -1.885   3.297  0.00  0.00    +0.043 A 
ATOM      6  C   UNL     1       4.922  -1.180   2.115  0.00  0.00    +0.047 A 
ATOM      7 CL   UNL     1       6.034   0.098   1.735  0.00  0.00    -0.083 Cl
ENDROOT
BRANCH   4   8
ATOM      8  N   UNL     1       4.308  -3.628   4.789  0.00  0.00    -0.281 N 
ATOM      9  C   UNL     1       4.707  -2.999   5.913  0.00  0.00    +0.248 C 
ATOM     10  O   UNL     1       5.028  -1.827   5.872  0.00  0.00    -0.270 OA
ATOM     11  H   UNL     1       4.115  -4.579   4.808  0.00  0.00    +0.155 HD
BRANCH   9  12
ATOM     12  C   UNL     1       4.756  -3.735   7.194  0.00  0.00    +0.039 A 
ATOM     13  C   UNL     1       4.394  -5.083   7.242  0.00  0.00    +0.013 A 
ATOM     14  C   UNL     1       4.441  -5.763   8.441  0.00  0.00    +0.003 A 
ATOM     15  C   UNL     1       4.846  -5.113   9.594  0.00  0.00    +0.033 A 
ATOM     16  C   UNL     1       5.206  -3.778   9.553  0.00  0.00    +0.127 A 
ATOM     17  C   UNL     1       5.169  -3.087   8.359  0.00  0.00    +0.045 A 
BRANCH  16  18
ATOM     18  N   UNL     1       5.638  -3.091  10.790  0.00  0.00    +0.056 N 
ATOM     19  O   UNL     1       5.676  -3.697  11.836  0.00  0.00    -0.126 OA
ATOM     20  O   UNL     1       5.953  -1.924  10.756  0.00  0.00    -0.126 OA
ENDBRANCH  16  18
ENDBRANCH   9  12
ENDBRANCH   4   8
BRANCH   1  21
ATOM     21  C   UNL     1       3.748  -0.715  -0.047  0.00  0.00    +0.153 C 
BRANCH  21  25
ATOM     22  C   UNL     1       0.112   1.524   0.055  0.00  0.00    +0.000 A 
ATOM     23  C   UNL     1       0.072   0.143  -0.005  0.00  0.00    +0.000 A 
ATOM     24  C   UNL     1       1.249  -0.581  -0.038  0.00  0.00    +0.005 A 
ATOM     25  C   UNL     1       2.466   0.075  -0.012  0.00  0.00    -0.026 A 
ATOM     26  C   UNL     1       2.505   1.456   0.048  0.00  0.00    +0.005 A 
ATOM     27  C   UNL     1       1.328   2.180   0.082  0.00  0.00    +0.000 A 
ENDBRANCH  21  25
BRANCH  21  28
ATOM     28  C   UNL     1       3.718  -1.651  -1.182  0.00  0.00    +0.075 C 
ATOM     29  N   UNL     1       3.694  -2.373  -2.059  0.00  0.00    -0.196 NA
ENDBRANCH  21  28
ENDBRANCH   1  21
TORSDOF 6
