REMARK  Name = ZINC53364545
REMARK  2 active torsions:
REMARK  status: ('A' for Active; 'I' for Inactive)
REMARK    1  A    between atoms: N_6  and  C_8
REMARK    2  A    between atoms: C_8  and  C_9
REMARK                            x       y       z     vdW  Elec       q    Type
REMARK                         _______ _______ _______ _____ _____    ______ ____
ROOT
ATOM      1  C   UNL     1       1.019  -2.652   1.399  0.00  0.00    +0.238 C 
ATOM      2  O   UNL     1       1.058  -1.869   2.325  0.00  0.00    -0.274 OA
ATOM      3  N   UNL     1       0.962  -3.977   1.639  0.00  0.00    -0.292 N 
ATOM      4  C   UNL     1       0.804  -4.949   0.542  0.00  0.00    +0.136 C 
ATOM      5  C   UNL     1      -0.341  -5.905   0.889  0.00  0.00    +0.179 C 
ATOM      6  O   UNL     1      -0.144  -6.442   2.202  0.00  0.00    -0.373 OA
ATOM      7  C   UNL     1      -0.137  -5.450   3.227  0.00  0.00    +0.139 C 
ATOM      8  C   UNL     1       1.061  -4.512   3.003  0.00  0.00    +0.105 C 
ATOM      9  C   UNL     1       1.010  -3.387   4.034  0.00  0.00    +0.025 C 
ATOM     10  C   UNL     1       1.117  -3.995   5.436  0.00  0.00    +0.002 C 
ATOM     11  C   UNL     1      -0.036  -4.971   5.672  0.00  0.00    +0.003 C 
ATOM     12  C   UNL     1      -0.004  -6.080   4.611  0.00  0.00    +0.033 C 
ENDROOT
BRANCH   1  13
ATOM     13  C   UNL     1       1.035  -2.143  -0.019  0.00  0.00    +0.243 C 
BRANCH  13  19
ATOM     14  C   UNL     1      -0.012   1.298   0.003  0.00  0.00    +0.154 A 
ATOM     15  C   UNL     1       1.190   2.028   0.001  0.00  0.00    +0.084 A 
ATOM     16  C   UNL     1       2.369   1.334  -0.007  0.00  0.00    +0.126 A 
ATOM     17  C   UNL     1       2.303  -0.076  -0.014  0.00  0.00    +0.288 A 
ATOM     18  O   UNL     1       3.327  -0.741  -0.022  0.00  0.00    -0.265 OA
ATOM     19  N   UNL     1       1.099  -0.679  -0.012  0.00  0.00    -0.219 N 
ATOM     20  N   UNL     1       0.007  -0.005  -0.004  0.00  0.00    -0.175 NA
ATOM     21 CL   UNL     1       3.896   2.161  -0.010  0.00  0.00    -0.076 Cl
ATOM     22 CL   UNL     1       1.177   3.764   0.010  0.00  0.00    -0.080 Cl
ENDBRANCH  13  19
ENDBRANCH   1  13
TORSDOF 2
