REMARK  Name = ZINC49243680
REMARK  4 active torsions:
REMARK  status: ('A' for Active; 'I' for Inactive)
REMARK    1  A    between atoms: C_1  and  C_2
REMARK    2  A    between atoms: C_5  and  C_7
REMARK    3  A    between atoms: C_7  and  N_8
REMARK    4  A    between atoms: C_15  and  C_17
REMARK                            x       y       z     vdW  Elec       q    Type
REMARK                         _______ _______ _______ _____ _____    ______ ____
ROOT
ATOM      1  N   UNL     1       1.844  -0.673   3.329  0.00  0.00    -0.299 N 
ATOM      2  C   UNL     1       2.442  -0.112   4.398  0.00  0.00    +0.303 C 
ATOM      3  O   UNL     1       2.556   1.097   4.466  0.00  0.00    -0.253 OA
ATOM      4  N   UNL     1       2.915  -0.890   5.392  0.00  0.00    -0.279 N 
ATOM      5  C   UNL     1       2.850  -2.362   5.435  0.00  0.00    +0.110 C 
ATOM      6  C   UNL     1       4.008  -2.783   6.374  0.00  0.00    +0.021 C 
ATOM      7  C   UNL     1       3.971  -1.655   7.439  0.00  0.00    +0.029 C 
ATOM      8  C   UNL     1       3.586  -0.412   6.609  0.00  0.00    +0.108 C 
ATOM      9  H   UNL     1       1.753  -1.637   3.275  0.00  0.00    +0.150 HD
ENDROOT
BRANCH   8  10
ATOM     10  C   UNL     1       2.648   0.460   7.403  0.00  0.00    -0.027 A 
ATOM     11  C   UNL     1       1.309   0.129   7.496  0.00  0.00    +0.006 A 
ATOM     12  C   UNL     1       0.449   0.929   8.224  0.00  0.00    +0.015 A 
ATOM     13  C   UNL     1       0.927   2.060   8.860  0.00  0.00    +0.018 A 
ATOM     14  C   UNL     1       2.267   2.391   8.767  0.00  0.00    +0.015 A 
ATOM     15  C   UNL     1       3.128   1.588   8.043  0.00  0.00    +0.006 A 
ATOM     16 BR   UNL     1      -0.250   3.155   9.856  0.00  0.00    -0.050 Br
ENDBRANCH   8  10
BRANCH   1  17
ATOM     17  C   UNL     1       1.330   0.173   2.249  0.00  0.00    +0.109 C 
BRANCH  17  21
ATOM     18  C   UNL     1      -0.019   1.526   0.010  0.00  0.00    +0.008 C 
ATOM     19  C   UNL     1       0.002  -0.004   0.002  0.00  0.00    -0.009 C 
ATOM     20  C   UNL     1       1.351  -0.691  -0.221  0.00  0.00    +0.009 C 
ATOM     21  C   UNL     1       0.703  -0.708   1.166  0.00  0.00    +0.009 C 
ENDBRANCH  17  21
ENDBRANCH   1  17
TORSDOF 3
