REMARK  Name = ZINC37399363
REMARK  8 active torsions:
REMARK  status: ('A' for Active; 'I' for Inactive)
REMARK    1  A    between atoms: C_1  and  C_2
REMARK    2  A    between atoms: C_2  and  C_3
REMARK    3  A    between atoms: C_4  and  C_25
REMARK    4  A    between atoms: C_5  and  N_12
REMARK    5  A    between atoms: C_7  and  C_9
REMARK    6  A    between atoms: C_9  and  C_10
REMARK    7  A    between atoms: C_18  and  C_20
REMARK    8  A    between atoms: C_25  and  C_26
REMARK                            x       y       z     vdW  Elec       q    Type
REMARK                         _______ _______ _______ _____ _____    ______ ____
ROOT
ATOM      1  C   UNL     1      -1.280  -1.097   0.519  0.00  0.00    +0.050 A 
ATOM      2  C   UNL     1      -1.910  -0.891   1.731  0.00  0.00    +0.018 A 
ATOM      3  C   UNL     1      -3.271  -1.190   1.829  0.00  0.00    +0.129 A 
ATOM      4  N   UNL     1      -3.906  -1.659   0.759  0.00  0.00    -0.216 NA
ATOM      5  C   UNL     1      -3.264  -1.840  -0.378  0.00  0.00    +0.145 A 
ATOM      6  N   UNL     1      -1.982  -1.562  -0.504  0.00  0.00    -0.235 NA
ENDROOT
BRANCH   3   7
ATOM      7  N   UNL     1      -3.948  -1.001   3.023  0.00  0.00    -0.312 N 
ATOM      8  C   UNL     1      -4.431   0.333   3.406  0.00  0.00    +0.125 C 
ATOM      9  C   UNL     1      -5.937   0.248   3.682  0.00  0.00    +0.127 C 
ATOM     10  N   UNL     1      -6.186  -0.882   4.587  0.00  0.00    -0.292 N 
ATOM     11  C   UNL     1      -5.704  -2.216   4.204  0.00  0.00    +0.127 C 
ATOM     12  C   UNL     1      -4.202  -2.133   3.926  0.00  0.00    +0.125 C 
ATOM     13  C   UNL     1      -6.846  -0.699   5.748  0.00  0.00    +0.282 C 
ATOM     14  O   UNL     1      -6.943  -1.615   6.544  0.00  0.00    -0.267 OA
BRANCH  13  15
ATOM     15  C   UNL     1      -7.445   0.605   6.053  0.00  0.00    +0.189 A 
ATOM     16  C   UNL     1      -8.014   0.968   7.240  0.00  0.00    +0.054 A 
ATOM     17  C   UNL     1      -8.454   2.292   7.088  0.00  0.00    +0.042 A 
ATOM     18  C   UNL     1      -8.138   2.674   5.831  0.00  0.00    +0.196 A 
ATOM     19  O   UNL     1      -7.526   1.656   5.212  0.00  0.00    -0.458 OA
ENDBRANCH  13  15
ENDBRANCH   3   7
BRANCH   1  21
ATOM     20  C   UNL     1       0.365   0.697   0.045  0.00  0.00    +0.010 C 
ATOM     21  C   UNL     1       0.187  -0.789   0.361  0.00  0.00    +0.052 C 
ENDBRANCH   1  21
BRANCH   5  22
ATOM     22  C   UNL     1      -4.019  -2.373  -1.568  0.00  0.00    +0.194 C 
BRANCH  22  23
ATOM     23  C   UNL     1      -4.578  -1.250  -2.338  0.00  0.00    +0.070 C 
ATOM     24  N   UNL     1      -5.009  -0.383  -2.933  0.00  0.00    -0.196 NA
ENDBRANCH  22  23
ENDBRANCH   5  22
BRANCH   2  25
ATOM     25  C   UNL     1      -1.149  -0.358   2.917  0.00  0.00    +0.075 C 
BRANCH  25  26
ATOM     26  C   UNL     1      -0.424  -1.489   3.598  0.00  0.00    -0.043 A 
ATOM     27  C   UNL     1      -1.101  -2.314   4.476  0.00  0.00    +0.007 A 
ATOM     28  C   UNL     1      -0.438  -3.353   5.102  0.00  0.00    +0.038 A 
ATOM     29  C   UNL     1       0.906  -3.567   4.848  0.00  0.00    +0.123 A 
ATOM     30  C   UNL     1       1.584  -2.740   3.969  0.00  0.00    +0.038 A 
ATOM     31  C   UNL     1       0.917  -1.705   3.341  0.00  0.00    +0.007 A 
ATOM     32  F   UNL     1       1.556  -4.581   5.459  0.00  0.00    -0.205 F 
ENDBRANCH  25  26
ENDBRANCH   2  25
TORSDOF 7
