REMARK  Name = ZINC44935066
REMARK  8 active torsions:
REMARK  status: ('A' for Active; 'I' for Inactive)
REMARK    1  A    between atoms: C_1  and  C_2
REMARK    2  A    between atoms: C_5  and  C_9
REMARK    3  A    between atoms: C_6  and  C_8
REMARK    4  A    between atoms: C_9  and  C_11
REMARK    5  A    between atoms: C_9  and  N_12
REMARK    6  A    between atoms: C_13  and  C_15
REMARK    7  A    between atoms: N_18  and  S_26
REMARK    8  A    between atoms: S_26  and  C_29
REMARK                            x       y       z     vdW  Elec       q    Type
REMARK                         _______ _______ _______ _____ _____    ______ ____
ROOT
ATOM      1  N   UNL     1       0.005  -5.143  -1.742  0.00  0.00    -0.306 N 
ATOM      2  C   UNL     1      -0.813  -6.207  -1.615  0.00  0.00    +0.256 C 
ATOM      3  O   UNL     1      -0.877  -6.801  -0.559  0.00  0.00    -0.272 OA
ATOM      4  H   UNL     1       0.056  -4.669  -2.586  0.00  0.00    +0.149 HD
ENDROOT
BRANCH   2   5
ATOM      5  C   UNL     1      -1.647  -6.660  -2.786  0.00  0.00    +0.277 C 
ATOM      6  C   UNL     1      -2.674  -5.575  -3.136  0.00  0.00    +0.185 C 
ATOM      7  N   UNL     1      -3.495  -6.081  -4.249  0.00  0.00    -0.200 N 
ATOM      8  C   UNL     1      -3.908  -7.422  -4.199  0.00  0.00    +0.093 A 
ATOM      9  C   UNL     1      -4.902  -7.876  -5.050  0.00  0.00    +0.028 A 
ATOM     10  C   UNL     1      -5.303  -9.198  -4.999  0.00  0.00    +0.002 A 
ATOM     11  C   UNL     1      -4.713 -10.066  -4.099  0.00  0.00    +0.004 A 
ATOM     12  C   UNL     1      -3.721  -9.619  -3.247  0.00  0.00    +0.047 A 
ATOM     13  C   UNL     1      -3.313  -8.294  -3.290  0.00  0.00    +0.144 A 
ATOM     14  O   UNL     1      -2.340  -7.862  -2.444  0.00  0.00    -0.476 OA
BRANCH   7  15
ATOM     15  S   UNL     1      -3.917  -5.103  -5.517  0.00  0.00    +0.043 S 
ATOM     16  O   UNL     1      -2.995  -4.023  -5.464  0.00  0.00    -0.155 OA
ATOM     17  O   UNL     1      -3.957  -5.966  -6.644  0.00  0.00    -0.155 OA
ATOM     18  C   UNL     1      -5.587  -4.518  -5.118  0.00  0.00    +0.218 C 
ENDBRANCH   7  15
ENDBRANCH   2   5
BRANCH   1  19
ATOM     19  C   UNL     1       0.815  -4.703  -0.603  0.00  0.00    +0.100 C 
ATOM     20  C   UNL     1       2.147  -5.457  -0.604  0.00  0.00    +0.033 C 
BRANCH  19  25
ATOM     21  C   UNL     1       1.811   0.973  -1.030  0.00  0.00    +0.044 C 
ATOM     22  C   UNL     1       1.551  -0.507  -0.919  0.00  0.00    -0.050 A 
ATOM     23  C   UNL     1       1.326  -1.257  -2.058  0.00  0.00    +0.004 A 
ATOM     24  C   UNL     1       1.088  -2.615  -1.956  0.00  0.00    +0.006 A 
ATOM     25  C   UNL     1       1.076  -3.223  -0.715  0.00  0.00    -0.025 A 
ATOM     26  C   UNL     1       1.302  -2.474   0.424  0.00  0.00    -0.045 A 
ATOM     27  C   UNL     1       1.544  -1.116   0.322  0.00  0.00    +0.007 A 
ATOM     28  C   UNL     1       1.288  -3.136   1.778  0.00  0.00    +0.044 C 
ENDBRANCH  19  25
ENDBRANCH   1  19
TORSDOF 4
