REMARK  Name = ZINC56083854
REMARK  5 active torsions:
REMARK  status: ('A' for Active; 'I' for Inactive)
REMARK    1  A    between atoms: C_1  and  C_2
REMARK    2  A    between atoms: C_5  and  C_8
REMARK    3  A    between atoms: C_9  and  C_10
REMARK    4  A    between atoms: C_9  and  C_12
REMARK    5  A    between atoms: C_18  and  C_21
REMARK                            x       y       z     vdW  Elec       q    Type
REMARK                         _______ _______ _______ _____ _____    ______ ____
ROOT
ATOM      1  C   UNL     1       0.044  -4.290   2.483  0.00  0.00    +0.257 C 
ATOM      2  O   UNL     1      -0.148  -3.089   2.496  0.00  0.00    -0.269 OA
ATOM      3  N   UNL     1       0.259  -4.951   3.638  0.00  0.00    -0.296 N 
ATOM      4  C   UNL     1       0.401  -6.413   3.648  0.00  0.00    +0.108 C 
ATOM      5  C   UNL     1      -0.593  -6.998   4.657  0.00  0.00    +0.020 C 
ATOM      6  C   UNL     1      -0.379  -6.336   6.020  0.00  0.00    +0.016 C 
ATOM      7  C   UNL     1      -0.636  -4.832   5.905  0.00  0.00    +0.093 C 
ATOM      8  C   UNL     1       0.363  -4.222   4.909  0.00  0.00    +0.120 C 
ENDROOT
BRANCH   7   9
ATOM      9  C   UNL     1      -0.456  -4.186   7.254  0.00  0.00    +0.223 C 
ATOM     10  O   UNL     1      -0.153  -4.862   8.215  0.00  0.00    -0.275 OA
ATOM     11  N   UNL     1      -0.633  -2.857   7.394  0.00  0.00    -0.264 N 
ATOM     12  C   UNL     1      -0.468  -2.261   8.639  0.00  0.00    +0.164 A 
ATOM     13  N   UNL     1      -0.138  -2.829   9.780  0.00  0.00    -0.233 NA
ATOM     14  C   UNL     1      -0.020  -2.118  10.886  0.00  0.00    +0.120 A 
ATOM     15  C   UNL     1      -0.254  -0.786  10.791  0.00  0.00    +0.068 A 
ATOM     16  S   UNL     1      -0.634  -0.638   9.053  0.00  0.00    -0.061 S 
ATOM     17  H   UNL     1      -0.876  -2.317   6.627  0.00  0.00    +0.157 HD
ENDBRANCH   7   9
BRANCH   1  19
ATOM     18  C   UNL     1       1.221  -5.412   0.638  0.00  0.00    +0.032 C 
ATOM     19  C   UNL     1       0.041  -5.022   1.205  0.00  0.00    +0.114 C 
BRANCH  18  24
ATOM     20  C   UNL     1       6.207  -3.678   2.906  0.00  0.00    +0.044 C 
ATOM     21  C   UNL     1       4.899  -4.133   2.312  0.00  0.00    -0.050 A 
ATOM     22  C   UNL     1       3.811  -3.276   2.304  0.00  0.00    +0.004 A 
ATOM     23  C   UNL     1       2.611  -3.684   1.762  0.00  0.00    +0.008 A 
ATOM     24  C   UNL     1       2.494  -4.969   1.217  0.00  0.00    -0.024 A 
ATOM     25  C   UNL     1       3.600  -5.829   1.228  0.00  0.00    +0.008 A 
ATOM     26  C   UNL     1       4.794  -5.403   1.770  0.00  0.00    +0.004 A 
ENDBRANCH  18  24
BRANCH  19  27
ATOM     27  C   UNL     1      -1.199  -5.325   0.557  0.00  0.00    +0.104 C 
ATOM     28  N   UNL     1      -2.183  -5.566   0.043  0.00  0.00    -0.191 NA
ENDBRANCH  19  27
ENDBRANCH   1  19
TORSDOF 4
