REMARK  Name = ZINC37270667
REMARK  11 active torsions:
REMARK  status: ('A' for Active; 'I' for Inactive)
REMARK    1  A    between atoms: C_1  and  C_2
REMARK    2  A    between atoms: C_2  and  C_3
REMARK    3  A    between atoms: C_2  and  C_4
REMARK    4  A    between atoms: C_2  and  C_5
REMARK    5  A    between atoms: C_9  and  C_22
REMARK    6  A    between atoms: C_11  and  N_14
REMARK    7  A    between atoms: N_14  and  C_15
REMARK    8  A    between atoms: N_14  and  C_16
REMARK    9  A    between atoms: C_16  and  C_17
REMARK   10  A    between atoms: N_19  and  C_20
REMARK   11  A    between atoms: N_19  and  C_21
REMARK                            x       y       z     vdW  Elec       q    Type
REMARK                         _______ _______ _______ _____ _____    ______ ____
ROOT
ATOM      1  C   UNL     1       0.790  -0.492  -1.072  0.00  0.00    -0.007 C 
ATOM      2  C   UNL     1       0.803  -2.022  -1.092  0.00  0.00    +0.005 C 
ATOM      3  C   UNL     1       1.449  -2.510  -2.391  0.00  0.00    +0.017 C 
ATOM      4  C   UNL     1       2.884  -1.986  -2.476  0.00  0.00    +0.078 C 
ATOM      5  C   UNL     1       2.870  -0.456  -2.456  0.00  0.00    -0.051 C 
ATOM      6  C   UNL     1       2.225   0.031  -1.157  0.00  0.00    -0.010 C 
ENDROOT
BRANCH   1   8
ATOM      7  C   UNL     1       0.131   1.525   0.246  0.00  0.00    +0.011 C 
ATOM      8  C   UNL     1       0.145  -0.005   0.227  0.00  0.00    -0.035 C 
ATOM      9  C   UNL     1       0.948  -0.524   1.421  0.00  0.00    +0.011 C 
ATOM     10  C   UNL     1      -1.290  -0.529   0.311  0.00  0.00    +0.011 C 
ENDBRANCH   1   8
BRANCH   5  11
ATOM     11  N   UNL     1       4.248   0.047  -2.537  0.00  0.00    +0.386 N 
ATOM     12  C   UNL     1       4.983  -0.341  -1.326  0.00  0.00    -0.095 C 
ATOM     13  H   UNL     1       4.702  -0.347  -3.347  0.00  0.00    -0.081 HD
BRANCH  11  14
ATOM     14  C   UNL     1       4.229   1.512  -2.650  0.00  0.00    +0.019 C 
BRANCH  14  15
ATOM     15  C   UNL     1       5.626   2.014  -2.907  0.00  0.00    +0.199 C 
ATOM     16  O   UNL     1       6.547   1.230  -2.988  0.00  0.00    -0.278 OA
ATOM     17  N   UNL     1       5.852   3.336  -3.046  0.00  0.00    -0.309 N 
ATOM     18  C   UNL     1       7.210   3.824  -3.296  0.00  0.00    +0.131 C 
ATOM     19  C   UNL     1       4.739   4.283  -2.948  0.00  0.00    +0.131 C 
ENDBRANCH  14  15
ENDBRANCH  11  14
ENDBRANCH   5  11
BRANCH   4  20
ATOM     20  C   UNL     1       3.504  -2.454  -3.725  0.00  0.00    +0.064 C 
ATOM     21  N   UNL     1       3.983  -2.816  -4.690  0.00  0.00    -0.196 NA
ENDBRANCH   4  20
TORSDOF 5
