REMARK  Name = ZINC36676798
REMARK  4 active torsions:
REMARK  status: ('A' for Active; 'I' for Inactive)
REMARK    1  A    between atoms: N_13  and  C_17
REMARK    2  A    between atoms: C_17  and  C_18
REMARK    3  A    between atoms: N_20  and  C_21
REMARK    4  A    between atoms: C_26  and  C_27
REMARK                            x       y       z     vdW  Elec       q    Type
REMARK                         _______ _______ _______ _____ _____    ______ ____
ROOT
ATOM      1  C   UNL     1      -0.026   1.379   0.005  0.00  0.00    +0.001 A 
ATOM      2  C   UNL     1       1.158   2.093   0.001  0.00  0.00    +0.004 A 
ATOM      3  C   UNL     1       2.366   1.425  -0.008  0.00  0.00    +0.046 A 
ATOM      4  C   UNL     1       2.396   0.034  -0.011  0.00  0.00    +0.126 A 
ATOM      5  C   UNL     1       1.209  -0.679  -0.004  0.00  0.00    +0.027 A 
ATOM      6  C   UNL     1       0.001  -0.002   0.003  0.00  0.00    +0.010 A 
ATOM      7  C   UNL     1       1.205  -2.182   0.003  0.00  0.00    +0.144 C 
ATOM      8  C   UNL     1       2.568  -2.727  -0.414  0.00  0.00    +0.081 C 
ATOM      9  C   UNL     1       3.651  -1.965   0.361  0.00  0.00    +0.232 C 
ATOM     10  O   UNL     1       3.602  -0.591  -0.026  0.00  0.00    -0.492 OA
ATOM     11  C   UNL     1       0.824  -2.703   1.369  0.00  0.00    +0.252 C 
ATOM     12  O   UNL     1       1.413  -2.524   2.413  0.00  0.00    -0.272 OA
ATOM     13  N   UNL     1      -0.310  -3.409   1.181  0.00  0.00    -0.215 N 
ATOM     14  C   UNL     1      -0.688  -3.403  -0.103  0.00  0.00    +0.310 C 
ATOM     15  O   UNL     1      -1.679  -3.970  -0.518  0.00  0.00    -0.252 OA
ATOM     16  N   UNL     1       0.153  -2.697  -0.883  0.00  0.00    -0.281 N 
ATOM     17  H   UNL     1       0.078  -2.556  -1.839  0.00  0.00    +0.152 HD
ENDROOT
BRANCH  13  18
ATOM     18  C   UNL     1      -1.037  -4.099   2.250  0.00  0.00    +0.214 C 
BRANCH  18  19
ATOM     19  C   UNL     1      -2.055  -3.163   2.849  0.00  0.00    +0.235 C 
ATOM     20  O   UNL     1      -2.163  -2.032   2.425  0.00  0.00    -0.274 OA
ATOM     21  N   UNL     1      -2.846  -3.583   3.856  0.00  0.00    -0.284 N 
ATOM     22  H   UNL     1      -2.816  -4.509   4.142  0.00  0.00    +0.155 HD
BRANCH  21  23
ATOM     23  C   UNL     1      -3.710  -2.683   4.490  0.00  0.00    +0.045 A 
ATOM     24  C   UNL     1      -3.426  -1.323   4.481  0.00  0.00    +0.024 A 
ATOM     25  C   UNL     1      -4.281  -0.437   5.107  0.00  0.00    +0.002 A 
ATOM     26  C   UNL     1      -5.418  -0.902   5.743  0.00  0.00    +0.001 A 
ATOM     27  C   UNL     1      -5.702  -2.255   5.754  0.00  0.00    +0.014 A 
ATOM     28  C   UNL     1      -4.855  -3.146   5.124  0.00  0.00    +0.076 A 
BRANCH  28  29
ATOM     29  C   UNL     1      -5.170  -4.620   5.130  0.00  0.00    +0.419 C 
ATOM     30  F   UNL     1      -6.364  -4.838   5.824  0.00  0.00    -0.166 F 
ATOM     31  F   UNL     1      -5.306  -5.073   3.813  0.00  0.00    -0.166 F 
ATOM     32  F   UNL     1      -4.131  -5.316   5.758  0.00  0.00    -0.166 F 
ENDBRANCH  28  29
ENDBRANCH  21  23
ENDBRANCH  18  19
ENDBRANCH  13  18
TORSDOF 4
