REMARK  Name = ZINC41637371
REMARK  9 active torsions:
REMARK  status: ('A' for Active; 'I' for Inactive)
REMARK    1  A    between atoms: C_1  and  C_2
REMARK    2  A    between atoms: C_2  and  N_3
REMARK    3  A    between atoms: N_3  and  C_4
REMARK    4  A    between atoms: N_3  and  C_6
REMARK    5  A    between atoms: C_4  and  C_5
REMARK    6  A    between atoms: C_6  and  C_8
REMARK    7  A    between atoms: C_6  and  C_14
REMARK    8  A    between atoms: C_11  and  C_13
REMARK    9  A    between atoms: C_20  and  C_22
REMARK                            x       y       z     vdW  Elec       q    Type
REMARK                         _______ _______ _______ _____ _____    ______ ____
ROOT
ATOM      1  C   UNL     1       1.409   1.513   1.916  0.00  0.00    +0.053 A 
ATOM      2  C   UNL     1       1.757   2.624   1.257  0.00  0.00    +0.282 A 
ATOM      3  N   UNL     1       1.290   3.852   1.656  0.00  0.00    -0.169 N 
ATOM      4  C   UNL     1       0.463   3.880   2.746  0.00  0.00    +0.200 A 
ATOM      5  S   UNL     1       0.346   2.164   3.195  0.00  0.00    -0.050 S 
ATOM      6  N   UNL     1       0.107   5.108   2.997  0.00  0.00    -0.197 NA
ATOM      7  C   UNL     1       0.674   5.926   2.100  0.00  0.00    +0.218 A 
ATOM      8  N   UNL     1       1.401   5.212   1.267  0.00  0.00    -0.138 NA
ATOM      9  O   UNL     1       2.584   2.536   0.180  0.00  0.00    -0.265 OA
ENDROOT
BRANCH   7  10
ATOM     10  C   UNL     1       0.511   7.394   2.054  0.00  0.00    +0.173 A 
ATOM     11  C   UNL     1      -0.232   8.142   2.913  0.00  0.00    +0.053 A 
ATOM     12  C   UNL     1      -0.103   9.483   2.500  0.00  0.00    +0.042 A 
ATOM     13  C   UNL     1       0.704   9.488   1.420  0.00  0.00    +0.196 A 
ATOM     14  O   UNL     1       1.077   8.225   1.157  0.00  0.00    -0.460 OA
ENDBRANCH   7  10
BRANCH   1  15
ATOM     15  C   UNL     1       1.804   0.084   1.645  0.00  0.00    +0.042 C 
BRANCH  15  16
ATOM     16  C   UNL     1       2.313  -0.546   2.917  0.00  0.00    +0.097 A 
ATOM     17  C   UNL     1       3.605  -0.683   3.264  0.00  0.00    +0.043 A 
ATOM     18  C   UNL     1       3.624  -1.322   4.526  0.00  0.00    +0.044 A 
ATOM     19  C   UNL     1       2.343  -1.537   4.873  0.00  0.00    +0.102 A 
ATOM     20  O   UNL     1       1.553  -1.060   3.897  0.00  0.00    -0.466 OA
ATOM     21  C   UNL     1       1.873  -2.197   6.144  0.00  0.00    +0.086 C 
ENDBRANCH  15  16
BRANCH  15  22
ATOM     22  N   UNL     1       0.637  -0.665   1.162  0.00  0.00    +0.389 N 
ATOM     23  H   UNL     1      -0.043  -0.743   1.903  0.00  0.00    -0.080 HD
BRANCH  22  25
ATOM     24  C   UNL     1      -0.825   1.198   0.535  0.00  0.00    -0.017 C 
ATOM     25  C   UNL     1       0.039   0.044   0.022  0.00  0.00    -0.081 C 
ENDBRANCH  22  25
BRANCH  22  26
ATOM     26  C   UNL     1       1.056  -2.007   0.738  0.00  0.00    -0.081 C 
ATOM     27  C   UNL     1       1.499  -2.813   1.962  0.00  0.00    -0.017 C 
ENDBRANCH  22  26
ENDBRANCH  15  22
ENDBRANCH   1  15
TORSDOF 6
