REMARK  Name = ZINC42153366
REMARK  10 active torsions:
REMARK  status: ('A' for Active; 'I' for Inactive)
REMARK    1  A    between atoms: C_1  and  C_2
REMARK    2  A    between atoms: C_3  and  C_26
REMARK    3  A    between atoms: N_4  and  C_20
REMARK    4  A    between atoms: C_5  and  S_7
REMARK    5  A    between atoms: S_7  and  C_8
REMARK    6  A    between atoms: C_8  and  C_9
REMARK    7  A    between atoms: C_12  and  S_14
REMARK    8  A    between atoms: S_14  and  N_17
REMARK    9  A    between atoms: N_17  and  C_18
REMARK   10  A    between atoms: N_17  and  C_19
REMARK                            x       y       z     vdW  Elec       q    Type
REMARK                         _______ _______ _______ _____ _____    ______ ____
ROOT
ATOM      1  C   UNL     1      -0.018   1.503   0.010  0.00  0.00    +0.065 C 
ATOM      2  C   UNL     1       0.002  -0.004   0.002  0.00  0.00    +0.034 A 
ATOM      3  C   UNL     1       0.008  -0.785  -1.092  0.00  0.00    +0.037 A 
ATOM      4  N   UNL     1       0.028  -2.090  -0.654  0.00  0.00    -0.321 N 
ATOM      5  C   UNL     1       0.034  -2.053   0.707  0.00  0.00    +0.148 A 
ATOM      6  N   UNL     1       0.024  -0.796   1.087  0.00  0.00    -0.338 N 
ATOM      7  C   UNL     1      -0.006  -0.320  -2.525  0.00  0.00    +0.065 C 
ATOM      8  H   UNL     1       0.028  -0.488   2.007  0.00  0.00    +0.168 HD
ENDROOT
BRANCH   4   9
ATOM      9  C   UNL     1       0.041  -3.291  -1.493  0.00  0.00    +0.089 C 
ATOM     10  C   UNL     1      -1.195  -4.139  -1.187  0.00  0.00    +0.025 C 
ATOM     11  C   UNL     1      -1.182  -5.393  -2.064  0.00  0.00    +0.002 C 
ATOM     12  C   UNL     1       0.080  -6.207  -1.771  0.00  0.00    +0.000 C 
ATOM     13  C   UNL     1       1.316  -5.358  -2.077  0.00  0.00    +0.002 C 
ATOM     14  C   UNL     1       1.303  -4.104  -1.200  0.00  0.00    +0.025 C 
ENDBRANCH   4   9
BRANCH   5  15
ATOM     15  S   UNL     1       0.059  -3.453   1.776  0.00  0.00    -0.082 S 
BRANCH  15  16
ATOM     16  C   UNL     1       0.057  -2.734   3.441  0.00  0.00    +0.151 C 
BRANCH  16  17
ATOM     17  C   UNL     1       0.078  -3.839   4.466  0.00  0.00    +0.118 A 
ATOM     18  C   UNL     1       1.180  -4.396   4.999  0.00  0.00    +0.047 A 
ATOM     19  C   UNL     1       0.739  -5.385   5.909  0.00  0.00    +0.071 A 
ATOM     20  C   UNL     1      -0.606  -5.372   5.877  0.00  0.00    +0.258 A 
ATOM     21  O   UNL     1      -1.001  -4.430   5.005  0.00  0.00    -0.441 OA
BRANCH  20  22
ATOM     22  S   UNL     1      -1.669  -6.411   6.823  0.00  0.00    +0.093 S 
ATOM     23  O   UNL     1      -2.901  -6.481   6.118  0.00  0.00    -0.150 OA
ATOM     24  O   UNL     1      -0.915  -7.569   7.155  0.00  0.00    -0.150 OA
BRANCH  22  25
ATOM     25  N   UNL     1      -1.982  -5.625   8.247  0.00  0.00    -0.180 NA
ATOM     26  C   UNL     1      -3.132  -4.723   8.348  0.00  0.00    +0.131 C 
ATOM     27  C   UNL     1      -1.109  -5.832   9.405  0.00  0.00    +0.131 C 
ENDBRANCH  22  25
ENDBRANCH  20  22
ENDBRANCH  16  17
ENDBRANCH  15  16
ENDBRANCH   5  15
TORSDOF 6
