REMARK  Name = ZINC10208266
REMARK  7 active torsions:
REMARK  status: ('A' for Active; 'I' for Inactive)
REMARK    1  A    between atoms: C_1  and  C_2
REMARK    2  A    between atoms: C_2  and  C_4
REMARK    3  A    between atoms: C_2  and  N_10
REMARK    4  A    between atoms: N_13  and  C_14
REMARK    5  A    between atoms: C_14  and  C_15
REMARK    6  A    between atoms: C_18  and  S_20
REMARK    7  A    between atoms: S_20  and  N_23
REMARK                            x       y       z     vdW  Elec       q    Type
REMARK                         _______ _______ _______ _____ _____    ______ ____
ROOT
ATOM      1  C   UNL     1       3.791  -0.395  -0.036  0.00  0.00    +0.148 C 
ENDROOT
BRANCH   1   5
ATOM      2  N   UNL     1       5.913  -1.087  -2.958  0.00  0.00    -0.293 N 
ATOM      3  C   UNL     1       5.498  -0.954  -1.682  0.00  0.00    +0.300 C 
ATOM      4  O   UNL     1       6.258  -1.205  -0.766  0.00  0.00    -0.253 OA
ATOM      5  N   UNL     1       4.242  -0.541  -1.422  0.00  0.00    -0.295 N 
ATOM      6  H   UNL     1       5.308  -0.887  -3.688  0.00  0.00    +0.151 HD
ATOM      7  H   UNL     1       3.636  -0.340  -2.153  0.00  0.00    +0.151 HD
BRANCH   2   9
ATOM      8  C   UNL     1       7.328  -3.065  -3.218  0.00  0.00    +0.033 C 
ATOM      9  C   UNL     1       7.279  -1.536  -3.240  0.00  0.00    +0.102 C 
BRANCH   9  10
ATOM     10  C   UNL     1       7.699  -1.040  -4.600  0.00  0.00    -0.027 A 
ATOM     11  C   UNL     1       6.801  -1.055  -5.649  0.00  0.00    +0.005 A 
ATOM     12  C   UNL     1       7.185  -0.595  -6.895  0.00  0.00    +0.000 A 
ATOM     13  C   UNL     1       8.471  -0.129  -7.093  0.00  0.00    +0.000 A 
ATOM     14  C   UNL     1       9.372  -0.119  -6.045  0.00  0.00    +0.000 A 
ATOM     15  C   UNL     1       8.986  -0.574  -4.798  0.00  0.00    +0.005 A 
ENDBRANCH   9  10
ENDBRANCH   2   9
ENDBRANCH   1   5
BRANCH   1  16
ATOM     16  C   UNL     1       2.360   0.076  -0.020  0.00  0.00    +0.009 A 
ATOM     17  C   UNL     1       1.220  -0.658  -0.013  0.00  0.00    +0.015 A 
ATOM     18  C   UNL     1       0.002  -0.004   0.002  0.00  0.00    +0.037 A 
ATOM     19  C   UNL     1      -0.016   1.351   0.009  0.00  0.00    +0.143 A 
ATOM     20  S   UNL     1       1.725   1.744  -0.005  0.00  0.00    -0.072 S 
BRANCH  19  21
ATOM     21  S   UNL     1      -1.400   2.442   0.022  0.00  0.00    +0.067 S 
ATOM     22  O   UNL     1      -0.951   3.675  -0.524  0.00  0.00    -0.152 OA
ATOM     23  O   UNL     1      -2.493   1.719  -0.527  0.00  0.00    -0.152 OA
BRANCH  21  24
ATOM     24  N   UNL     1      -1.776   2.737   1.608  0.00  0.00    -0.172 NA
ATOM     25  C   UNL     1      -2.735   1.884   2.330  0.00  0.00    +0.137 C 
ATOM     26  C   UNL     1      -2.086   1.449   3.653  0.00  0.00    +0.177 C 
ATOM     27  O   UNL     1      -1.617   2.606   4.349  0.00  0.00    -0.377 OA
ATOM     28  C   UNL     1      -0.599   3.333   3.656  0.00  0.00    +0.177 C 
ATOM     29  C   UNL     1      -1.168   3.862   2.334  0.00  0.00    +0.137 C 
ENDBRANCH  21  24
ENDBRANCH  19  21
ENDBRANCH   1  16
TORSDOF 6
