REMARK  Name = ZINC06328984
REMARK  5 active torsions:
REMARK  status: ('A' for Active; 'I' for Inactive)
REMARK    1  A    between atoms: C_3  and  C_9
REMARK    2  A    between atoms: N_10  and  N_11
REMARK    3  A    between atoms: C_12  and  C_14
REMARK    4  A    between atoms: C_14  and  S_15
REMARK    5  A    between atoms: S_15  and  C_16
REMARK                            x       y       z     vdW  Elec       q    Type
REMARK                         _______ _______ _______ _____ _____    ______ ____
ROOT
ATOM      1  N   UNL     1       5.990   2.242  -0.044  0.00  0.00    -0.206 N 
ATOM      2  C   UNL     1       7.165   1.583  -0.059  0.00  0.00    +0.242 C 
ATOM      3  O   UNL     1       7.180   0.370  -0.065  0.00  0.00    -0.273 OA
ATOM      4  H   UNL     1       5.978   3.212  -0.039  0.00  0.00    +0.177 HD
ENDROOT
BRANCH   1   6
ATOM      5  C   UNL     1       3.654   2.162  -0.022  0.00  0.00    +0.139 C 
ATOM      6  N   UNL     1       4.785   1.527  -0.036  0.00  0.00    -0.188 NA
BRANCH   5   9
ATOM      7  C   UNL     1      -0.017   1.379   0.010  0.00  0.00    +0.002 A 
ATOM      8  C   UNL     1       1.166   2.089   0.002  0.00  0.00    +0.011 A 
ATOM      9  C   UNL     1       2.386   1.409  -0.013  0.00  0.00    +0.014 A 
ATOM     10  C   UNL     1       2.399   0.011  -0.021  0.00  0.00    +0.068 A 
ATOM     11  C   UNL     1       1.207  -0.687  -0.013  0.00  0.00    +0.060 A 
ATOM     12  C   UNL     1       0.002  -0.004   0.002  0.00  0.00    +0.021 A 
ATOM     13 CL   UNL     1       1.219  -2.423  -0.023  0.00  0.00    -0.082 Cl
ATOM     14 CL   UNL     1       3.909  -0.845  -0.041  0.00  0.00    -0.081 Cl
ENDBRANCH   5   9
ENDBRANCH   1   6
BRANCH   2  15
ATOM     15  C   UNL     1       8.461   2.352  -0.068  0.00  0.00    +0.173 C 
BRANCH  15  16
ATOM     16  S   UNL     1       9.854   1.190  -0.087  0.00  0.00    -0.088 S 
BRANCH  16  17
ATOM     17  C   UNL     1      11.276   2.230  -0.096  0.00  0.00    +0.160 A 
ATOM     18  N   UNL     1      11.349   3.547  -0.084  0.00  0.00    -0.133 NA
ATOM     19  N   UNL     1      12.578   4.165  -0.094  0.00  0.00    -0.125 NA
ATOM     20  C   UNL     1      13.678   3.438  -0.115  0.00  0.00    +0.180 A 
ATOM     21  S   UNL     1      13.006   1.783  -0.115  0.00  0.00    -0.025 S 
ATOM     22  N   UNL     1      15.006   3.849  -0.128  0.00  0.00    -0.336 N 
ATOM     23  H   UNL     1      15.221   4.795  -0.121  0.00  0.00    +0.144 HD
ATOM     24  H   UNL     1      15.717   3.190  -0.143  0.00  0.00    +0.144 HD
ENDBRANCH  16  17
ENDBRANCH  15  16
ENDBRANCH   2  15
TORSDOF 5
