REMARK  Name = ZINC49545908
REMARK  9 active torsions:
REMARK  status: ('A' for Active; 'I' for Inactive)
REMARK    1  A    between atoms: C_1  and  N_2
REMARK    2  A    between atoms: C_8  and  C_21
REMARK    3  A    between atoms: N_13  and  C_14
REMARK    4  A    between atoms: C_24  and  O_31
REMARK    5  A    between atoms: C_25  and  O_29
REMARK    6  A    between atoms: C_26  and  O_27
REMARK    7  A    between atoms: O_27  and  C_28
REMARK    8  A    between atoms: O_29  and  C_30
REMARK    9  A    between atoms: O_31  and  C_32
REMARK                            x       y       z     vdW  Elec       q    Type
REMARK                         _______ _______ _______ _____ _____    ______ ____
ROOT
ATOM      1  C   UNL     1      -0.154   1.555   0.841  0.00  0.00    +0.154 C 
ATOM      2  N   UNL     1      -0.059   0.095   0.779  0.00  0.00    -0.293 N 
ATOM      3  C   UNL     1      -1.168  -0.654   0.490  0.00  0.00    +0.126 A 
ATOM      4  C   UNL     1      -0.963  -1.988   0.451  0.00  0.00    +0.042 A 
ATOM      5  S   UNL     1       0.756  -2.151   0.825  0.00  0.00    -0.029 S 
ATOM      6  C   UNL     1       1.123  -0.517   1.001  0.00  0.00    +0.292 A 
ATOM      7  O   UNL     1       2.198  -0.009   1.267  0.00  0.00    -0.259 OA
ATOM      8  C   UNL     1      -1.993  -3.024   0.149  0.00  0.00    +0.072 C 
ATOM      9  C   UNL     1      -3.364  -2.470   0.561  0.00  0.00    +0.110 C 
ATOM     10  C   UNL     1      -3.491  -1.028   0.159  0.00  0.00    +0.226 C 
ATOM     11  O   UNL     1      -4.565  -0.629  -0.241  0.00  0.00    -0.275 OA
ATOM     12  N   UNL     1      -2.466  -0.159   0.225  0.00  0.00    -0.225 N 
ENDROOT
BRANCH  12  13
ATOM     13  C   UNL     1      -2.681   1.212   0.033  0.00  0.00    +0.043 A 
ATOM     14  C   UNL     1      -2.467   1.782  -1.215  0.00  0.00    +0.027 A 
ATOM     15  C   UNL     1      -2.679   3.134  -1.401  0.00  0.00    +0.040 A 
ATOM     16  C   UNL     1      -3.105   3.921  -0.345  0.00  0.00    +0.124 A 
ATOM     17  C   UNL     1      -3.319   3.355   0.901  0.00  0.00    +0.040 A 
ATOM     18  C   UNL     1      -3.113   2.002   1.090  0.00  0.00    +0.027 A 
ATOM     19  F   UNL     1      -3.311   5.244  -0.529  0.00  0.00    -0.205 F 
ENDBRANCH  12  13
BRANCH   8  20
ATOM     20  C   UNL     1      -1.989  -3.329  -1.327  0.00  0.00    +0.007 A 
ATOM     21  C   UNL     1      -2.246  -2.323  -2.240  0.00  0.00    +0.011 A 
ATOM     22  C   UNL     1      -2.244  -2.597  -3.595  0.00  0.00    +0.050 A 
ATOM     23  C   UNL     1      -1.984  -3.884  -4.044  0.00  0.00    +0.165 A 
ATOM     24  C   UNL     1      -1.724  -4.897  -3.129  0.00  0.00    +0.204 A 
ATOM     25  C   UNL     1      -1.722  -4.616  -1.768  0.00  0.00    +0.169 A 
BRANCH  25  26
ATOM     26  O   UNL     1      -1.464  -5.603  -0.869  0.00  0.00    -0.491 OA
ATOM     27  C   UNL     1      -2.582  -6.350  -0.386  0.00  0.00    +0.277 C 
ENDBRANCH  25  26
BRANCH  24  28
ATOM     28  O   UNL     1      -1.468  -6.161  -3.565  0.00  0.00    -0.488 OA
ATOM     29  C   UNL     1      -0.103  -6.493  -3.826  0.00  0.00    +0.277 C 
ENDBRANCH  24  28
BRANCH  23  30
ATOM     30  O   UNL     1      -1.983  -4.153  -5.377  0.00  0.00    -0.491 OA
ATOM     31  C   UNL     1      -2.258  -3.063  -6.259  0.00  0.00    +0.277 C 
ENDBRANCH  23  30
ENDBRANCH   8  20
TORSDOF 5
