REMARK  Name = ZINC36498320
REMARK  12 active torsions:
REMARK  status: ('A' for Active; 'I' for Inactive)
REMARK    1  A    between atoms: C_1  and  C_2
REMARK    2  A    between atoms: C_5  and  S_8
REMARK    3  A    between atoms: S_8  and  C_11
REMARK    4  A    between atoms: C_11  and  N_12
REMARK    5  A    between atoms: C_13  and  C_15
REMARK    6  A    between atoms: C_15  and  C_17
REMARK    7  A    between atoms: C_15  and  N_25
REMARK    8  A    between atoms: C_20  and  C_24
REMARK    9  A    between atoms: C_22  and  C_23
REMARK   10  A    between atoms: N_25  and  C_26
REMARK   11  A    between atoms: C_26  and  C_27
REMARK   12  A    between atoms: C_32  and  C_34
REMARK                            x       y       z     vdW  Elec       q    Type
REMARK                         _______ _______ _______ _____ _____    ______ ____
ROOT
ATOM      1  C   UNL     1       3.318  -5.497   3.421  0.00  0.00    +0.193 C 
ENDROOT
BRANCH   1   2
ATOM      2  C   UNL     1       4.542  -4.766   2.932  0.00  0.00    -0.015 A 
ATOM      3  C   UNL     1       5.022  -4.997   1.656  0.00  0.00    +0.006 A 
ATOM      4  C   UNL     1       6.144  -4.327   1.207  0.00  0.00    +0.004 A 
ATOM      5  C   UNL     1       6.787  -3.425   2.035  0.00  0.00    -0.050 A 
ATOM      6  C   UNL     1       6.307  -3.193   3.310  0.00  0.00    +0.007 A 
ATOM      7  C   UNL     1       5.182  -3.860   3.757  0.00  0.00    -0.045 A 
ATOM      8  C   UNL     1       4.656  -3.603   5.145  0.00  0.00    +0.044 C 
ATOM      9  C   UNL     1       8.012  -2.696   1.546  0.00  0.00    +0.044 C 
ENDBRANCH   1   2
BRANCH   1  11
ATOM     10  N   UNL     1       1.957  -5.322   1.363  0.00  0.00    -0.294 N 
ATOM     11  C   UNL     1       2.598  -6.111   2.248  0.00  0.00    +0.239 C 
ATOM     12  O   UNL     1       2.595  -7.315   2.101  0.00  0.00    -0.273 OA
ATOM     13  H   UNL     1       1.894  -4.367   1.520  0.00  0.00    +0.150 HD
BRANCH  10  14
ATOM     14  C   UNL     1       1.356  -5.908   0.162  0.00  0.00    +0.278 C 
BRANCH  14  15
ATOM     15  S   UNL     1      -0.399  -6.250   0.469  0.00  0.00    +0.013 S 
ATOM     16  O   UNL     1      -0.556  -6.916   1.715  0.00  0.00    -0.168 OA
ATOM     17  O   UNL     1      -1.012  -6.760  -0.707  0.00  0.00    -0.168 OA
BRANCH  15  22
ATOM     18  C   UNL     1      -2.920  -0.831   1.292  0.00  0.00    +0.044 C 
ATOM     19  C   UNL     1      -2.290  -2.184   1.087  0.00  0.00    -0.050 A 
ATOM     20  C   UNL     1      -2.221  -2.729  -0.182  0.00  0.00    +0.005 A 
ATOM     21  C   UNL     1      -1.643  -3.971  -0.370  0.00  0.00    +0.027 A 
ATOM     22  C   UNL     1      -1.134  -4.667   0.710  0.00  0.00    +0.090 A 
ATOM     23  C   UNL     1      -1.202  -4.122   1.978  0.00  0.00    +0.027 A 
ATOM     24  C   UNL     1      -1.776  -2.879   2.166  0.00  0.00    +0.005 A 
ENDBRANCH  15  22
ENDBRANCH  14  15
ENDBRANCH  10  14
ENDBRANCH   1  11
BRANCH   1  25
ATOM     25  N   UNL     1       3.720  -6.552   4.354  0.00  0.00    -0.272 N 
ATOM     26  C   UNL     1       4.633  -7.470   3.981  0.00  0.00    +0.283 C 
ATOM     27  O   UNL     1       5.187  -7.373   2.902  0.00  0.00    -0.267 OA
BRANCH  26  28
ATOM     28  C   UNL     1       4.958  -8.586   4.876  0.00  0.00    +0.189 A 
ATOM     29  C   UNL     1       5.937  -9.517   4.674  0.00  0.00    +0.054 A 
ATOM     30  C   UNL     1       5.895 -10.390   5.772  0.00  0.00    +0.042 A 
ATOM     31  C   UNL     1       4.906  -9.960   6.585  0.00  0.00    +0.196 A 
ATOM     32  O   UNL     1       4.346  -8.870   6.044  0.00  0.00    -0.458 OA
ENDBRANCH  26  28
BRANCH  25  33
ATOM     33  C   UNL     1       3.129  -6.608   5.694  0.00  0.00    +0.183 C 
BRANCH  33  34
ATOM     34  C   UNL     1       1.804  -7.323   5.628  0.00  0.00    +0.122 A 
ATOM     35  C   UNL     1       1.620  -8.652   5.734  0.00  0.00    +0.046 A 
ATOM     36  C   UNL     1       0.231  -8.884   5.617  0.00  0.00    +0.041 A 
ATOM     37  C   UNL     1      -0.352  -7.684   5.447  0.00  0.00    +0.195 A 
ATOM     38  O   UNL     1       0.605  -6.741   5.460  0.00  0.00    -0.466 OA
ENDBRANCH  33  34
ENDBRANCH  25  33
ENDBRANCH   1  25
TORSDOF 9
