REMARK  Name = ZINC08816042
REMARK  8 active torsions:
REMARK  status: ('A' for Active; 'I' for Inactive)
REMARK    1  A    between atoms: C_1  and  C_2
REMARK    2  A    between atoms: C_2  and  C_3
REMARK    3  A    between atoms: C_2  and  C_4
REMARK    4  A    between atoms: C_4  and  O_5
REMARK    5  A    between atoms: O_5  and  C_6
REMARK    6  A    between atoms: C_10  and  O_25
REMARK    7  A    between atoms: C_13  and  C_15
REMARK    8  A    between atoms: N_17  and  C_18
REMARK                            x       y       z     vdW  Elec       q    Type
REMARK                         _______ _______ _______ _____ _____    ______ ____
ROOT
ATOM      1  C   UNL     1       1.891   3.114   0.435  0.00  0.00    +0.404 C 
ATOM      2  O   UNL     1       3.084   3.335   0.370  0.00  0.00    -0.226 OA
ATOM      3  N   UNL     1       1.399   1.939  -0.004  0.00  0.00    -0.253 N 
ATOM      4  C   UNL     1      -0.021   1.540   0.016  0.00  0.00    +0.143 C 
ATOM      5  C   UNL     1       0.002  -0.009   0.017  0.00  0.00    +0.134 C 
ATOM      6  C   UNL     1       1.207  -0.303  -0.914  0.00  0.00    +0.065 C 
ATOM      7  C   UNL     1       2.188   0.842  -0.583  0.00  0.00    +0.168 C 
ENDROOT
BRANCH   7   8
ATOM      8  C   UNL     1       3.213   0.366   0.414  0.00  0.00    +0.238 C 
ATOM      9  O   UNL     1       3.089   0.641   1.589  0.00  0.00    -0.273 OA
ATOM     10  N   UNL     1       4.267  -0.365   0.000  0.00  0.00    -0.284 N 
ATOM     11  H   UNL     1       4.331  -0.642  -0.927  0.00  0.00    +0.155 HD
BRANCH  10  12
ATOM     12  C   UNL     1       5.269  -0.724   0.909  0.00  0.00    +0.034 A 
ATOM     13  C   UNL     1       6.592  -0.798   0.492  0.00  0.00    +0.024 A 
ATOM     14  C   UNL     1       7.579  -1.147   1.393  0.00  0.00    +0.016 A 
ATOM     15  C   UNL     1       7.250  -1.435   2.705  0.00  0.00    +0.013 A 
ATOM     16  C   UNL     1       5.932  -1.368   3.122  0.00  0.00    +0.016 A 
ATOM     17  C   UNL     1       4.941  -1.014   2.227  0.00  0.00    +0.024 A 
ATOM     18  I   UNL     1       8.750  -1.972   4.066  0.00  0.00    -0.044 I 
ENDBRANCH  10  12
ENDBRANCH   7   8
BRANCH   5  19
ATOM     19  O   UNL     1      -1.208  -0.539  -0.529  0.00  0.00    -0.390 OA
ATOM     20  H   UNL     1      -2.002  -0.297  -0.033  0.00  0.00    +0.210 HD
ENDBRANCH   5  19
BRANCH   1  21
ATOM     21  O   UNL     1       1.061   4.042   0.947  0.00  0.00    -0.450 OA
BRANCH  21  22
ATOM     22  C   UNL     1       1.661   5.284   1.401  0.00  0.00    +0.236 C 
BRANCH  22  24
ATOM     23  C   UNL     1      -0.054   5.580   3.194  0.00  0.00    +0.010 C 
ATOM     24  C   UNL     1       0.570   6.208   1.946  0.00  0.00    +0.021 C 
ATOM     25  C   UNL     1       1.182   7.563   2.308  0.00  0.00    +0.010 C 
ENDBRANCH  22  24
ENDBRANCH  21  22
ENDBRANCH   1  21
TORSDOF 6
