REMARK  Name = ZINC09386601
REMARK  9 active torsions:
REMARK  status: ('A' for Active; 'I' for Inactive)
REMARK    1  A    between atoms: C_1  and  N_51
REMARK    2  A    between atoms: C_2  and  N_51
REMARK    3  A    between atoms: C_3  and  C_4
REMARK    4  A    between atoms: C_3  and  N_51
REMARK    5  A    between atoms: C_4  and  C_5
REMARK    6  A    between atoms: C_5  and  N_6
REMARK    7  A    between atoms: C_18  and  C_20
REMARK    8  A    between atoms: C_20  and  S_21
REMARK    9  A    between atoms: S_21  and  C_24
REMARK                            x       y       z     vdW  Elec       q    Type
REMARK                         _______ _______ _______ _____ _____    ______ ____
ROOT
ATOM      1  N   UNL     1      -0.698   1.558   1.213  0.00  0.00    -0.249 N 
ATOM      2  C   UNL     1      -0.343   2.771   1.782  0.00  0.00    +0.168 A 
ATOM      3  N   UNL     1       0.575   3.624   1.395  0.00  0.00    -0.221 NA
ATOM      4  C   UNL     1       0.814   4.782   2.050  0.00  0.00    +0.116 A 
ATOM      5  C   UNL     1       1.765   5.784   1.737  0.00  0.00    +0.152 A 
ATOM      6  C   UNL     1       1.883   6.906   2.517  0.00  0.00    +0.079 A 
ATOM      7  C   UNL     1       1.080   7.101   3.634  0.00  0.00    +0.127 A 
ATOM      8  C   UNL     1       0.140   6.141   3.968  0.00  0.00    +0.055 A 
ATOM      9  C   UNL     1       0.016   5.014   3.193  0.00  0.00    +0.046 A 
ATOM     10  S   UNL     1      -1.014   3.567   3.235  0.00  0.00    -0.052 S 
ATOM     11  F   UNL     1       1.215   8.215   4.386  0.00  0.00    -0.205 F 
ATOM     12  F   UNL     1       2.565   5.631   0.659  0.00  0.00    -0.203 F 
ATOM     13  C   UNL     1      -1.675   0.814   1.769  0.00  0.00    +0.243 C 
ATOM     14  O   UNL     1      -2.242   1.205   2.767  0.00  0.00    -0.273 OA
ENDROOT
BRANCH   1  15
ATOM     15  C   UNL     1      -0.013   1.086   0.008  0.00  0.00    +0.114 C 
BRANCH  15  16
ATOM     16  C   UNL     1      -0.753   1.593  -1.232  0.00  0.00    +0.001 C 
BRANCH  16  17
ATOM     17  C   UNL     1      -0.037   1.099  -2.490  0.00  0.00    -0.078 C 
BRANCH  17  20
ATOM     18  C   UNL     1       0.035   1.336  -4.899  0.00  0.00    -0.097 C 
ATOM     19  C   UNL     1      -2.083   0.983  -3.779  0.00  0.00    -0.097 C 
ATOM     20  N   UNL     1      -0.750   1.614  -3.678  0.00  0.00    +0.376 N 
ATOM     21  H   UNL     1      -0.869   2.630  -3.581  0.00  0.00    -0.083 HD
ENDBRANCH  17  20
ENDBRANCH  16  17
ENDBRANCH  15  16
ENDBRANCH   1  15
BRANCH  13  22
ATOM     22  C   UNL     1      -2.061  -0.505   1.150  0.00  0.00    +0.267 C 
BRANCH  22  23
ATOM     23  S   UNL     1      -3.393  -1.262   2.121  0.00  0.00    +0.005 S 
ATOM     24  O   UNL     1      -2.909  -1.646   3.401  0.00  0.00    -0.169 OA
ATOM     25  O   UNL     1      -4.584  -0.496   1.997  0.00  0.00    -0.169 OA
BRANCH  23  26
ATOM     26  C   UNL     1      -3.747  -2.780   1.300  0.00  0.00    +0.089 A 
ATOM     27  C   UNL     1      -4.702  -2.819   0.301  0.00  0.00    +0.030 A 
ATOM     28  C   UNL     1      -4.976  -4.008  -0.347  0.00  0.00    +0.040 A 
ATOM     29  C   UNL     1      -4.302  -5.163   0.012  0.00  0.00    +0.124 A 
ATOM     30  C   UNL     1      -3.349  -5.124   1.016  0.00  0.00    +0.040 A 
ATOM     31  C   UNL     1      -3.073  -3.932   1.659  0.00  0.00    +0.030 A 
ATOM     32  F   UNL     1      -4.573  -6.327  -0.618  0.00  0.00    -0.205 F 
ENDBRANCH  23  26
ENDBRANCH  22  23
ENDBRANCH  13  22
TORSDOF 7
