REMARK  Name = ZINC48767468
REMARK  6 active torsions:
REMARK  status: ('A' for Active; 'I' for Inactive)
REMARK    1  A    between atoms: C_3  and  C_6
REMARK    2  A    between atoms: C_6  and  C_8
REMARK    3  A    between atoms: C_6  and  N_23
REMARK    4  A    between atoms: C_8  and  N_9
REMARK    5  A    between atoms: C_10  and  C_12
REMARK    6  A    between atoms: N_14  and  C_15
REMARK                            x       y       z     vdW  Elec       q    Type
REMARK                         _______ _______ _______ _____ _____    ______ ____
ROOT
ATOM      1  N   UNL     1       3.543   1.708  -2.189  0.00  0.00    -0.309 N 
ATOM      2  C   UNL     1       3.704   1.747  -3.526  0.00  0.00    +0.299 C 
ATOM      3  O   UNL     1       4.284   0.845  -4.095  0.00  0.00    -0.265 OA
ATOM      4  H   UNL     1       3.079   2.429  -1.735  0.00  0.00    +0.149 HD
ENDROOT
BRANCH   2   5
ATOM      5  C   UNL     1       3.167   2.900  -4.310  0.00  0.00    +0.303 C 
ATOM      6  O   UNL     1       2.587   3.802  -3.741  0.00  0.00    -0.265 OA
ATOM      7  N   UNL     1       3.328   2.939  -5.647  0.00  0.00    -0.276 N 
ATOM      8  H   UNL     1       3.853   2.256  -6.093  0.00  0.00    +0.155 HD
BRANCH   7   9
ATOM      9  C   UNL     1       2.738   3.964  -6.392  0.00  0.00    +0.054 A 
ATOM     10  C   UNL     1       2.607   5.235  -5.846  0.00  0.00    +0.044 A 
ATOM     11  C   UNL     1       2.024   6.246  -6.586  0.00  0.00    +0.043 A 
ATOM     12  C   UNL     1       1.570   5.994  -7.869  0.00  0.00    +0.021 A 
ATOM     13  C   UNL     1       1.699   4.730  -8.415  0.00  0.00    +0.023 A 
ATOM     14  C   UNL     1       2.287   3.716  -7.684  0.00  0.00    +0.062 A 
ATOM     15 CL   UNL     1       2.455   2.132  -8.373  0.00  0.00    -0.082 Cl
ATOM     16 CL   UNL     1       1.859   7.834  -5.904  0.00  0.00    -0.083 Cl
ENDBRANCH   7   9
ENDBRANCH   2   5
BRANCH   1  17
ATOM     17  C   UNL     1       4.069   0.577  -1.421  0.00  0.00    +0.097 C 
BRANCH  17  18
ATOM     18  C   UNL     1       3.645   0.713   0.043  0.00  0.00    +0.016 C 
BRANCH  18  19
ATOM     19  N   UNL     1       4.273  -0.352   0.836  0.00  0.00    +0.387 N 
ATOM     20  C   UNL     1       5.743  -0.148   0.895  0.00  0.00    -0.078 C 
ATOM     21  C   UNL     1       6.161  -0.945   2.157  0.00  0.00    -0.020 C 
ATOM     22  C   UNL     1       4.988  -0.689   3.131  0.00  0.00    -0.020 C 
ATOM     23  C   UNL     1       3.800  -0.292   2.236  0.00  0.00    -0.078 C 
ATOM     24  H   UNL     1       4.062  -1.254   0.436  0.00  0.00    -0.081 HD
ENDBRANCH  18  19
BRANCH  18  27
ATOM     25  C   UNL     1      -0.013   1.063   0.322  0.00  0.00    +0.041 A 
ATOM     26  C   UNL     1       1.283   1.623   0.259  0.00  0.00    +0.043 A 
ATOM     27  C   UNL     1       2.146   0.597   0.144  0.00  0.00    +0.093 A 
ATOM     28  O   UNL     1       1.444  -0.548   0.133  0.00  0.00    -0.469 OA
ATOM     29  C   UNL     1       0.134  -0.271   0.241  0.00  0.00    +0.195 A 
ENDBRANCH  18  27
ENDBRANCH  17  18
ENDBRANCH   1  17
TORSDOF 6
