REMARK  Name = ZINC38089595
REMARK  7 active torsions:
REMARK  status: ('A' for Active; 'I' for Inactive)
REMARK    1  A    between atoms: C_1  and  C_2
REMARK    2  A    between atoms: C_2  and  C_4
REMARK    3  A    between atoms: C_2  and  N_11
REMARK    4  A    between atoms: C_9  and  O_10
REMARK    5  A    between atoms: N_11  and  C_12
REMARK    6  A    between atoms: C_13  and  C_15
REMARK    7  A    between atoms: C_16  and  C_17
REMARK                            x       y       z     vdW  Elec       q    Type
REMARK                         _______ _______ _______ _____ _____    ______ ____
ROOT
ATOM      1  N   UNL     1       0.756  -0.552   1.134  0.00  0.00    -0.287 N 
ATOM      2  C   UNL     1       0.254  -0.385   2.500  0.00  0.00    +0.133 C 
ATOM      3  C   UNL     1       1.910  -1.213   0.916  0.00  0.00    +0.292 C 
ATOM      4  O   UNL     1       2.327  -1.352  -0.219  0.00  0.00    -0.260 OA
ENDROOT
BRANCH   1   6
ATOM      5  C   UNL     1      -0.011   1.527   0.099  0.00  0.00    +0.033 C 
ATOM      6  C   UNL     1       0.004   0.000   0.004  0.00  0.00    +0.107 C 
BRANCH   6   7
ATOM      7  C   UNL     1      -1.411  -0.519   0.041  0.00  0.00    +0.014 A 
ATOM      8  C   UNL     1      -2.436   0.298   0.475  0.00  0.00    +0.009 A 
ATOM      9  C   UNL     1      -3.734  -0.178   0.509  0.00  0.00    +0.001 A 
ATOM     10  C   UNL     1      -4.008  -1.473   0.109  0.00  0.00    +0.004 A 
ATOM     11  C   UNL     1      -2.986  -2.294  -0.326  0.00  0.00    +0.046 A 
ATOM     12  C   UNL     1      -1.684  -1.817  -0.367  0.00  0.00    +0.122 A 
BRANCH  12  13
ATOM     13  O   UNL     1      -0.678  -2.621  -0.800  0.00  0.00    -0.506 OA
ATOM     14  H   UNL     1      -0.260  -3.140  -0.099  0.00  0.00    +0.292 HD
ENDBRANCH  12  13
ENDBRANCH   6   7
ENDBRANCH   1   6
BRANCH   3  15
ATOM     15  C   UNL     1       2.645  -1.752   2.020  0.00  0.00    -0.003 C 
ATOM     16  C   UNL     1       3.248  -2.194   2.925  0.00  0.00    -0.057 C 
BRANCH  16  17
ATOM     17  C   UNL     1       3.984  -2.734   4.029  0.00  0.00    +0.025 A 
ATOM     18  C   UNL     1       3.505  -2.581   5.334  0.00  0.00    +0.017 A 
ATOM     19  C   UNL     1       4.218  -3.104   6.392  0.00  0.00    +0.001 A 
ATOM     20  C   UNL     1       5.406  -3.777   6.165  0.00  0.00    +0.000 A 
ATOM     21  C   UNL     1       5.887  -3.932   4.877  0.00  0.00    +0.001 A 
ATOM     22  C   UNL     1       5.181  -3.420   3.808  0.00  0.00    +0.017 A 
ENDBRANCH  16  17
ENDBRANCH   3  15
TORSDOF 5
