REMARK  Name = ZINC28686561
REMARK  7 active torsions:
REMARK  status: ('A' for Active; 'I' for Inactive)
REMARK    1  A    between atoms: C_1  and  C_2
REMARK    2  A    between atoms: C_2  and  C_3
REMARK    3  A    between atoms: C_2  and  C_4
REMARK    4  A    between atoms: C_2  and  C_5
REMARK    5  A    between atoms: C_8  and  N_11
REMARK    6  A    between atoms: N_11  and  S_12
REMARK    7  A    between atoms: S_12  and  C_15
REMARK                            x       y       z     vdW  Elec       q    Type
REMARK                         _______ _______ _______ _____ _____    ______ ____
ROOT
ATOM      1  S   UNL     1       6.044   4.025   0.060  0.00  0.00    +0.072 S 
ATOM      2  O   UNL     1       6.577   3.475   1.257  0.00  0.00    -0.150 OA
ATOM      3  O   UNL     1       4.729   4.558  -0.014  0.00  0.00    -0.150 OA
ENDROOT
BRANCH   1   4
ATOM      4  C   UNL     1       7.139   5.315  -0.432  0.00  0.00    +0.110 A 
ATOM      5  C   UNL     1       6.657   6.399  -1.143  0.00  0.00    +0.031 A 
ATOM      6  C   UNL     1       7.517   7.406  -1.526  0.00  0.00    +0.027 A 
ATOM      7  C   UNL     1       8.874   7.346  -1.204  0.00  0.00    +0.055 A 
ATOM      8  C   UNL     1       9.357   6.261  -0.492  0.00  0.00    +0.057 A 
ATOM      9  C   UNL     1       8.477   5.246  -0.109  0.00  0.00    +0.054 A 
ATOM     10  N   UNL     1      10.691   6.107  -0.124  0.00  0.00    -0.284 N 
ATOM     11  C   UNL     1      11.484   7.072   0.334  0.00  0.00    +0.226 C 
ATOM     12  O   UNL     1      12.622   6.804   0.658  0.00  0.00    -0.275 OA
ATOM     13  C   UNL     1      10.996   8.492   0.457  0.00  0.00    +0.192 C 
ATOM     14  C   UNL     1      10.635   8.985  -0.921  0.00  0.00    +0.226 C 
ATOM     15  O   UNL     1      11.236   9.928  -1.392  0.00  0.00    -0.275 OA
ATOM     16  N   UNL     1       9.669   8.407  -1.630  0.00  0.00    -0.284 N 
ATOM     17  H   UNL     1      11.173   5.122  -0.203  0.00  0.00    +0.155 HD
ATOM     18  H   UNL     1       9.521   8.837  -2.632  0.00  0.00    +0.155 HD
ENDBRANCH   1   4
BRANCH   1  19
ATOM     19  N   UNL     1       6.139   2.837  -1.089  0.00  0.00    -0.216 N 
ATOM     20  H   UNL     1       6.507   1.836  -0.817  0.00  0.00    +0.174 HD
BRANCH  19  24
ATOM     21  C   UNL     1       4.988   3.636  -5.010  0.00  0.00    -0.042 A 
ATOM     22  C   UNL     1       6.330   3.547  -4.690  0.00  0.00    +0.006 A 
ATOM     23  C   UNL     1       6.715   3.283  -3.390  0.00  0.00    +0.025 A 
ATOM     24  C   UNL     1       5.753   3.105  -2.405  0.00  0.00    +0.048 A 
ATOM     25  C   UNL     1       4.405   3.190  -2.731  0.00  0.00    +0.025 A 
ATOM     26  C   UNL     1       4.027   3.460  -4.031  0.00  0.00    +0.006 A 
BRANCH  21  28
ATOM     27  C   UNL     1       5.100   2.825  -7.351  0.00  0.00    +0.015 C 
ATOM     28  C   UNL     1       4.571   3.925  -6.429  0.00  0.00    -0.013 C 
ATOM     29  C   UNL     1       3.044   3.970  -6.513  0.00  0.00    +0.015 C 
ATOM     30  C   UNL     1       5.145   5.275  -6.864  0.00  0.00    +0.015 C 
ENDBRANCH  21  28
ENDBRANCH  19  24
ENDBRANCH   1  19
TORSDOF 4
