REMARK  Name = ZINC04591645
REMARK  5 active torsions:
REMARK  status: ('A' for Active; 'I' for Inactive)
REMARK    1  A    between atoms: C_1  and  C_2
REMARK    2  A    between atoms: C_5  and  S_8
REMARK    3  A    between atoms: S_8  and  N_11
REMARK    4  A    between atoms: C_17  and  C_18
REMARK    5  A    between atoms: C_21  and  C_23
REMARK                            x       y       z     vdW  Elec       q    Type
REMARK                         _______ _______ _______ _____ _____    ______ ____
ROOT
ATOM      1  N   UNL     1       1.651  -4.999  -0.034  0.00  0.00    -0.106 NA
ATOM      2  C   UNL     1       1.956  -6.268  -0.043  0.00  0.00    +0.186 C 
ATOM      3  N   UNL     1       1.107  -7.356  -0.050  0.00  0.00    -0.259 N 
ATOM      4  C   UNL     1       1.591  -8.586  -0.058  0.00  0.00    +0.257 C 
ATOM      5  O   UNL     1       0.857  -9.558  -0.064  0.00  0.00    -0.269 OA
ATOM      6  C   UNL     1       3.056  -8.730  -0.059  0.00  0.00    +0.081 C 
ATOM      7  C   UNL     1       3.812  -9.864  -0.067  0.00  0.00    +0.066 C 
ATOM      8  S   UNL     1       3.575  -7.021  -0.057  0.00  0.00    -0.047 S 
ATOM      9  H   UNL     1       0.147  -7.217  -0.048  0.00  0.00    +0.157 HD
ENDROOT
BRANCH   7  10
ATOM     10  C   UNL     1       5.224  -9.771  -0.067  0.00  0.00    +0.129 A 
ATOM     11  C   UNL     1       6.108 -10.831  -0.080  0.00  0.00    +0.049 A 
ATOM     12  C   UNL     1       7.397 -10.275  -0.076  0.00  0.00    +0.045 A 
ATOM     13  C   UNL     1       7.254  -8.932  -0.061  0.00  0.00    +0.103 A 
ATOM     14  O   UNL     1       5.947  -8.632  -0.061  0.00  0.00    -0.461 OA
ATOM     15  C   UNL     1       8.381  -7.932  -0.051  0.00  0.00    +0.086 C 
ENDBRANCH   7  10
BRANCH   1  16
ATOM     16  S   UNL     1       0.063  -4.530  -0.023  0.00  0.00    +0.101 S 
ATOM     17  O   UNL     1      -0.476  -4.950   1.223  0.00  0.00    -0.146 OA
ATOM     18  O   UNL     1      -0.490  -4.937  -1.267  0.00  0.00    -0.146 OA
BRANCH  16  23
ATOM     19  C   UNL     1      -0.018   1.503   0.010  0.00  0.00    +0.044 C 
ATOM     20  C   UNL     1       0.002  -0.004   0.002  0.00  0.00    -0.050 A 
ATOM     21  C   UNL     1       0.006  -0.689  -1.199  0.00  0.00    +0.005 A 
ATOM     22  C   UNL     1       0.025  -2.071  -1.206  0.00  0.00    +0.029 A 
ATOM     23  C   UNL     1       0.040  -2.768  -0.013  0.00  0.00    +0.113 A 
ATOM     24  C   UNL     1       0.037  -2.084   1.188  0.00  0.00    +0.029 A 
ATOM     25  C   UNL     1       0.023  -0.702   1.195  0.00  0.00    +0.005 A 
ENDBRANCH  16  23
ENDBRANCH   1  16
TORSDOF 3
