REMARK  Name = ZINC64622834
REMARK  7 active torsions:
REMARK  status: ('A' for Active; 'I' for Inactive)
REMARK    1  A    between atoms: C_1  and  C_2
REMARK    2  A    between atoms: C_2  and  O_3
REMARK    3  A    between atoms: O_3  and  C_4
REMARK    4  A    between atoms: C_4  and  C_6
REMARK    5  A    between atoms: C_6  and  C_7
REMARK    6  A    between atoms: C_10  and  N_13
REMARK    7  A    between atoms: C_29  and  C_31
REMARK                            x       y       z     vdW  Elec       q    Type
REMARK                         _______ _______ _______ _____ _____    ______ ____
ROOT
ATOM      1  N   UNL     1      -1.650  -8.034   0.057  0.00  0.00    -0.269 N 
ATOM      2  C   UNL     1      -1.802  -8.736   1.198  0.00  0.00    +0.307 C 
ATOM      3  O   UNL     1      -1.897  -8.154   2.261  0.00  0.00    -0.252 OA
ATOM      4  N   UNL     1      -1.848 -10.082   1.160  0.00  0.00    -0.276 N 
ATOM      5  C   UNL     1      -1.628 -10.780  -0.111  0.00  0.00    +0.114 C 
ATOM      6  C   UNL     1      -0.446 -11.754   0.037  0.00  0.00    +0.052 C 
ATOM      7  C   UNL     1      -0.650 -12.488   1.339  0.00  0.00    -0.035 C 
ATOM      8  C   UNL     1      -0.660 -13.784   1.625  0.00  0.00    -0.001 A 
ATOM      9  C   UNL     1      -0.370 -14.970   0.804  0.00  0.00    +0.010 A 
ATOM     10  C   UNL     1      -0.500 -16.174   1.422  0.00  0.00    +0.001 A 
ATOM     11  C   UNL     1      -0.884 -16.314   2.760  0.00  0.00    +0.002 A 
ATOM     12  C   UNL     1      -1.162 -15.278   3.590  0.00  0.00    +0.026 A 
ATOM     13  C   UNL     1      -1.052 -13.961   3.057  0.00  0.00    +0.043 A 
ATOM     14  N   UNL     1      -1.234 -12.805   3.624  0.00  0.00    -0.375 N 
ATOM     15  C   UNL     1      -0.922 -11.759   2.650  0.00  0.00    +0.131 C 
ATOM     16  C   UNL     1      -2.113 -10.836   2.395  0.00  0.00    +0.137 C 
ATOM     17  H   UNL     1      -1.653  -8.492  -0.798  0.00  0.00    +0.156 HD
ATOM     18  H   UNL     1      -1.526 -12.662   4.538  0.00  0.00    +0.160 HD
ENDROOT
BRANCH  16  19
ATOM     19  C   UNL     1      -2.273  -9.882   3.551  0.00  0.00    +0.010 A 
ATOM     20  C   UNL     1      -1.200  -9.614   4.380  0.00  0.00    +0.008 A 
ATOM     21  C   UNL     1      -1.347  -8.739   5.440  0.00  0.00    +0.000 A 
ATOM     22  C   UNL     1      -2.566  -8.132   5.673  0.00  0.00    +0.003 A 
ATOM     23  C   UNL     1      -3.640  -8.398   4.845  0.00  0.00    +0.039 A 
ATOM     24  C   UNL     1      -3.493  -9.270   3.780  0.00  0.00    +0.128 A 
ATOM     25  F   UNL     1      -4.542  -9.528   2.967  0.00  0.00    -0.205 F 
ENDBRANCH  16  19
BRANCH   1  29
ATOM     26  C   UNL     1      -1.170  -3.898   0.202  0.00  0.00    -0.037 A 
ATOM     27  C   UNL     1      -0.510  -4.636  -0.764  0.00  0.00    +0.006 A 
ATOM     28  C   UNL     1      -0.667  -6.007  -0.814  0.00  0.00    +0.023 A 
ATOM     29  C   UNL     1      -1.489  -6.645   0.106  0.00  0.00    +0.035 A 
ATOM     30  C   UNL     1      -2.150  -5.901   1.074  0.00  0.00    +0.023 A 
ATOM     31  C   UNL     1      -1.985  -4.531   1.123  0.00  0.00    +0.006 A 
BRANCH  26  32
ATOM     32  C   UNL     1      -0.997  -2.402   0.254  0.00  0.00    +0.155 C 
BRANCH  32  33
ATOM     33  C   UNL     1       0.171  -2.062   1.144  0.00  0.00    +0.311 C 
ATOM     34  O   UNL     1       0.798  -2.945   1.681  0.00  0.00    -0.250 OA
BRANCH  33  35
ATOM     35  O   UNL     1       0.514  -0.780   1.340  0.00  0.00    -0.465 OA
BRANCH  35  37
ATOM     36  C   UNL     1       1.870   0.977   2.298  0.00  0.00    +0.048 C 
ATOM     37  C   UNL     1       1.632  -0.531   2.196  0.00  0.00    +0.229 C 
ENDBRANCH  35  37
ENDBRANCH  33  35
ENDBRANCH  32  33
ENDBRANCH  26  32
ENDBRANCH   1  29
TORSDOF 6
