REMARK  Name = ZINC00167907
REMARK  3 active torsions:
REMARK  status: ('A' for Active; 'I' for Inactive)
REMARK    1  A    between atoms: C_1  and  O_2
REMARK    2  A    between atoms: O_2  and  C_3
REMARK    3  A    between atoms: C_3  and  C_5
REMARK                            x       y       z     vdW  Elec       q    Type
REMARK                         _______ _______ _______ _____ _____    ______ ____
ROOT
ATOM      1  C   UNL     1      -1.035  -0.881   0.007  0.00  0.00    +0.112 C 
ATOM      2  C   UNL     1       0.004  -0.006   0.027  0.00  0.00    +0.087 A 
ATOM      3  C   UNL     1       1.452  -0.254  -0.192  0.00  0.00    +0.272 A 
ATOM      4  O   UNL     1       1.872  -1.369  -0.430  0.00  0.00    -0.266 OA
ATOM      5  N   UNL     1       2.278   0.801  -0.117  0.00  0.00    -0.253 N 
ATOM      6  C   UNL     1       3.663   1.020  -0.250  0.00  0.00    +0.079 A 
ATOM      7  C   UNL     1       4.725   0.175  -0.521  0.00  0.00    +0.050 A 
ATOM      8  C   UNL     1       6.007   0.689  -0.592  0.00  0.00    +0.061 A 
ATOM      9  C   UNL     1       6.231   2.045  -0.393  0.00  0.00    +0.061 A 
ATOM     10  C   UNL     1       5.181   2.896  -0.121  0.00  0.00    +0.051 A 
ATOM     11  C   UNL     1       3.881   2.388  -0.047  0.00  0.00    +0.092 A 
ATOM     12  N   UNL     1       2.671   2.955   0.197  0.00  0.00    -0.221 NA
ATOM     13  C   UNL     1       1.747   2.040   0.156  0.00  0.00    +0.182 A 
ATOM     14  S   UNL     1      -0.003   1.756   0.323  0.00  0.00    -0.046 S 
ATOM     15 CL   UNL     1       7.847   2.673  -0.486  0.00  0.00    -0.082 Cl
ATOM     16 CL   UNL     1       7.343  -0.366  -0.932  0.00  0.00    -0.082 Cl
ENDROOT
BRANCH   1  17
ATOM     17  C   UNL     1      -0.779  -2.317  -0.114  0.00  0.00    +0.333 C 
ATOM     18  O   UNL     1       0.364  -2.732  -0.128  0.00  0.00    -0.246 OA
BRANCH  17  20
ATOM     19  C   UNL     1      -1.488  -4.568  -0.326  0.00  0.00    +0.280 C 
ATOM     20  O   UNL     1      -1.811  -3.180  -0.210  0.00  0.00    -0.465 OA
ENDBRANCH  17  20
ENDBRANCH   1  17
TORSDOF 2
