REMARK  Name = ZINC01070345
REMARK  7 active torsions:
REMARK  status: ('A' for Active; 'I' for Inactive)
REMARK    1  A    between atoms: C_1  and  O_2
REMARK    2  A    between atoms: O_2  and  C_3
REMARK    3  A    between atoms: C_5  and  C_10
REMARK    4  A    between atoms: C_8  and  O_9
REMARK    5  A    between atoms: C_13  and  C_24
REMARK    6  A    between atoms: C_19  and  N_23
REMARK    7  A    between atoms: C_20  and  C_21
REMARK                            x       y       z     vdW  Elec       q    Type
REMARK                         _______ _______ _______ _____ _____    ______ ____
ROOT
ATOM      1  C   UNL     1       2.403   0.379  -4.230  0.00  0.00    +0.102 C 
ATOM      2  C   UNL     1       1.749   0.053  -5.548  0.00  0.00    +0.055 A 
ATOM      3  C   UNL     1       0.468   0.381  -6.006  0.00  0.00    +0.107 A 
ATOM      4  N   UNL     1       0.332  -0.117  -7.222  0.00  0.00    -0.170 NA
ATOM      5  N   UNL     1       1.525  -0.772  -7.566  0.00  0.00    -0.246 N 
ATOM      6  H   UNL     1       1.703  -1.228  -8.403  0.00  0.00    +0.192 HD
ATOM      7  C   UNL     1       2.380  -0.656  -6.529  0.00  0.00    +0.223 A 
ATOM      8  O   UNL     1       3.646  -1.122  -6.396  0.00  0.00    -0.423 OA
ATOM      9  C   UNL     1       4.386  -0.640  -5.376  0.00  0.00    +0.200 C 
ATOM     10  C   UNL     1       3.874   0.066  -4.343  0.00  0.00    +0.098 C 
ENDROOT
BRANCH   1  13
ATOM     11  C   UNL     1       0.606  -0.608  -1.056  0.00  0.00    +0.162 A 
ATOM     12  C   UNL     1       1.173   0.159  -2.062  0.00  0.00    +0.054 A 
ATOM     13  C   UNL     1       1.787  -0.456  -3.137  0.00  0.00    -0.031 A 
ATOM     14  C   UNL     1       1.837  -1.836  -3.212  0.00  0.00    +0.008 A 
ATOM     15  C   UNL     1       1.273  -2.606  -2.212  0.00  0.00    +0.049 A 
ATOM     16  C   UNL     1       0.662  -1.996  -1.129  0.00  0.00    +0.158 A 
BRANCH  11  18
ATOM     17  C   UNL     1      -0.017   1.425   0.010  0.00  0.00    +0.277 C 
ATOM     18  O   UNL     1       0.002  -0.004   0.002  0.00  0.00    -0.491 OA
ENDBRANCH  11  18
BRANCH  16  19
ATOM     19  O   UNL     1       0.112  -2.753  -0.142  0.00  0.00    -0.503 OA
ATOM     20  H   UNL     1      -0.816  -2.979  -0.291  0.00  0.00    +0.292 HD
ENDBRANCH  16  19
ENDBRANCH   1  13
BRANCH   3  21
ATOM     21  C   UNL     1      -0.554   1.148  -5.261  0.00  0.00    +0.041 A 
ATOM     22  C   UNL     1      -1.484   2.033  -5.735  0.00  0.00    +0.019 A 
ATOM     23  C   UNL     1      -2.343   2.634  -4.840  0.00  0.00    +0.028 A 
ATOM     24  C   UNL     1      -2.241   2.332  -3.520  0.00  0.00    +0.079 A 
ATOM     25  S   UNL     1      -0.899   1.155  -3.509  0.00  0.00    -0.075 S 
ATOM     26 CL   UNL     1      -3.178   2.931  -2.187  0.00  0.00    -0.076 Cl
ENDBRANCH   3  21
BRANCH   9  27
ATOM     27  N   UNL     1       5.738  -0.879  -5.389  0.00  0.00    -0.328 N 
ATOM     28  H   UNL     1       6.135  -1.383  -6.117  0.00  0.00    +0.145 HD
ATOM     29  H   UNL     1       6.296  -0.545  -4.669  0.00  0.00    +0.145 HD
ENDBRANCH   9  27
BRANCH  10  30
ATOM     30  C   UNL     1       4.759   0.532  -3.318  0.00  0.00    +0.101 C 
ATOM     31  N   UNL     1       5.461   0.902  -2.505  0.00  0.00    -0.191 NA
ENDBRANCH  10  30
TORSDOF 6
