REMARK  Name = ZINC24780369
REMARK  7 active torsions:
REMARK  status: ('A' for Active; 'I' for Inactive)
REMARK    1  A    between atoms: C_1  and  C_2
REMARK    2  A    between atoms: C_2  and  C_4
REMARK    3  A    between atoms: C_2  and  N_12
REMARK    4  A    between atoms: C_13  and  C_15
REMARK    5  A    between atoms: C_15  and  O_16
REMARK    6  A    between atoms: O_16  and  C_17
REMARK    7  A    between atoms: C_22  and  N_23
REMARK                            x       y       z     vdW  Elec       q    Type
REMARK                         _______ _______ _______ _____ _____    ______ ____
ROOT
ATOM      1  N   UNL     1       3.909  -2.193  -0.047  0.00  0.00    -0.306 N 
ATOM      2  C   UNL     1       3.713  -0.859  -0.038  0.00  0.00    +0.251 C 
ATOM      3  O   UNL     1       4.664  -0.106  -0.043  0.00  0.00    -0.272 OA
ATOM      4  H   UNL     1       3.047  -2.876  -0.043  0.00  0.00    +0.149 HD
ENDROOT
BRANCH   1   6
ATOM      5  C   UNL     1       5.778  -2.796  -1.505  0.00  0.00    +0.033 C 
ATOM      6  C   UNL     1       5.271  -2.733  -0.063  0.00  0.00    +0.102 C 
BRANCH   6   7
ATOM      7  C   UNL     1       5.269  -4.118   0.530  0.00  0.00    -0.009 A 
ATOM      8  C   UNL     1       4.113  -4.876   0.512  0.00  0.00    +0.008 A 
ATOM      9  C   UNL     1       4.112  -6.149   1.050  0.00  0.00    +0.020 A 
ATOM     10  C   UNL     1       5.265  -6.661   1.619  0.00  0.00    +0.042 A 
ATOM     11  C   UNL     1       6.420  -5.901   1.643  0.00  0.00    +0.040 A 
ATOM     12  C   UNL     1       6.422  -4.629   1.098  0.00  0.00    +0.047 A 
ATOM     13 CL   UNL     1       7.872  -3.674   1.128  0.00  0.00    -0.083 Cl
ATOM     14 CL   UNL     1       5.262  -8.257   2.301  0.00  0.00    -0.083 Cl
ENDBRANCH   6   7
ENDBRANCH   1   6
BRANCH   2  15
ATOM     15  C   UNL     1       2.312  -0.304  -0.022  0.00  0.00    +0.324 C 
BRANCH  15  16
ATOM     16  O   UNL     1       2.366   1.124  -0.015  0.00  0.00    -0.480 OA
BRANCH  16  17
ATOM     17  C   UNL     1       1.179   1.786   0.000  0.00  0.00    +0.151 A 
ATOM     18  C   UNL     1      -0.013   1.076   0.008  0.00  0.00    +0.049 A 
ATOM     19  C   UNL     1      -1.218   1.750   0.017  0.00  0.00    +0.024 A 
ATOM     20  C   UNL     1      -1.237   3.134   0.030  0.00  0.00    +0.043 A 
ATOM     21  C   UNL     1      -0.050   3.844   0.022  0.00  0.00    +0.056 A 
ATOM     22  C   UNL     1       1.158   3.173   0.008  0.00  0.00    +0.169 A 
ATOM     23 CL   UNL     1      -2.753   3.980   0.048  0.00  0.00    -0.083 Cl
BRANCH  22  24
ATOM     24  N   UNL     1       2.428   3.933   0.000  0.00  0.00    +0.060 N 
ATOM     25  O   UNL     1       2.408   5.151   0.006  0.00  0.00    -0.126 OA
ATOM     26  O   UNL     1       3.492   3.341  -0.013  0.00  0.00    -0.126 OA
ENDBRANCH  22  24
ENDBRANCH  16  17
ENDBRANCH  15  16
ENDBRANCH   2  15
TORSDOF 6
