REMARK  Name = ZINC17519374
REMARK  6 active torsions:
REMARK  status: ('A' for Active; 'I' for Inactive)
REMARK    1  A    between atoms: C_1  and  C_2
REMARK    2  A    between atoms: C_14  and  C_15
REMARK    3  A    between atoms: C_15  and  O_17
REMARK    4  A    between atoms: O_17  and  C_18
REMARK    5  A    between atoms: C_18  and  C_19
REMARK    6  A    between atoms: C_18  and  C_20
REMARK                            x       y       z     vdW  Elec       q    Type
REMARK                         _______ _______ _______ _____ _____    ______ ____
ROOT
ATOM      1  C   UNL     1      -3.452   6.313  -2.642  0.00  0.00    +0.046 C 
ATOM      2  C   UNL     1      -3.337   6.107  -1.153  0.00  0.00    -0.015 A 
ATOM      3  C   UNL     1      -2.700   4.970  -0.651  0.00  0.00    +0.076 A 
ATOM      4  C   UNL     1      -2.644   4.868   0.758  0.00  0.00    +0.116 A 
ATOM      5  N   UNL     1      -2.066   3.838   1.357  0.00  0.00    -0.226 NA
ATOM      6  C   UNL     1      -1.513   2.857   0.685  0.00  0.00    +0.114 A 
ATOM      7  N   UNL     1      -1.507   2.842  -0.672  0.00  0.00    -0.296 N 
ATOM      8  C   UNL     1      -2.070   3.849  -1.380  0.00  0.00    +0.263 A 
ATOM      9  O   UNL     1      -2.058   3.832  -2.598  0.00  0.00    -0.267 OA
ATOM     10  C   UNL     1      -0.832   1.633  -1.179  0.00  0.00    +0.127 C 
ATOM     11  C   UNL     1      -0.013   1.086   0.008  0.00  0.00    +0.029 C 
ATOM     12  C   UNL     1      -0.810   1.621   1.217  0.00  0.00    +0.076 C 
ATOM     13  S   UNL     1      -3.471   6.340   1.307  0.00  0.00    -0.062 S 
ATOM     14  C   UNL     1      -3.857   7.030  -0.293  0.00  0.00    +0.102 A 
ENDROOT
BRANCH  14  15
ATOM     15  C   UNL     1      -4.558   8.278  -0.605  0.00  0.00    +0.346 C 
ATOM     16  O   UNL     1      -4.738   8.600  -1.764  0.00  0.00    -0.244 OA
BRANCH  15  17
ATOM     17  O   UNL     1      -5.003   9.069   0.393  0.00  0.00    -0.458 OA
BRANCH  17  18
ATOM     18  C   UNL     1      -5.689  10.290   0.009  0.00  0.00    +0.171 C 
ATOM     19  C   UNL     1      -7.187  10.012  -0.126  0.00  0.00    +0.052 C 
ATOM     20  C   UNL     1      -5.463  11.359   1.080  0.00  0.00    +0.052 C 
ENDBRANCH  17  18
ENDBRANCH  15  17
ENDBRANCH  14  15
TORSDOF 3
