REMARK  Name = ZINC52907510
REMARK  4 active torsions:
REMARK  status: ('A' for Active; 'I' for Inactive)
REMARK    1  A    between atoms: C_3  and  O_11
REMARK    2  A    between atoms: C_4  and  C_8
REMARK    3  A    between atoms: O_11  and  C_12
REMARK    4  A    between atoms: C_17  and  N_18
REMARK                            x       y       z     vdW  Elec       q    Type
REMARK                         _______ _______ _______ _____ _____    ______ ____
ROOT
ATOM      1  C   UNL     1      -0.008   1.338  -0.021  0.00  0.00    +0.005 A 
ATOM      2  C   UNL     1       1.166   2.067  -0.031  0.00  0.00    +0.047 A 
ATOM      3  C   UNL     1       2.389   1.416  -0.010  0.00  0.00    +0.140 A 
ATOM      4  C   UNL     1       2.431   0.015   0.021  0.00  0.00    +0.073 A 
ATOM      5  C   UNL     1       1.237  -0.711   0.031  0.00  0.00    +0.055 A 
ATOM      6  C   UNL     1       0.027  -0.045   0.010  0.00  0.00    +0.021 A 
ATOM      7 CL   UNL     1       1.274  -2.446   0.069  0.00  0.00    -0.083 Cl
ENDROOT
BRANCH   4   8
ATOM      8  C   UNL     1       3.728  -0.689   0.043  0.00  0.00    +0.099 C 
ATOM      9  N   UNL     1       4.085  -1.459  -0.985  0.00  0.00    -0.387 N 
ATOM     10  N   UNL     1       4.541  -0.555   1.090  0.00  0.00    -0.344 N 
ATOM     11  H   UNL     1       3.493  -1.557  -1.747  0.00  0.00    +0.157 HD
ATOM     12  H   UNL     1       4.281   0.005   1.838  0.00  0.00    +0.144 HD
ATOM     13  H   UNL     1       5.394  -1.018   1.105  0.00  0.00    +0.144 HD
ATOM     14  H   UNL     1       4.938  -1.922  -0.970  0.00  0.00    +0.157 HD
ENDBRANCH   4   8
BRANCH   3  15
ATOM     15  O   UNL     1       3.542   2.131  -0.021  0.00  0.00    -0.453 OA
BRANCH  15  16
ATOM     16  C   UNL     1       4.184   2.288  -1.208  0.00  0.00    +0.161 A 
ATOM     17  C   UNL     1       3.600   1.830  -2.380  0.00  0.00    +0.087 A 
ATOM     18  C   UNL     1       4.256   1.992  -3.587  0.00  0.00    +0.127 A 
ATOM     19  C   UNL     1       5.495   2.611  -3.624  0.00  0.00    +0.041 A 
ATOM     20  C   UNL     1       6.077   3.068  -2.457  0.00  0.00    +0.039 A 
ATOM     21  C   UNL     1       5.423   2.913  -1.250  0.00  0.00    +0.168 A 
ATOM     22  F   UNL     1       3.689   1.547  -4.729  0.00  0.00    -0.205 F 
BRANCH  21  23
ATOM     23  N   UNL     1       6.045   3.408  -0.002  0.00  0.00    +0.060 N 
ATOM     24  O   UNL     1       7.124   3.953  -0.039  0.00  0.00    -0.126 OA
ATOM     25  O   UNL     1       5.474   3.268   1.055  0.00  0.00    -0.126 OA
ENDBRANCH  21  23
ENDBRANCH  15  16
ENDBRANCH   3  15
TORSDOF 4
