REMARK  Name = ZINC36809044
REMARK  9 active torsions:
REMARK  status: ('A' for Active; 'I' for Inactive)
REMARK    1  A    between atoms: C_1  and  C_2
REMARK    2  A    between atoms: C_5  and  O_28
REMARK    3  A    between atoms: C_6  and  N_8
REMARK    4  A    between atoms: C_9  and  S_13
REMARK    5  A    between atoms: S_13  and  C_14
REMARK    6  A    between atoms: C_14  and  C_16
REMARK    7  A    between atoms: C_14  and  C_17
REMARK    8  A    between atoms: N_19  and  C_20
REMARK    9  A    between atoms: O_28  and  C_29
REMARK                            x       y       z     vdW  Elec       q    Type
REMARK                         _______ _______ _______ _____ _____    ______ ____
ROOT
ATOM      1  S   UNL     1      -0.512  -0.661   4.145  0.00  0.00    -0.072 S 
ENDROOT
BRANCH   1   3
ATOM      2  N   UNL     1      -0.958  -2.937   2.592  0.00  0.00    -0.184 N 
ATOM      3  C   UNL     1      -0.603  -2.382   3.779  0.00  0.00    +0.215 A 
ATOM      4  N   UNL     1      -0.340  -3.373   4.604  0.00  0.00    -0.101 NA
ATOM      5  N   UNL     1      -0.505  -4.503   4.017  0.00  0.00    -0.022 NA
ATOM      6  N   UNL     1      -0.884  -4.325   2.798  0.00  0.00    -0.038 NA
BRANCH   2  12
ATOM      7  C   UNL     1      -0.077   0.585  -0.727  0.00  0.00    +0.044 C 
ATOM      8  C   UNL     1      -0.917  -0.558  -0.216  0.00  0.00    -0.048 A 
ATOM      9  C   UNL     1      -2.049  -0.946  -0.910  0.00  0.00    +0.007 A 
ATOM     10  C   UNL     1      -2.822  -1.993  -0.446  0.00  0.00    +0.048 A 
ATOM     11  C   UNL     1      -2.465  -2.658   0.716  0.00  0.00    +0.146 A 
ATOM     12  C   UNL     1      -1.325  -2.268   1.415  0.00  0.00    +0.112 A 
ATOM     13  C   UNL     1      -0.550  -1.219   0.941  0.00  0.00    +0.035 A 
BRANCH  11  14
ATOM     14  O   UNL     1      -3.225  -3.688   1.174  0.00  0.00    -0.493 OA
ATOM     15  C   UNL     1      -4.380  -4.032   0.406  0.00  0.00    +0.277 C 
ENDBRANCH  11  14
ENDBRANCH   2  12
ENDBRANCH   1   3
BRANCH   1  16
ATOM     16  C   UNL     1       0.016  -0.609   5.880  0.00  0.00    +0.137 C 
ATOM     17  C   UNL     1       1.427  -1.189   6.001  0.00  0.00    +0.029 C 
BRANCH  16  18
ATOM     18  C   UNL     1       0.017   0.819   6.362  0.00  0.00    +0.230 C 
ATOM     19  O   UNL     1       0.054   1.729   5.562  0.00  0.00    -0.274 OA
ATOM     20  N   UNL     1      -0.025   1.084   7.683  0.00  0.00    -0.283 N 
ATOM     21  H   UNL     1       0.028   0.358   8.325  0.00  0.00    +0.155 HD
BRANCH  20  22
ATOM     22  C   UNL     1      -0.143   2.406   8.128  0.00  0.00    +0.052 A 
ATOM     23  C   UNL     1      -0.621   3.388   7.271  0.00  0.00    +0.026 A 
ATOM     24  C   UNL     1      -0.737   4.692   7.713  0.00  0.00    +0.022 A 
ATOM     25  C   UNL     1      -0.377   5.020   9.008  0.00  0.00    +0.042 A 
ATOM     26  C   UNL     1       0.099   4.043   9.865  0.00  0.00    +0.041 A 
ATOM     27  C   UNL     1       0.212   2.736   9.430  0.00  0.00    +0.064 A 
ATOM     28 CL   UNL     1       0.803   1.510  10.508  0.00  0.00    -0.082 Cl
ATOM     29 CL   UNL     1      -0.524   6.660   9.559  0.00  0.00    -0.083 Cl
ENDBRANCH  20  22
ENDBRANCH  16  18
ENDBRANCH   1  16
TORSDOF 6
