REMARK  Name = ZINC13115094
REMARK  5 active torsions:
REMARK  status: ('A' for Active; 'I' for Inactive)
REMARK    1  A    between atoms: C_1  and  C_2
REMARK    2  A    between atoms: C_9  and  C_23
REMARK    3  A    between atoms: C_10  and  C_11
REMARK    4  A    between atoms: N_13  and  N_14
REMARK    5  A    between atoms: C_15  and  C_16
REMARK                            x       y       z     vdW  Elec       q    Type
REMARK                         _______ _______ _______ _____ _____    ______ ____
ROOT
ATOM      1  C   UNL     1       3.661   0.766  -1.400  0.00  0.00    +0.282 C 
ATOM      2  O   UNL     1       4.038  -0.290  -0.924  0.00  0.00    -0.267 OA
ATOM      3  N   UNL     1       4.388   1.886  -1.216  0.00  0.00    -0.202 N 
ATOM      4  H   UNL     1       4.057   2.738  -1.539  0.00  0.00    +0.178 HD
ENDROOT
BRANCH   1  14
ATOM      5  C   UNL     1      -0.683   4.837  -4.493  0.00  0.00    +0.044 C 
ATOM      6  C   UNL     1       0.202   3.804  -3.843  0.00  0.00    -0.046 A 
ATOM      7  C   UNL     1       1.365   4.198  -3.166  0.00  0.00    +0.021 A 
ATOM      8  C   UNL     1       2.157   3.270  -2.583  0.00  0.00    +0.094 A 
ATOM      9  N   UNL     1       1.839   1.949  -2.645  0.00  0.00    -0.295 N 
ATOM     10  C   UNL     1       0.714   1.534  -3.298  0.00  0.00    +0.139 A 
ATOM     11  C   UNL     1      -0.127   2.483  -3.906  0.00  0.00    +0.050 A 
ATOM     12  N   UNL     1       0.637   0.207  -3.211  0.00  0.00    -0.232 NA
ATOM     13  C   UNL     1       1.670  -0.258  -2.526  0.00  0.00    +0.069 A 
ATOM     14  C   UNL     1       2.458   0.817  -2.149  0.00  0.00    +0.133 A 
ATOM     15  C   UNL     1       1.942  -1.707  -2.212  0.00  0.00    +0.068 C 
ENDBRANCH   1  14
BRANCH   3  16
ATOM     16  N   UNL     1       5.623   1.819  -0.557  0.00  0.00    -0.187 NA
ATOM     17  C   UNL     1       6.253   2.910  -0.247  0.00  0.00    +0.138 C 
BRANCH  17  18
ATOM     18  C   UNL     1       5.534   4.198  -0.234  0.00  0.00    -0.005 A 
ATOM     19  C   UNL     1       6.243   5.398  -0.334  0.00  0.00    +0.011 A 
ATOM     20  C   UNL     1       5.565   6.599  -0.326  0.00  0.00    +0.020 A 
ATOM     21  C   UNL     1       4.185   6.617  -0.209  0.00  0.00    +0.041 A 
ATOM     22  C   UNL     1       3.477   5.431  -0.105  0.00  0.00    +0.020 A 
ATOM     23  C   UNL     1       4.142   4.224  -0.116  0.00  0.00    +0.011 A 
ATOM     24 CL   UNL     1       3.339   8.133  -0.194  0.00  0.00    -0.084 Cl
ENDBRANCH  17  18
ENDBRANCH   3  16
TORSDOF 3
