REMARK  Name = ZINC32714683
REMARK  5 active torsions:
REMARK  status: ('A' for Active; 'I' for Inactive)
REMARK    1  A    between atoms: C_1  and  C_2
REMARK    2  A    between atoms: C_2  and  C_3
REMARK    3  A    between atoms: C_8  and  C_21
REMARK    4  A    between atoms: N_10  and  C_14
REMARK    5  A    between atoms: C_17  and  C_20
REMARK                            x       y       z     vdW  Elec       q    Type
REMARK                         _______ _______ _______ _____ _____    ______ ____
ROOT
ATOM      1  C   UNL     1       1.181  -0.658  -0.013  0.00  0.00    +0.021 A 
ATOM      2  C   UNL     1       0.002  -0.004   0.002  0.00  0.00    +0.072 A 
ATOM      3  C   UNL     1      -0.017   1.412   0.010  0.00  0.00    +0.193 A 
ATOM      4  O   UNL     1      -1.071   2.028   0.018  0.00  0.00    -0.287 OA
ATOM      5  C   UNL     1       1.270   2.114   0.001  0.00  0.00    +0.087 A 
ATOM      6  C   UNL     1       1.645   3.473   0.005  0.00  0.00    +0.073 A 
ATOM      7  N   UNL     1       2.948   3.538  -0.007  0.00  0.00    -0.169 NA
ATOM      8  N   UNL     1       3.477   2.241  -0.019  0.00  0.00    -0.216 N 
ATOM      9  C   UNL     1       2.443   1.359  -0.013  0.00  0.00    +0.146 A 
ATOM     10  N   UNL     1       2.370  -0.006  -0.020  0.00  0.00    -0.343 N 
ATOM     11  H   UNL     1       3.310  -0.577  -0.032  0.00  0.00    +0.167 HD
ATOM     12  C   UNL     1       0.704   4.650   0.021  0.00  0.00    +0.068 C 
ENDROOT
BRANCH   8  13
ATOM     13  C   UNL     1       4.838   1.910  -0.032  0.00  0.00    +0.068 A 
ATOM     14  C   UNL     1       5.288   0.789   0.652  0.00  0.00    +0.028 A 
ATOM     15  C   UNL     1       6.630   0.462   0.633  0.00  0.00    +0.005 A 
ATOM     16  C   UNL     1       7.527   1.256  -0.059  0.00  0.00    -0.050 A 
ATOM     17  C   UNL     1       7.082   2.376  -0.737  0.00  0.00    +0.005 A 
ATOM     18  C   UNL     1       5.740   2.705  -0.726  0.00  0.00    +0.028 A 
ATOM     19  C   UNL     1       8.991   0.901  -0.072  0.00  0.00    +0.044 C 
ENDBRANCH   8  13
BRANCH   1  21
ATOM     20  C   UNL     1       1.037  -2.667  -1.459  0.00  0.00    +0.010 C 
ATOM     21  C   UNL     1       1.178  -2.165  -0.021  0.00  0.00    +0.050 C 
ENDBRANCH   1  21
TORSDOF 2
