REMARK  Name = ZINC60154815
REMARK  10 active torsions:
REMARK  status: ('A' for Active; 'I' for Inactive)
REMARK    1  A    between atoms: C_1  and  C_2
REMARK    2  A    between atoms: C_2  and  C_4
REMARK    3  A    between atoms: C_2  and  N_21
REMARK    4  A    between atoms: N_9  and  C_12
REMARK    5  A    between atoms: C_12  and  C_13
REMARK    6  A    between atoms: C_22  and  O_24
REMARK    7  A    between atoms: O_24  and  C_25
REMARK    8  A    between atoms: C_25  and  C_26
REMARK    9  A    between atoms: C_25  and  C_27
REMARK   10  A    between atoms: C_25  and  C_28
REMARK                            x       y       z     vdW  Elec       q    Type
REMARK                         _______ _______ _______ _____ _____    ______ ____
ROOT
ATOM      1  C   UNL     1       0.821  -0.541   1.147  0.00  0.00    +0.236 C 
ATOM      2  O   UNL     1       1.841  -1.160   0.926  0.00  0.00    -0.274 OA
ATOM      3  N   UNL     1       0.420  -0.336   2.417  0.00  0.00    -0.298 N 
ATOM      4  C   UNL     1      -0.869   0.309   2.707  0.00  0.00    +0.123 C 
ATOM      5  C   UNL     1      -1.639  -0.567   3.700  0.00  0.00    +0.103 C 
ATOM      6  N   UNL     1      -0.797  -0.826   4.875  0.00  0.00    -0.295 NA
ATOM      7  C   UNL     1       0.407  -1.584   4.511  0.00  0.00    +0.103 C 
ATOM      8  C   UNL     1       1.259  -0.755   3.551  0.00  0.00    +0.123 C 
ENDROOT
BRANCH   1  10
ATOM      9  C   UNL     1       0.269   1.495  -0.155  0.00  0.00    +0.038 C 
ATOM     10  C   UNL     1       0.003  -0.003   0.002  0.00  0.00    +0.159 C 
BRANCH  10  11
ATOM     11  N   UNL     1       0.374  -0.698  -1.233  0.00  0.00    -0.270 N 
ATOM     12  C   UNL     1      -0.505  -0.780  -2.251  0.00  0.00    +0.401 C 
ATOM     13  O   UNL     1      -1.606  -0.278  -2.144  0.00  0.00    -0.226 OA
ATOM     14  H   UNL     1       1.254  -1.099  -1.318  0.00  0.00    +0.153 HD
BRANCH  12  15
ATOM     15  O   UNL     1      -0.163  -1.418  -3.386  0.00  0.00    -0.445 OA
BRANCH  15  16
ATOM     16  C   UNL     1      -1.145  -1.467  -4.424  0.00  0.00    +0.107 C 
ATOM     17  C   UNL     1      -1.510  -0.043  -4.847  0.00  0.00    +0.055 C 
ATOM     18  C   UNL     1      -0.579  -2.227  -5.625  0.00  0.00    +0.055 C 
ATOM     19  C   UNL     1      -2.395  -2.183  -3.910  0.00  0.00    +0.055 C 
ENDBRANCH  15  16
ENDBRANCH  12  15
ENDBRANCH  10  11
ENDBRANCH   1  10
BRANCH   6  20
ATOM     20  C   UNL     1      -1.556  -1.517   5.926  0.00  0.00    +0.121 C 
BRANCH  20  21
ATOM     21  C   UNL     1      -0.745  -1.547   7.196  0.00  0.00    -0.015 A 
ATOM     22  C   UNL     1      -0.044  -2.688   7.540  0.00  0.00    +0.009 A 
ATOM     23  C   UNL     1       0.701  -2.716   8.704  0.00  0.00    +0.039 A 
ATOM     24  C   UNL     1       0.745  -1.602   9.526  0.00  0.00    +0.125 A 
ATOM     25  C   UNL     1       0.044  -0.460   9.180  0.00  0.00    +0.058 A 
ATOM     26  C   UNL     1      -0.697  -0.431   8.012  0.00  0.00    +0.048 A 
ATOM     27 CL   UNL     1      -1.572   1.003   7.574  0.00  0.00    -0.083 Cl
ATOM     28  F   UNL     1       1.472  -1.631  10.664  0.00  0.00    -0.205 F 
ENDBRANCH  20  21
ENDBRANCH   6  20
TORSDOF 6
