REMARK  Name = ZINC38670205
REMARK  9 active torsions:
REMARK  status: ('A' for Active; 'I' for Inactive)
REMARK    1  A    between atoms: C_1  and  N_2
REMARK    2  A    between atoms: C_10  and  C_12
REMARK    3  A    between atoms: C_12  and  C_14
REMARK    4  A    between atoms: C_12  and  N_29
REMARK    5  A    between atoms: C_14  and  N_15
REMARK    6  A    between atoms: C_16  and  C_18
REMARK    7  A    between atoms: C_18  and  N_19
REMARK    8  A    between atoms: N_29  and  C_30
REMARK    9  A    between atoms: N_29  and  C_31
REMARK                            x       y       z     vdW  Elec       q    Type
REMARK                         _______ _______ _______ _____ _____    ______ ____
ROOT
ATOM      1  C   UNL     1       4.885  -2.769  -0.420  0.00  0.00    -0.021 C 
ENDROOT
BRANCH   1  11
ATOM      2  C   UNL     1       0.190   1.673   0.475  0.00  0.00    +0.129 C 
ATOM      3  N   UNL     1       0.129   0.211   0.400  0.00  0.00    -0.333 N 
ATOM      4  C   UNL     1      -1.155  -0.490   0.527  0.00  0.00    +0.105 C 
ATOM      5  C   UNL     1      -0.947  -1.683   1.469  0.00  0.00    +0.024 C 
ATOM      6  C   UNL     1       0.053  -2.647   0.830  0.00  0.00    +0.038 C 
ATOM      7  C   UNL     1       1.296  -1.911   0.404  0.00  0.00    -0.026 A 
ATOM      8  C   UNL     1       1.293  -0.539   0.199  0.00  0.00    +0.033 A 
ATOM      9  C   UNL     1       2.455   0.109  -0.204  0.00  0.00    +0.023 A 
ATOM     10  C   UNL     1       3.615  -0.613  -0.404  0.00  0.00    +0.004 A 
ATOM     11  C   UNL     1       3.619  -1.981  -0.203  0.00  0.00    -0.059 A 
ATOM     12  C   UNL     1       2.465  -2.628   0.208  0.00  0.00    +0.007 A 
ENDBRANCH   1  11
BRANCH   1  13
ATOM     13  N   UNL     1       6.030  -2.007   0.096  0.00  0.00    +0.382 N 
ATOM     14  C   UNL     1       5.869  -1.800   1.541  0.00  0.00    -0.096 C 
ATOM     15  C   UNL     1       7.269  -2.755  -0.156  0.00  0.00    -0.096 C 
ATOM     16  H   UNL     1       6.076  -1.113  -0.369  0.00  0.00    -0.082 HD
ENDBRANCH   1  13
BRANCH   1  17
ATOM     17  C   UNL     1       5.076  -3.026  -1.916  0.00  0.00    +0.093 C 
BRANCH  17  18
ATOM     18  N   UNL     1       3.988  -3.875  -2.408  0.00  0.00    -0.315 N 
ATOM     19  C   UNL     1       3.888  -4.147  -3.724  0.00  0.00    +0.233 C 
ATOM     20  O   UNL     1       4.699  -3.689  -4.501  0.00  0.00    -0.274 OA
ATOM     21  H   UNL     1       3.339  -4.241  -1.787  0.00  0.00    +0.149 HD
BRANCH  19  22
ATOM     22  C   UNL     1       2.769  -5.020  -4.231  0.00  0.00    +0.224 C 
BRANCH  22  23
ATOM     23  N   UNL     1       2.880  -5.162  -5.685  0.00  0.00    -0.265 N 
ATOM     24  C   UNL     1       2.301  -4.330  -6.642  0.00  0.00    +0.091 A 
ATOM     25  C   UNL     1       1.503  -3.199  -6.562  0.00  0.00    +0.030 A 
ATOM     26  C   UNL     1       1.074  -2.578  -7.719  0.00  0.00    +0.002 A 
ATOM     27  C   UNL     1       1.438  -3.083  -8.956  0.00  0.00    +0.004 A 
ATOM     28  C   UNL     1       2.233  -4.209  -9.043  0.00  0.00    +0.048 A 
ATOM     29  C   UNL     1       2.669  -4.838  -7.887  0.00  0.00    +0.157 A 
ATOM     30  O   UNL     1       3.438  -5.932  -7.664  0.00  0.00    -0.407 OA
ATOM     31  C   UNL     1       3.566  -6.119  -6.341  0.00  0.00    +0.422 A 
ATOM     32  O   UNL     1       4.201  -7.014  -5.816  0.00  0.00    -0.223 OA
ENDBRANCH  22  23
ENDBRANCH  19  22
ENDBRANCH  17  18
ENDBRANCH   1  17
TORSDOF 6
