REMARK  Name = ZINC50089356
REMARK  7 active torsions:
REMARK  status: ('A' for Active; 'I' for Inactive)
REMARK    1  A    between atoms: C_1  and  O_2
REMARK    2  A    between atoms: O_2  and  C_3
REMARK    3  A    between atoms: C_6  and  C_23
REMARK    4  A    between atoms: C_8  and  N_9
REMARK    5  A    between atoms: N_12  and  C_13
REMARK    6  A    between atoms: N_17  and  S_19
REMARK    7  A    between atoms: S_19  and  C_22
REMARK                            x       y       z     vdW  Elec       q    Type
REMARK                         _______ _______ _______ _____ _____    ______ ____
ROOT
ATOM      1  N   UNL     1      -0.066  -2.777  -0.012  0.00  0.00    -0.266 N 
ATOM      2  C   UNL     1      -0.113  -4.121   0.083  0.00  0.00    +0.304 C 
ATOM      3  O   UNL     1      -1.186  -4.692   0.090  0.00  0.00    -0.252 OA
ATOM      4  N   UNL     1       1.029  -4.831   0.170  0.00  0.00    -0.295 N 
ATOM      5  H   UNL     1       0.789  -2.327  -0.100  0.00  0.00    +0.156 HD
ATOM      6  H   UNL     1       1.885  -4.376   0.164  0.00  0.00    +0.151 HD
ENDROOT
BRANCH   1  12
ATOM      7  C   UNL     1      -1.294  -0.765  -0.571  0.00  0.00    +0.141 A 
ATOM      8  C   UNL     1      -2.468  -0.026  -0.549  0.00  0.00    +0.049 A 
ATOM      9  C   UNL     1      -3.596  -0.535   0.058  0.00  0.00    +0.022 A 
ATOM     10  C   UNL     1      -3.560  -1.799   0.653  0.00  0.00    +0.054 A 
ATOM     11  C   UNL     1      -2.378  -2.544   0.632  0.00  0.00    +0.046 A 
ATOM     12  C   UNL     1      -1.251  -2.030   0.016  0.00  0.00    +0.078 A 
BRANCH   7  14
ATOM     13  C   UNL     1      -0.298   1.041  -1.751  0.00  0.00    +0.277 C 
ATOM     14  O   UNL     1      -0.185  -0.259  -1.170  0.00  0.00    -0.493 OA
ENDBRANCH   7  14
BRANCH  10  15
ATOM     15  C   UNL     1      -4.731  -2.328   1.284  0.00  0.00    +0.099 C 
ATOM     16  N   UNL     1      -5.660  -2.748   1.785  0.00  0.00    -0.191 NA
ENDBRANCH  10  15
ENDBRANCH   1  12
BRANCH   4  17
ATOM     17  C   UNL     1       0.977  -6.292   0.273  0.00  0.00    +0.090 C 
ATOM     18  C   UNL     1       0.883  -6.900  -1.128  0.00  0.00    +0.025 C 
ATOM     19  C   UNL     1       0.795  -8.424  -1.020  0.00  0.00    +0.019 C 
ATOM     20  C   UNL     1       2.063  -8.957  -0.346  0.00  0.00    +0.109 C 
ATOM     21  N   UNL     1       2.240  -8.270   0.941  0.00  0.00    -0.180 NA
ATOM     22  C   UNL     1       2.247  -6.801   0.962  0.00  0.00    +0.131 C 
BRANCH  21  23
ATOM     23  S   UNL     1       2.427  -9.135   2.340  0.00  0.00    +0.029 S 
ATOM     24  O   UNL     1       1.960  -8.269   3.366  0.00  0.00    -0.158 OA
ATOM     25  O   UNL     1       1.780 -10.375   2.089  0.00  0.00    -0.158 OA
ATOM     26  C   UNL     1       4.217  -9.384   2.499  0.00  0.00    +0.215 C 
ENDBRANCH  21  23
ENDBRANCH   4  17
TORSDOF 5
