REMARK  Name = ZINC06849280
REMARK  6 active torsions:
REMARK  status: ('A' for Active; 'I' for Inactive)
REMARK    1  A    between atoms: C_1  and  C_2
REMARK    2  A    between atoms: C_3  and  C_22
REMARK    3  A    between atoms: C_4  and  C_12
REMARK    4  A    between atoms: C_15  and  O_18
REMARK    5  A    between atoms: O_18  and  C_19
REMARK    6  A    between atoms: N_24  and  C_25
REMARK                            x       y       z     vdW  Elec       q    Type
REMARK                         _______ _______ _______ _____ _____    ______ ____
ROOT
ATOM      1  C   UNL     1      -3.892   6.915   0.178  0.00  0.00    +0.061 C 
ATOM      2  C   UNL     1      -2.701   7.838   0.141  0.00  0.00    +0.018 C 
ATOM      3  C   UNL     1      -1.471   7.306   0.080  0.00  0.00    +0.060 C 
ATOM      4  C   UNL     1      -0.218   8.139   0.021  0.00  0.00    +0.177 C 
ATOM      5  N   UNL     1      -0.541   9.527   0.336  0.00  0.00    -0.221 N 
ATOM      6  C   UNL     1      -1.808  10.007   0.400  0.00  0.00    +0.218 A 
ATOM      7  N   UNL     1      -1.743  11.277   0.695  0.00  0.00    -0.201 NA
ATOM      8  C   UNL     1      -0.464  11.640   0.831  0.00  0.00    +0.247 A 
ATOM      9  N   UNL     1       0.304  10.599   0.621  0.00  0.00    -0.156 NA
ATOM     10  N   UNL     1      -2.911   9.194   0.177  0.00  0.00    -0.287 N 
ATOM     11  H   UNL     1      -3.796   9.570   0.046  0.00  0.00    +0.155 HD
ENDROOT
BRANCH   4  12
ATOM     12  C   UNL     1       0.371   8.062  -1.364  0.00  0.00    -0.018 A 
ATOM     13  C   UNL     1      -0.369   8.485  -2.453  0.00  0.00    +0.009 A 
ATOM     14  C   UNL     1       0.170   8.421  -3.723  0.00  0.00    +0.046 A 
ATOM     15  C   UNL     1       1.451   7.921  -3.907  0.00  0.00    +0.127 A 
ATOM     16  C   UNL     1       2.189   7.492  -2.814  0.00  0.00    +0.046 A 
ATOM     17  C   UNL     1       1.648   7.564  -1.545  0.00  0.00    +0.009 A 
BRANCH  15  18
ATOM     18  O   UNL     1       1.982   7.852  -5.156  0.00  0.00    -0.434 OA
BRANCH  18  19
ATOM     19  C   UNL     1       1.164   8.311  -6.235  0.00  0.00    +0.541 C 
ATOM     20  F   UNL     1      -0.012   7.555  -6.283  0.00  0.00    -0.166 F 
ATOM     21  F   UNL     1       0.845   9.659  -6.037  0.00  0.00    -0.166 F 
ENDBRANCH  18  19
ENDBRANCH  15  18
ENDBRANCH   4  12
BRANCH   3  22
ATOM     22  C   UNL     1      -1.346   5.897   0.065  0.00  0.00    +0.248 C 
ATOM     23  O   UNL     1      -1.133   5.294   1.101  0.00  0.00    -0.270 OA
ATOM     24  N   UNL     1      -1.461   5.223  -1.096  0.00  0.00    -0.282 N 
ATOM     25  H   UNL     1      -1.570   5.707  -1.929  0.00  0.00    +0.155 HD
BRANCH  24  26
ATOM     26  C   UNL     1      -1.425   3.825  -1.099  0.00  0.00    +0.034 A 
ATOM     27  C   UNL     1      -2.207   3.110  -1.997  0.00  0.00    +0.023 A 
ATOM     28  C   UNL     1      -2.169   1.729  -1.997  0.00  0.00    +0.002 A 
ATOM     29  C   UNL     1      -1.354   1.059  -1.104  0.00  0.00    +0.000 A 
ATOM     30  C   UNL     1      -0.578   1.767  -0.205  0.00  0.00    +0.002 A 
ATOM     31  C   UNL     1      -0.607   3.148  -0.203  0.00  0.00    +0.023 A 
ENDBRANCH  24  26
ENDBRANCH   3  22
TORSDOF 5
