REMARK  Name = ZINC32964499
REMARK  6 active torsions:
REMARK  status: ('A' for Active; 'I' for Inactive)
REMARK    1  A    between atoms: C_1  and  C_2
REMARK    2  A    between atoms: C_5  and  N_9
REMARK    3  A    between atoms: C_6  and  C_8
REMARK    4  A    between atoms: C_13  and  C_14
REMARK    5  A    between atoms: C_25  and  S_26
REMARK    6  A    between atoms: S_26  and  C_29
REMARK                            x       y       z     vdW  Elec       q    Type
REMARK                         _______ _______ _______ _____ _____    ______ ____
ROOT
ATOM      1  C   UNL     1      -2.161  -4.785   1.122  0.00  0.00    +0.042 C 
ATOM      2  C   UNL     1      -2.901  -3.725   0.626  0.00  0.00    +0.081 C 
ATOM      3  C   UNL     1      -4.035  -3.134   1.389  0.00  0.00    +0.138 C 
ATOM      4  N   UNL     1      -4.070  -3.073   2.695  0.00  0.00    -0.284 NA
ATOM      5  N   UNL     1      -5.067  -2.647   0.562  0.00  0.00    -0.201 N 
ATOM      6  C   UNL     1      -4.760  -2.309  -0.739  0.00  0.00    +0.183 C 
ATOM      7  N   UNL     1      -3.607  -2.485  -1.342  0.00  0.00    -0.152 NA
ATOM      8  C   UNL     1      -2.606  -3.113  -0.690  0.00  0.00    +0.273 C 
ATOM      9  O   UNL     1      -1.486  -3.179  -1.172  0.00  0.00    -0.268 OA
ATOM     10  S   UNL     1      -6.188  -1.668  -1.313  0.00  0.00    +0.049 S 
ATOM     11  N   UNL     1      -7.161  -1.928   0.027  0.00  0.00    -0.174 NA
ATOM     12  C   UNL     1      -6.363  -2.456   0.903  0.00  0.00    +0.257 C 
ATOM     13  H   UNL     1      -3.331  -3.424   3.216  0.00  0.00    +0.188 HD
ENDROOT
BRANCH   1  18
ATOM     14  N   UNL     1       0.163  -4.527   0.271  0.00  0.00    -0.316 N 
ATOM     15  C   UNL     1       1.026  -5.292  -0.446  0.00  0.00    +0.092 A 
ATOM     16  C   UNL     1       0.421  -6.468  -0.754  0.00  0.00    +0.020 A 
ATOM     17  C   UNL     1      -0.865  -6.446  -0.215  0.00  0.00    +0.027 A 
ATOM     18  C   UNL     1      -1.016  -5.227   0.432  0.00  0.00    +0.047 A 
BRANCH  14  23
ATOM     19  C   UNL     1       1.233   0.667   2.291  0.00  0.00    +0.044 C 
ATOM     20  C   UNL     1       0.949  -0.712   1.755  0.00  0.00    -0.050 A 
ATOM     21  C   UNL     1       0.844  -0.914   0.391  0.00  0.00    +0.005 A 
ATOM     22  C   UNL     1       0.584  -2.177  -0.104  0.00  0.00    +0.026 A 
ATOM     23  C   UNL     1       0.428  -3.245   0.770  0.00  0.00    +0.049 A 
ATOM     24  C   UNL     1       0.534  -3.039   2.139  0.00  0.00    -0.026 A 
ATOM     25  C   UNL     1       0.799  -1.774   2.627  0.00  0.00    +0.008 A 
ATOM     26  C   UNL     1       0.365  -4.195   3.091  0.00  0.00    +0.046 C 
ENDBRANCH  14  23
ENDBRANCH   1  18
BRANCH  12  27
ATOM     27  S   UNL     1      -6.953  -2.914   2.499  0.00  0.00    +0.026 S 
ATOM     28  O   UNL     1      -8.364  -3.002   2.352  0.00  0.00    -0.167 OA
ATOM     29  O   UNL     1      -6.189  -4.059   2.853  0.00  0.00    -0.167 OA
ATOM     30  C   UNL     1      -6.522  -1.518   3.574  0.00  0.00    +0.203 C 
ENDBRANCH  12  27
TORSDOF 3
