REMARK  Name = ZINC20082508
REMARK  10 active torsions:
REMARK  status: ('A' for Active; 'I' for Inactive)
REMARK    1  A    between atoms: C_1  and  C_2
REMARK    2  A    between atoms: C_2  and  C_3
REMARK    3  A    between atoms: C_10  and  C_15
REMARK    4  A    between atoms: C_15  and  C_17
REMARK    5  A    between atoms: C_15  and  N_27
REMARK    6  A    between atoms: N_21  and  C_22
REMARK    7  A    between atoms: N_30  and  C_33
REMARK    8  A    between atoms: C_33  and  C_34
REMARK    9  A    between atoms: C_39  and  O_40
REMARK   10  A    between atoms: O_40  and  C_41
REMARK                            x       y       z     vdW  Elec       q    Type
REMARK                         _______ _______ _______ _____ _____    ______ ____
ROOT
ATOM      1  C   UNL     1      -0.013   1.086   0.008  0.00  0.00    +0.162 C 
ENDROOT
BRANCH   1   9
ATOM      2  C   UNL     1      -1.163   4.306  -5.149  0.00  0.00    -0.047 A 
ATOM      3  C   UNL     1      -2.498   3.945  -5.264  0.00  0.00    +0.005 A 
ATOM      4  C   UNL     1      -3.082   3.106  -4.339  0.00  0.00    +0.026 A 
ATOM      5  C   UNL     1      -2.327   2.616  -3.278  0.00  0.00    +0.049 A 
ATOM      6  C   UNL     1      -0.973   2.984  -3.165  0.00  0.00    -0.001 A 
ATOM      7  C   UNL     1      -0.402   3.837  -4.116  0.00  0.00    +0.013 A 
ATOM      8  C   UNL     1      -0.186   2.463  -2.046  0.00  0.00    +0.021 A 
ATOM      9  C   UNL     1      -0.794   1.640  -1.155  0.00  0.00    +0.042 A 
ATOM     10  C   UNL     1      -2.153   1.296  -1.318  0.00  0.00    +0.254 A 
ATOM     11  O   UNL     1      -2.678   0.551  -0.508  0.00  0.00    -0.268 OA
ATOM     12  N   UNL     1      -2.885   1.775  -2.339  0.00  0.00    -0.322 N 
ATOM     13  H   UNL     1      -3.943   1.486  -2.419  0.00  0.00    +0.169 HD
BRANCH   2  15
ATOM     14  C   UNL     1       0.039   4.394  -7.316  0.00  0.00    +0.009 C 
ATOM     15  C   UNL     1      -0.547   5.225  -6.173  0.00  0.00    +0.032 C 
ENDBRANCH   2  15
ENDBRANCH   1   9
BRANCH   1  16
ATOM     16  N   UNL     1      -0.641   1.510   1.266  0.00  0.00    -0.286 NA
ATOM     17  C   UNL     1      -0.762   2.973   1.328  0.00  0.00    +0.101 C 
ATOM     18  C   UNL     1      -1.492   3.368   2.614  0.00  0.00    +0.100 C 
ATOM     19  N   UNL     1      -0.749   2.855   3.773  0.00  0.00    -0.296 NA
ATOM     20  C   UNL     1      -0.628   1.392   3.712  0.00  0.00    +0.100 C 
ATOM     21  C   UNL     1       0.102   0.996   2.425  0.00  0.00    +0.101 C 
BRANCH  19  22
ATOM     22  C   UNL     1      -1.377   3.279   5.031  0.00  0.00    +0.123 C 
BRANCH  22  23
ATOM     23  C   UNL     1      -1.264   4.775   5.170  0.00  0.00    +0.008 A 
ATOM     24  C   UNL     1      -0.286   5.322   5.979  0.00  0.00    +0.008 A 
ATOM     25  C   UNL     1      -0.178   6.694   6.103  0.00  0.00    +0.001 A 
ATOM     26  C   UNL     1      -1.054   7.523   5.428  0.00  0.00    +0.004 A 
ATOM     27  C   UNL     1      -2.037   6.982   4.622  0.00  0.00    +0.046 A 
ATOM     28  C   UNL     1      -2.144   5.604   4.492  0.00  0.00    +0.124 A 
BRANCH  28  29
ATOM     29  O   UNL     1      -3.111   5.069   3.700  0.00  0.00    -0.495 OA
ATOM     30  C   UNL     1      -3.982   5.983   3.031  0.00  0.00    +0.277 C 
ENDBRANCH  28  29
ENDBRANCH  22  23
ENDBRANCH  19  22
ENDBRANCH   1  16
BRANCH   1  31
ATOM     31  C   UNL     1       1.402   1.602  -0.045  0.00  0.00    +0.173 A 
ATOM     32  N   UNL     1       1.807   2.809   0.264  0.00  0.00    -0.111 NA
ATOM     33  N   UNL     1       3.083   2.859   0.089  0.00  0.00    -0.023 NA
ATOM     34  N   UNL     1       3.502   1.714  -0.324  0.00  0.00    -0.044 NA
ATOM     35  N   UNL     1       2.496   0.910  -0.414  0.00  0.00    -0.224 N 
BRANCH  35  36
ATOM     36  C   UNL     1       2.537  -0.490  -0.842  0.00  0.00    +0.111 C 
ATOM     37  C   UNL     1       3.486  -1.294   0.071  0.00  0.00    +0.027 C 
ATOM     38  C   UNL     1       4.179  -2.294  -0.889  0.00  0.00    +0.002 C 
ATOM     39  C   UNL     1       4.386  -1.450  -2.171  0.00  0.00    +0.002 C 
ATOM     40  C   UNL     1       3.109  -0.590  -2.267  0.00  0.00    +0.027 C 
ENDBRANCH  35  36
ENDBRANCH   1  31
TORSDOF 8
