REMARK  Name = ZINC38519669
REMARK  5 active torsions:
REMARK  status: ('A' for Active; 'I' for Inactive)
REMARK    1  A    between atoms: C_1  and  C_2
REMARK    2  A    between atoms: C_4  and  C_29
REMARK    3  A    between atoms: C_6  and  C_8
REMARK    4  A    between atoms: N_14  and  C_16
REMARK    5  A    between atoms: C_21  and  C_23
REMARK                            x       y       z     vdW  Elec       q    Type
REMARK                         _______ _______ _______ _____ _____    ______ ____
ROOT
ATOM      1  C   UNL     1       0.052  -2.845   2.457  0.00  0.00    +0.249 C 
ATOM      2  O   UNL     1       0.068  -4.061   2.446  0.00  0.00    -0.270 OA
ATOM      3  N   UNL     1       0.048  -2.182   3.631  0.00  0.00    -0.265 N 
ATOM      4  C   UNL     1       0.063  -2.894   4.837  0.00  0.00    +0.153 A 
ATOM      5  C   UNL     1       0.056  -2.339   6.114  0.00  0.00    +0.042 A 
ATOM      6  C   UNL     1       0.068  -3.365   7.020  0.00  0.00    +0.129 A 
ATOM      7  N   UNL     1       0.093  -4.521   6.330  0.00  0.00    -0.251 N 
ATOM      8  N   UNL     1       0.081  -4.204   4.962  0.00  0.00    -0.154 NA
ATOM      9  C   UNL     1       0.124  -5.868   6.904  0.00  0.00    +0.174 C 
ATOM     10  N   UNL     1       0.044  -3.133   8.395  0.00  0.00    -0.270 N 
ATOM     11  C   UNL     1      -0.195  -1.876   8.824  0.00  0.00    +0.219 C 
ATOM     12  O   UNL     1      -0.034  -1.615   9.998  0.00  0.00    -0.275 OA
ATOM     13  C   UNL     1      -0.652  -0.788   7.894  0.00  0.00    +0.109 C 
ATOM     14  C   UNL     1       0.046  -0.891   6.534  0.00  0.00    +0.064 C 
ATOM     15  H   UNL     1       0.035  -1.212   3.640  0.00  0.00    +0.157 HD
ATOM     16  H   UNL     1       0.193  -3.856   9.025  0.00  0.00    +0.156 HD
ENDROOT
BRANCH   1  22
ATOM     17  C   UNL     1      -0.018   1.503   0.010  0.00  0.00    +0.044 C 
ATOM     18  C   UNL     1       0.002  -0.004   0.002  0.00  0.00    -0.049 A 
ATOM     19  C   UNL     1       0.006  -0.688  -1.201  0.00  0.00    +0.006 A 
ATOM     20  C   UNL     1       0.024  -2.071  -1.217  0.00  0.00    -0.049 A 
ATOM     21  C   UNL     1       0.040  -2.778  -0.033  0.00  0.00    +0.016 A 
ATOM     22  C   UNL     1       0.036  -2.095   1.184  0.00  0.00    +0.038 A 
ATOM     23  C   UNL     1       0.023  -0.699   1.194  0.00  0.00    +0.016 A 
ATOM     24  C   UNL     1       0.028  -2.807  -2.532  0.00  0.00    +0.044 C 
ENDBRANCH   1  22
BRANCH  14  25
ATOM     25  C   UNL     1      -0.705  -0.072   5.515  0.00  0.00    -0.039 A 
ATOM     26  C   UNL     1      -2.034  -0.345   5.253  0.00  0.00    +0.004 A 
ATOM     27  C   UNL     1      -2.723   0.406   4.319  0.00  0.00    +0.000 A 
ATOM     28  C   UNL     1      -2.082   1.430   3.647  0.00  0.00    +0.000 A 
ATOM     29  C   UNL     1      -0.753   1.704   3.910  0.00  0.00    +0.000 A 
ATOM     30  C   UNL     1      -0.065   0.955   4.847  0.00  0.00    +0.004 A 
ENDBRANCH  14  25
TORSDOF 2
