REMARK  Name = ZINC21320085
REMARK  5 active torsions:
REMARK  status: ('A' for Active; 'I' for Inactive)
REMARK    1  A    between atoms: C_3  and  C_6
REMARK    2  A    between atoms: N_8  and  C_12
REMARK    3  A    between atoms: C_12  and  N_13
REMARK    4  A    between atoms: N_16  and  C_19
REMARK    5  A    between atoms: C_22  and  O_25
REMARK                            x       y       z     vdW  Elec       q    Type
REMARK                         _______ _______ _______ _____ _____    ______ ____
ROOT
ATOM      1  N   UNL     1       1.681   6.080  -1.042  0.00  0.00    +0.395 N 
ATOM      2  C   UNL     1       2.462   5.557   0.088  0.00  0.00    -0.057 C 
ATOM      3  C   UNL     1       2.523   4.031  -0.001  0.00  0.00    +0.086 C 
ATOM      4  N   UNL     1       1.159   3.486   0.009  0.00  0.00    -0.333 N 
ATOM      5  C   UNL     1       0.378   4.009  -1.121  0.00  0.00    +0.086 C 
ATOM      6  C   UNL     1       0.316   5.535  -1.032  0.00  0.00    -0.057 C 
ATOM      7  H   UNL     1       2.170   5.754  -1.972  0.00  0.00    -0.079 HD
ENDROOT
BRANCH   4   8
ATOM      8  C   UNL     1       1.177   2.087   0.002  0.00  0.00    +0.030 A 
ATOM      9  C   UNL     1      -0.017   1.377   0.010  0.00  0.00    +0.026 A 
ATOM     10  C   UNL     1       0.002  -0.004   0.002  0.00  0.00    +0.047 A 
ATOM     11  C   UNL     1       1.212  -0.681  -0.014  0.00  0.00    +0.117 A 
ATOM     12  C   UNL     1       2.405   0.027  -0.021  0.00  0.00    +0.047 A 
ATOM     13  C   UNL     1       2.388   1.408  -0.012  0.00  0.00    +0.026 A 
BRANCH  11  14
ATOM     14  O   UNL     1       1.230  -2.041  -0.022  0.00  0.00    -0.507 OA
ATOM     15  H   UNL     1       2.189  -2.579  -0.034  0.00  0.00    +0.292 HD
ENDBRANCH  11  14
ENDBRANCH   4   8
BRANCH   1  16
ATOM     16  C   UNL     1       1.662   7.549  -1.035  0.00  0.00    +0.073 C 
BRANCH  16  19
ATOM     17  C   UNL     1      -0.369   8.715  -3.775  0.00  0.00    +0.254 A 
ATOM     18  N   UNL     1      -0.268   8.299  -2.543  0.00  0.00    -0.130 NA
ATOM     19  N   UNL     1       1.087   8.036  -2.291  0.00  0.00    -0.240 N 
ATOM     20  C   UNL     1       1.760   8.324  -3.425  0.00  0.00    +0.265 A 
ATOM     21  S   UNL     1       3.449   8.186  -3.662  0.00  0.00    +0.011 S 
ATOM     22  O   UNL     1       0.860   8.735  -4.336  0.00  0.00    -0.411 OA
BRANCH  17  25
ATOM     23  C   UNL     1      -3.090   9.850  -6.140  0.00  0.00    +0.008 A 
ATOM     24  C   UNL     1      -1.812   9.546  -5.729  0.00  0.00    +0.021 A 
ATOM     25  C   UNL     1      -1.621   9.101  -4.446  0.00  0.00    +0.076 A 
ATOM     26  S   UNL     1      -3.287   9.103  -3.804  0.00  0.00    -0.092 S 
ATOM     27  C   UNL     1      -4.120   9.700  -5.266  0.00  0.00    +0.046 A 
ENDBRANCH  17  25
ENDBRANCH  16  19
ENDBRANCH   1  16
TORSDOF 5
