REMARK  Name = ZINC39581300
REMARK  7 active torsions:
REMARK  status: ('A' for Active; 'I' for Inactive)
REMARK    1  A    between atoms: C_1  and  C_2
REMARK    2  A    between atoms: C_5  and  O_9
REMARK    3  A    between atoms: O_9  and  C_10
REMARK    4  A    between atoms: C_10  and  C_12
REMARK    5  A    between atoms: C_10  and  C_13
REMARK    6  A    between atoms: N_15  and  C_16
REMARK    7  A    between atoms: C_20  and  N_22
REMARK                            x       y       z     vdW  Elec       q    Type
REMARK                         _______ _______ _______ _____ _____    ______ ____
ROOT
ATOM      1  C   UNL     1       0.728  -6.086  -1.256  0.00  0.00    +0.258 C 
ATOM      2  O   UNL     1       1.277  -6.460  -0.241  0.00  0.00    -0.271 OA
ATOM      3  N   UNL     1       0.681  -6.894  -2.334  0.00  0.00    -0.282 N 
ATOM      4  H   UNL     1       0.309  -6.568  -3.168  0.00  0.00    +0.155 HD
ENDROOT
BRANCH   3   5
ATOM      5  C   UNL     1       1.168  -8.204  -2.249  0.00  0.00    +0.036 A 
ATOM      6  C   UNL     1       1.767  -8.796  -3.353  0.00  0.00    +0.026 A 
ATOM      7  C   UNL     1       2.246 -10.088  -3.267  0.00  0.00    +0.042 A 
ATOM      8  C   UNL     1       2.130 -10.794  -2.081  0.00  0.00    +0.154 A 
ATOM      9  C   UNL     1       1.533 -10.205  -0.979  0.00  0.00    +0.163 A 
ATOM     10  C   UNL     1       1.057  -8.911  -1.059  0.00  0.00    +0.059 A 
ATOM     11  F   UNL     1       2.599 -12.058  -1.999  0.00  0.00    -0.203 F 
BRANCH   9  12
ATOM     12  N   UNL     1       1.409 -10.961   0.287  0.00  0.00    +0.059 N 
ATOM     13  O   UNL     1       0.888 -10.448   1.250  0.00  0.00    -0.126 OA
ATOM     14  O   UNL     1       1.829 -12.093   0.359  0.00  0.00    -0.126 OA
ENDBRANCH   9  12
ENDBRANCH   3   5
BRANCH   1  15
ATOM     15  C   UNL     1       0.098  -4.718  -1.311  0.00  0.00    +0.256 C 
ATOM     16  C   UNL     1      -1.416  -4.860  -1.480  0.00  0.00    +0.062 C 
BRANCH  15  17
ATOM     17  O   UNL     1       0.378  -4.015  -0.099  0.00  0.00    -0.479 OA
BRANCH  17  22
ATOM     18  C   UNL     1       0.287   1.613  -0.328  0.00  0.00    +0.044 C 
ATOM     19  C   UNL     1       0.312   0.107  -0.266  0.00  0.00    -0.049 A 
ATOM     20  C   UNL     1      -0.061  -0.635  -1.371  0.00  0.00    +0.007 A 
ATOM     21  C   UNL     1      -0.040  -2.015  -1.318  0.00  0.00    +0.047 A 
ATOM     22  C   UNL     1       0.357  -2.657  -0.154  0.00  0.00    +0.136 A 
ATOM     23  C   UNL     1       0.732  -1.911   0.954  0.00  0.00    +0.060 A 
ATOM     24  C   UNL     1       0.714  -0.530   0.893  0.00  0.00    +0.022 A 
ATOM     25 BR   UNL     1       1.273  -2.781   2.543  0.00  0.00    -0.047 Br
ENDBRANCH  17  22
ENDBRANCH  15  17
ENDBRANCH   1  15
TORSDOF 5
