REMARK  Name = ZINC52225734
REMARK  3 active torsions:
REMARK  status: ('A' for Active; 'I' for Inactive)
REMARK    1  A    between atoms: C_2  and  C_13
REMARK    2  A    between atoms: C_13  and  N_14
REMARK    3  A    between atoms: C_16  and  C_19
REMARK                            x       y       z     vdW  Elec       q    Type
REMARK                         _______ _______ _______ _____ _____    ______ ____
ROOT
ATOM      1  C   UNL     1      -0.017   1.380   0.010  0.00  0.00    +0.055 A 
ATOM      2  C   UNL     1       1.175   2.083   0.002  0.00  0.00    -0.021 A 
ATOM      3  C   UNL     1       2.381   1.407  -0.014  0.00  0.00    +0.029 A 
ATOM      4  C   UNL     1       2.404   0.023  -0.022  0.00  0.00    +0.086 A 
ATOM      5  C   UNL     1       1.212  -0.683  -0.013  0.00  0.00    +0.180 A 
ATOM      6  C   UNL     1       0.002  -0.004   0.002  0.00  0.00    +0.164 A 
ATOM      7  O   UNL     1      -1.167  -0.709   0.010  0.00  0.00    -0.488 OA
ATOM      8  C   UNL     1      -1.468  -1.433  -1.184  0.00  0.00    +0.232 C 
ATOM      9  C   UNL     1      -0.780  -2.789  -1.181  0.00  0.00    +0.082 C 
ATOM     10  C   UNL     1       0.736  -2.670  -1.212  0.00  0.00    +0.232 C 
ATOM     11  O   UNL     1       1.220  -2.048  -0.020  0.00  0.00    -0.487 OA
ATOM     12 CL   UNL     1       3.919  -0.824  -0.042  0.00  0.00    -0.080 Cl
ENDROOT
BRANCH   2  13
ATOM     13  C   UNL     1       1.159   3.590   0.011  0.00  0.00    +0.180 C 
BRANCH  13  14
ATOM     14  N   UNL     1       1.167   4.070   1.395  0.00  0.00    -0.247 N 
ATOM     15  C   UNL     1       2.058   4.939   1.927  0.00  0.00    +0.135 A 
ATOM     16  C   UNL     1       1.696   5.104   3.221  0.00  0.00    +0.097 A 
ATOM     17  N   UNL     1       0.616   4.338   3.414  0.00  0.00    -0.133 NA
ATOM     18  N   UNL     1       0.325   3.744   2.311  0.00  0.00    -0.065 NA
BRANCH  16  19
ATOM     19  C   UNL     1       2.377   5.977   4.243  0.00  0.00    +0.167 C 
ATOM     20 CL   UNL     1       1.648   7.626   4.205  0.00  0.00    -0.119 Cl
ENDBRANCH  16  19
ENDBRANCH  13  14
ENDBRANCH   2  13
TORSDOF 3
