REMARK  Name = ZINC40405645
REMARK  8 active torsions:
REMARK  status: ('A' for Active; 'I' for Inactive)
REMARK    1  A    between atoms: C_1  and  C_2
REMARK    2  A    between atoms: C_2  and  N_3
REMARK    3  A    between atoms: C_9  and  C_11
REMARK    4  A    between atoms: C_13  and  C_27
REMARK    5  A    between atoms: N_18  and  C_19
REMARK    6  A    between atoms: C_19  and  C_20
REMARK    7  A    between atoms: C_30  and  N_33
REMARK    8  A    between atoms: C_34  and  C_36
REMARK                            x       y       z     vdW  Elec       q    Type
REMARK                         _______ _______ _______ _____ _____    ______ ____
ROOT
ATOM      1  C   UNL     1       3.041  -4.028  -3.343  0.00  0.00    +0.211 C 
ATOM      2  C   UNL     1       3.112  -4.975  -2.121  0.00  0.00    +0.238 C 
ATOM      3  O   UNL     1       4.466  -5.462  -2.198  0.00  0.00    -0.440 OA
ATOM      4  C   UNL     1       4.859  -5.399  -3.481  0.00  0.00    +0.405 C 
ATOM      5  O   UNL     1       5.800  -6.025  -3.928  0.00  0.00    -0.226 OA
ATOM      6  N   UNL     1       4.095  -4.568  -4.224  0.00  0.00    -0.248 N 
ENDROOT
BRANCH   1  13
ATOM      7  N   UNL     1       0.769  -0.640  -0.482  0.00  0.00    -0.300 NA
ATOM      8  C   UNL     1       2.180  -0.242  -0.576  0.00  0.00    +0.103 C 
ATOM      9  C   UNL     1       2.670  -0.444  -2.013  0.00  0.00    +0.123 C 
ATOM     10  N   UNL     1       2.387  -1.831  -2.412  0.00  0.00    -0.297 N 
ATOM     11  C   UNL     1       1.024  -2.347  -2.219  0.00  0.00    +0.123 C 
ATOM     12  C   UNL     1       0.599  -2.070  -0.773  0.00  0.00    +0.103 C 
ATOM     13  C   UNL     1       3.353  -2.609  -2.941  0.00  0.00    +0.240 C 
ATOM     14  O   UNL     1       4.472  -2.168  -3.094  0.00  0.00    -0.273 OA
BRANCH   7  16
ATOM     15  C   UNL     1       0.182   1.220   0.999  0.00  0.00    +0.020 C 
ATOM     16  C   UNL     1       0.213  -0.301   0.835  0.00  0.00    +0.081 C 
ENDBRANCH   7  16
ENDBRANCH   1  13
BRANCH   2  17
ATOM     17  C   UNL     1       2.125  -6.105  -2.258  0.00  0.00    -0.005 A 
ATOM     18  C   UNL     1       2.471  -7.242  -2.964  0.00  0.00    +0.009 A 
ATOM     19  C   UNL     1       1.568  -8.280  -3.091  0.00  0.00    +0.024 A 
ATOM     20  C   UNL     1       0.312  -8.180  -2.508  0.00  0.00    +0.034 A 
ATOM     21  C   UNL     1      -0.033  -7.036  -1.799  0.00  0.00    +0.024 A 
ATOM     22  C   UNL     1       0.876  -6.005  -1.672  0.00  0.00    +0.009 A 
BRANCH  20  23
ATOM     23  N   UNL     1      -0.605  -9.228  -2.635  0.00  0.00    -0.279 N 
ATOM     24  C   UNL     1      -1.924  -8.964  -2.710  0.00  0.00    +0.284 C 
ATOM     25  O   UNL     1      -2.312  -7.812  -2.763  0.00  0.00    -0.266 OA
ATOM     26  H   UNL     1      -0.291 -10.145  -2.670  0.00  0.00    +0.155 HD
BRANCH  24  27
ATOM     27  C   UNL     1      -2.892 -10.066  -2.726  0.00  0.00    +0.189 A 
ATOM     28  C   UNL     1      -4.250  -9.940  -2.804  0.00  0.00    +0.054 A 
ATOM     29  C   UNL     1      -4.777 -11.240  -2.791  0.00  0.00    +0.042 A 
ATOM     30  C   UNL     1      -3.732 -12.092  -2.707  0.00  0.00    +0.196 A 
ATOM     31  O   UNL     1      -2.598 -11.381  -2.673  0.00  0.00    -0.458 OA
ENDBRANCH  24  27
ENDBRANCH  20  23
ENDBRANCH   2  17
BRANCH   6  32
ATOM     32  C   UNL     1       4.276  -4.258  -5.645  0.00  0.00    +0.147 C 
BRANCH  32  33
ATOM     33  C   UNL     1       5.184  -3.064  -5.786  0.00  0.00    -0.030 A 
ATOM     34  C   UNL     1       4.651  -1.789  -5.808  0.00  0.00    +0.008 A 
ATOM     35  C   UNL     1       5.483  -0.693  -5.937  0.00  0.00    +0.038 A 
ATOM     36  C   UNL     1       6.851  -0.872  -6.045  0.00  0.00    +0.123 A 
ATOM     37  C   UNL     1       7.385  -2.150  -6.024  0.00  0.00    +0.038 A 
ATOM     38  C   UNL     1       6.551  -3.244  -5.889  0.00  0.00    +0.008 A 
ATOM     39  F   UNL     1       7.665   0.198  -6.172  0.00  0.00    -0.205 F 
ENDBRANCH  32  33
ENDBRANCH   6  32
TORSDOF 7
