REMARK  Name = ZINC06082668
REMARK  6 active torsions:
REMARK  status: ('A' for Active; 'I' for Inactive)
REMARK    1  A    between atoms: C_1  and  C_2
REMARK    2  A    between atoms: C_2  and  C_4
REMARK    3  A    between atoms: C_2  and  O_16
REMARK    4  A    between atoms: O_16  and  C_17
REMARK    5  A    between atoms: C_17  and  C_19
REMARK    6  A    between atoms: C_19  and  C_20
REMARK                            x       y       z     vdW  Elec       q    Type
REMARK                         _______ _______ _______ _____ _____    ______ ____
ROOT
ATOM      1  C   UNL     1       4.554   3.871  -1.410  0.00  0.00    +0.312 C 
ATOM      2  O   UNL     1       4.959   4.392  -0.398  0.00  0.00    -0.250 OA
ENDROOT
BRANCH   1   3
ATOM      3  O   UNL     1       3.861   2.724  -1.343  0.00  0.00    -0.454 OA
BRANCH   3   5
ATOM      4  C   UNL     1       4.785   1.222   0.336  0.00  0.00    +0.060 C 
ATOM      5  C   UNL     1       3.636   2.166  -0.021  0.00  0.00    +0.239 C 
BRANCH   5   6
ATOM      6  C   UNL     1       2.337   1.401  -0.013  0.00  0.00    +0.151 A 
ATOM      7  N   UNL     1       1.175   2.106   0.002  0.00  0.00    -0.307 N 
ATOM      8  H   UNL     1       1.202   3.105   0.007  0.00  0.00    +0.170 HD
ATOM      9  C   UNL     1      -0.018   1.466   0.010  0.00  0.00    +0.259 A 
ATOM     10  O   UNL     1      -1.067   2.084   0.018  0.00  0.00    -0.267 OA
ATOM     11  C   UNL     1       0.002  -0.004   0.002  0.00  0.00    +0.065 A 
ATOM     12  C   UNL     1      -1.170  -0.757   0.009  0.00  0.00    +0.015 A 
ATOM     13  C   UNL     1      -1.093  -2.133   0.000  0.00  0.00    +0.001 A 
ATOM     14  C   UNL     1       0.140  -2.771  -0.015  0.00  0.00    +0.002 A 
ATOM     15  C   UNL     1       1.310  -2.045  -0.021  0.00  0.00    +0.028 A 
ATOM     16  C   UNL     1       1.258  -0.650  -0.013  0.00  0.00    +0.078 A 
ATOM     17  N   UNL     1       2.386   0.104  -0.020  0.00  0.00    -0.230 NA
ENDBRANCH   5   6
ENDBRANCH   3   5
ENDBRANCH   1   3
BRANCH   1  18
ATOM     18  C   UNL     1       4.826   4.510  -2.747  0.00  0.00    +0.159 C 
BRANCH  18  19
ATOM     19  C   UNL     1       5.616   5.777  -2.547  0.00  0.00    +0.009 A 
ATOM     20  C   UNL     1       5.129   7.026  -2.459  0.00  0.00    +0.200 A 
ATOM     21  O   UNL     1       6.135   7.898  -2.279  0.00  0.00    -0.463 OA
ATOM     22  C   UNL     1       7.324   7.261  -2.250  0.00  0.00    +0.136 A 
ATOM     23  C   UNL     1       7.066   5.897  -2.416  0.00  0.00    +0.032 A 
ATOM     24  C   UNL     1       8.180   4.957  -2.426  0.00  0.00    -0.007 A 
ATOM     25  C   UNL     1       7.984   3.581  -2.588  0.00  0.00    +0.009 A 
ATOM     26  C   UNL     1       9.058   2.741  -2.590  0.00  0.00    +0.001 A 
ATOM     27  C   UNL     1      10.350   3.234  -2.432  0.00  0.00    +0.001 A 
ATOM     28  C   UNL     1      10.576   4.568  -2.272  0.00  0.00    +0.008 A 
ATOM     29  C   UNL     1       9.494   5.461  -2.265  0.00  0.00    -0.017 A 
ATOM     30  C   UNL     1       9.689   6.846  -2.101  0.00  0.00    +0.012 A 
ATOM     31  C   UNL     1       8.641   7.707  -2.095  0.00  0.00    +0.047 A 
ENDBRANCH  18  19
ENDBRANCH   1  18
TORSDOF 5
