REMARK  Name = ZINC04353775
REMARK  2 active torsions:
REMARK  status: ('A' for Active; 'I' for Inactive)
REMARK    1  A    between atoms: C_6  and  C_7
REMARK    2  A    between atoms: C_7  and  N_8
REMARK                            x       y       z     vdW  Elec       q    Type
REMARK                         _______ _______ _______ _____ _____    ______ ____
ROOT
ATOM      1  N   UNL     1      -1.726  -1.017  -1.368  0.00  0.00    -0.324 N 
ATOM      2  C   UNL     1      -2.892  -1.708  -1.611  0.00  0.00    +0.133 A 
ATOM      3  C   UNL     1      -3.346  -1.971  -2.975  0.00  0.00    +0.078 A 
ATOM      4  C   UNL     1      -2.891  -1.692  -4.244  0.00  0.00    +0.118 A 
ATOM      5  N   UNL     1      -3.767  -2.208  -5.115  0.00  0.00    -0.282 N 
ATOM      6  H   UNL     1      -3.688  -2.156  -6.081  0.00  0.00    +0.188 HD
ATOM      7  N   UNL     1      -4.813  -2.834  -4.427  0.00  0.00    -0.154 NA
ATOM      8  C   UNL     1      -4.606  -2.719  -3.134  0.00  0.00    +0.186 A 
ATOM      9  N   UNL     1      -5.248  -3.108  -2.015  0.00  0.00    -0.214 NA
ATOM     10  C   UNL     1      -4.767  -2.829  -0.832  0.00  0.00    +0.225 A 
ATOM     11  N   UNL     1      -3.642  -2.166  -0.617  0.00  0.00    -0.220 NA
ATOM     12  H   UNL     1      -1.192  -0.691  -2.108  0.00  0.00    +0.148 HD
ENDROOT
BRANCH   1  13
ATOM     13  C   UNL     1      -1.293  -0.775   0.011  0.00  0.00    +0.138 C 
BRANCH  13  19
ATOM     14  C   UNL     1      -0.017   1.378   0.010  0.00  0.00    +0.006 A 
ATOM     15  C   UNL     1       1.171   2.086   0.002  0.00  0.00    +0.020 A 
ATOM     16  C   UNL     1       2.378   1.410  -0.013  0.00  0.00    +0.041 A 
ATOM     17  C   UNL     1       2.396   0.027  -0.021  0.00  0.00    +0.020 A 
ATOM     18  C   UNL     1       1.208  -0.679  -0.013  0.00  0.00    +0.006 A 
ATOM     19  C   UNL     1       0.002  -0.004   0.002  0.00  0.00    -0.030 A 
ATOM     20 CL   UNL     1       3.870   2.298  -0.023  0.00  0.00    -0.084 Cl
ENDBRANCH  13  19
ENDBRANCH   1  13
TORSDOF 2
