REMARK  Name = ZINC39337148
REMARK  3 active torsions:
REMARK  status: ('A' for Active; 'I' for Inactive)
REMARK    1  A    between atoms: C_4  and  C_7
REMARK    2  A    between atoms: C_7  and  N_8
REMARK    3  A    between atoms: N_17  and  C_20
REMARK                            x       y       z     vdW  Elec       q    Type
REMARK                         _______ _______ _______ _____ _____    ______ ____
ROOT
ATOM      1  N   UNL     1       4.192  -0.967   1.333  0.00  0.00    -0.219 N 
ATOM      2  C   UNL     1       4.925  -0.011   1.945  0.00  0.00    +0.255 C 
ATOM      3  O   UNL     1       5.168   1.041   1.393  0.00  0.00    -0.272 OA
ATOM      4  C   UNL     1       5.431  -0.295   3.338  0.00  0.00    +0.257 C 
ATOM      5  C   UNL     1       4.385  -1.216   3.960  0.00  0.00    +0.145 C 
ATOM      6  N   UNL     1       4.046  -0.661   5.071  0.00  0.00    -0.222 NA
ATOM      7  C   UNL     1       4.591   0.561   5.200  0.00  0.00    +0.218 C 
ATOM      8  N   UNL     1       5.409   0.879   4.212  0.00  0.00    -0.252 NA
ATOM      9  N   UNL     1       3.903  -2.293   3.266  0.00  0.00    -0.209 N 
ATOM     10  C   UNL     1       3.804  -2.107   1.924  0.00  0.00    +0.321 C 
ATOM     11  O   UNL     1       3.353  -3.002   1.238  0.00  0.00    -0.251 OA
ENDROOT
BRANCH   9  12
ATOM     12  C   UNL     1       3.537  -3.492   3.892  0.00  0.00    +0.044 A 
ATOM     13  C   UNL     1       2.207  -3.890   3.910  0.00  0.00    +0.024 A 
ATOM     14  C   UNL     1       1.849  -5.072   4.527  0.00  0.00    +0.002 A 
ATOM     15  C   UNL     1       2.814  -5.860   5.127  0.00  0.00    +0.000 A 
ATOM     16  C   UNL     1       4.140  -5.467   5.111  0.00  0.00    +0.002 A 
ATOM     17  C   UNL     1       4.505  -4.288   4.491  0.00  0.00    +0.024 A 
ENDBRANCH   9  12
BRANCH   1  18
ATOM     18  C   UNL     1       3.793  -0.743  -0.058  0.00  0.00    +0.153 C 
BRANCH  18  22
ATOM     19  C   UNL     1       0.031   1.278  -0.155  0.00  0.00    +0.000 A 
ATOM     20  C   UNL     1       1.206   2.006  -0.131  0.00  0.00    +0.000 A 
ATOM     21  C   UNL     1       2.423   1.352  -0.099  0.00  0.00    +0.005 A 
ATOM     22  C   UNL     1       2.466  -0.030  -0.091  0.00  0.00    -0.030 A 
ATOM     23  C   UNL     1       1.291  -0.758  -0.115  0.00  0.00    +0.005 A 
ATOM     24  C   UNL     1       0.073  -0.104  -0.147  0.00  0.00    +0.000 A 
ENDBRANCH  18  22
ENDBRANCH   1  18
TORSDOF 3
