REMARK  Name = ZINC64519724
REMARK  7 active torsions:
REMARK  status: ('A' for Active; 'I' for Inactive)
REMARK    1  A    between atoms: C_1  and  C_2
REMARK    2  A    between atoms: C_5  and  C_9
REMARK    3  A    between atoms: C_7  and  C_8
REMARK    4  A    between atoms: C_18  and  C_20
REMARK    5  A    between atoms: N_22  and  C_23
REMARK    6  A    between atoms: C_23  and  C_24
REMARK    7  A    between atoms: C_24  and  C_25
REMARK                            x       y       z     vdW  Elec       q    Type
REMARK                         _______ _______ _______ _____ _____    ______ ____
ROOT
ATOM      1  C   UNL     1       0.061  -4.250  -0.021  0.00  0.00    +0.059 C 
ATOM      2  C   UNL     1       0.172  -4.998   1.128  0.00  0.00    +0.044 C 
ATOM      3  C   UNL     1       0.194  -6.402   1.040  0.00  0.00    +0.109 C 
ATOM      4  N   UNL     1       0.360  -7.047  -0.077  0.00  0.00    -0.263 NA
ATOM      5  C   UNL     1       0.601  -6.320  -1.325  0.00  0.00    +0.246 C 
ATOM      6  N   UNL     1      -0.036  -4.990  -1.181  0.00  0.00    -0.224 N 
ATOM      7  N   UNL     1      -0.736  -4.765  -2.359  0.00  0.00    -0.269 N 
ATOM      8  C   UNL     1      -0.908  -5.945  -3.024  0.00  0.00    +0.100 C 
ATOM      9  C   UNL     1      -0.138  -6.947  -2.484  0.00  0.00    +0.073 C 
ATOM     10  H   UNL     1      -1.056  -3.901  -2.663  0.00  0.00    +0.170 HD
ENDROOT
BRANCH   1  15
ATOM     11  C   UNL     1      -0.018   1.503   0.010  0.00  0.00    +0.044 C 
ATOM     12  C   UNL     1       0.002  -0.004   0.001  0.00  0.00    -0.048 A 
ATOM     13  C   UNL     1       0.802  -0.677  -0.906  0.00  0.00    +0.004 A 
ATOM     14  C   UNL     1       0.826  -2.056  -0.919  0.00  0.00    +0.010 A 
ATOM     15  C   UNL     1       0.041  -2.773  -0.013  0.00  0.00    -0.002 A 
ATOM     16  C   UNL     1      -0.764  -2.088   0.899  0.00  0.00    +0.013 A 
ATOM     17  C   UNL     1      -0.774  -0.708   0.905  0.00  0.00    -0.047 A 
ATOM     18  C   UNL     1      -1.637   0.034   1.893  0.00  0.00    +0.044 C 
ENDBRANCH   1  15
BRANCH   9  19
ATOM     19  C   UNL     1      -0.061  -8.295  -2.904  0.00  0.00    +0.245 C 
ATOM     20  O   UNL     1      -0.713  -8.673  -3.861  0.00  0.00    -0.270 OA
ATOM     21  N   UNL     1       0.734  -9.162  -2.246  0.00  0.00    -0.311 N 
ATOM     22  H   UNL     1       1.254  -8.861  -1.484  0.00  0.00    +0.149 HD
BRANCH  21  23
ATOM     23  C   UNL     1       0.814 -10.558  -2.681  0.00  0.00    +0.109 C 
BRANCH  23  24
ATOM     24  C   UNL     1       1.778 -11.322  -1.771  0.00  0.00    +0.052 C 
BRANCH  24  25
ATOM     25  C   UNL     1       1.860 -12.758  -2.219  0.00  0.00    -0.040 C 
ATOM     26  C   UNL     1       2.785 -13.302  -3.043  0.00  0.00    -0.001 A 
ATOM     27  C   UNL     1       3.947 -12.740  -3.742  0.00  0.00    +0.010 A 
ATOM     28  C   UNL     1       4.703 -13.552  -4.516  0.00  0.00    +0.001 A 
ATOM     29  C   UNL     1       4.405 -14.914  -4.665  0.00  0.00    +0.002 A 
ATOM     30  C   UNL     1       3.356 -15.502  -4.055  0.00  0.00    +0.026 A 
ATOM     31  C   UNL     1       2.493 -14.743  -3.217  0.00  0.00    +0.043 A 
ATOM     32  N   UNL     1       1.429 -15.077  -2.528  0.00  0.00    -0.380 N 
ATOM     33  C   UNL     1       0.929 -13.885  -1.833  0.00  0.00    +0.144 C 
ATOM     34  H   UNL     1       1.040 -15.964  -2.482  0.00  0.00    +0.160 HD
ENDBRANCH  24  25
ENDBRANCH  23  24
ENDBRANCH  21  23
ENDBRANCH   9  19
TORSDOF 5
