REMARK  Name = ZINC21718753
REMARK  6 active torsions:
REMARK  status: ('A' for Active; 'I' for Inactive)
REMARK    1  A    between atoms: C_1  and  C_2
REMARK    2  A    between atoms: C_4  and  C_7
REMARK    3  A    between atoms: C_13  and  C_15
REMARK    4  A    between atoms: C_17  and  C_20
REMARK    5  A    between atoms: C_20  and  C_21
REMARK    6  A    between atoms: C_20  and  C_22
REMARK                            x       y       z     vdW  Elec       q    Type
REMARK                         _______ _______ _______ _____ _____    ______ ____
ROOT
ATOM      1  C   UNL     1      -1.500  -3.372  -0.010  0.00  0.00    +0.129 C 
ATOM      2  C   UNL     1      -1.125  -4.279  -1.201  0.00  0.00    +0.030 C 
ATOM      3  C   UNL     1      -1.248  -5.705  -0.603  0.00  0.00    +0.021 C 
ATOM      4  C   UNL     1      -0.755  -5.478   0.848  0.00  0.00    +0.109 C 
ATOM      5  N   UNL     1      -1.276  -4.146   1.220  0.00  0.00    -0.286 N 
ATOM      6  C   UNL     1      -1.506  -3.712   2.475  0.00  0.00    +0.285 C 
ATOM      7  O   UNL     1      -1.937  -2.590   2.660  0.00  0.00    -0.267 OA
ENDROOT
BRANCH   1  11
ATOM      8  C   UNL     1      -0.018   1.503   0.010  0.00  0.00    +0.089 C 
ATOM      9  C   UNL     1       0.002  -0.004   0.002  0.00  0.00    +0.135 A 
ATOM     10  C   UNL     1      -1.077  -0.810   0.003  0.00  0.00    +0.072 A 
ATOM     11  C   UNL     1      -0.627  -2.143  -0.007  0.00  0.00    +0.104 A 
ATOM     12  N   UNL     1       0.676  -2.130  -0.013  0.00  0.00    -0.081 NA
ATOM     13  O   UNL     1       1.098  -0.778  -0.013  0.00  0.00    -0.360 OA
ENDBRANCH   1  11
BRANCH   6  14
ATOM     14  C   UNL     1      -1.237  -4.598   3.623  0.00  0.00    +0.222 A 
ATOM     15  C   UNL     1      -1.428  -4.292   4.935  0.00  0.00    +0.081 A 
ATOM     16  C   UNL     1      -1.050  -5.409   5.699  0.00  0.00    +0.087 A 
ATOM     17  N   UNL     1      -0.649  -6.344   4.886  0.00  0.00    -0.082 NA
ATOM     18  O   UNL     1      -0.762  -5.857   3.561  0.00  0.00    -0.350 OA
BRANCH  16  19
ATOM     19  C   UNL     1      -1.099  -5.507   7.202  0.00  0.00    +0.035 C 
ATOM     20  C   UNL     1       0.182  -4.916   7.794  0.00  0.00    +0.014 C 
ATOM     21  C   UNL     1      -2.309  -4.730   7.725  0.00  0.00    +0.014 C 
ENDBRANCH  16  19
ENDBRANCH   6  14
TORSDOF 3
