REMARK  Name = ZINC63697597
REMARK  10 active torsions:
REMARK  status: ('A' for Active; 'I' for Inactive)
REMARK    1  A    between atoms: C_1  and  O_2
REMARK    2  A    between atoms: O_2  and  C_3
REMARK    3  A    between atoms: C_5  and  C_13
REMARK    4  A    between atoms: C_7  and  O_11
REMARK    5  A    between atoms: C_8  and  O_9
REMARK    6  A    between atoms: O_9  and  C_10
REMARK    7  A    between atoms: O_11  and  C_12
REMARK    8  A    between atoms: C_28  and  C_30
REMARK    9  A    between atoms: C_33  and  S_36
REMARK   10  A    between atoms: S_36  and  C_37
REMARK                            x       y       z     vdW  Elec       q    Type
REMARK                         _______ _______ _______ _____ _____    ______ ____
ROOT
ATOM      1  C   UNL     1       2.373   0.433  -4.225  0.00  0.00    +0.247 C 
ATOM      2  O   UNL     1       2.304   1.647  -4.221  0.00  0.00    -0.270 OA
ATOM      3  N   UNL     1       3.044  -0.201  -5.207  0.00  0.00    -0.288 N 
ATOM      4  C   UNL     1       3.037  -1.667  -5.262  0.00  0.00    +0.113 C 
ATOM      5  C   UNL     1       4.485  -2.189  -5.210  0.00  0.00    +0.052 C 
ATOM      6  C   UNL     1       5.283  -1.346  -6.173  0.00  0.00    -0.035 C 
ATOM      7  C   UNL     1       6.091  -1.681  -7.172  0.00  0.00    -0.001 A 
ATOM      8  C   UNL     1       6.588  -2.987  -7.634  0.00  0.00    +0.010 A 
ATOM      9  C   UNL     1       7.402  -2.967  -8.722  0.00  0.00    +0.001 A 
ATOM     10  C   UNL     1       7.766  -1.794  -9.390  0.00  0.00    +0.002 A 
ATOM     11  C   UNL     1       7.363  -0.549  -9.029  0.00  0.00    +0.026 A 
ATOM     12  C   UNL     1       6.510  -0.440  -7.893  0.00  0.00    +0.043 A 
ATOM     13  N   UNL     1       6.000   0.611  -7.321  0.00  0.00    -0.375 N 
ATOM     14  C   UNL     1       5.252   0.178  -6.141  0.00  0.00    +0.131 C 
ATOM     15  C   UNL     1       3.772   0.585  -6.216  0.00  0.00    +0.133 C 
ATOM     16  H   UNL     1       6.099   1.527  -7.626  0.00  0.00    +0.160 HD
ENDROOT
BRANCH   1  19
ATOM     17  C   UNL     1       1.292  -0.721  -0.817  0.00  0.00    +0.166 A 
ATOM     18  C   UNL     1       1.904   0.011  -1.817  0.00  0.00    +0.062 A 
ATOM     19  C   UNL     1       1.720  -0.347  -3.155  0.00  0.00    +0.044 A 
ATOM     20  C   UNL     1       0.917  -1.443  -3.478  0.00  0.00    +0.062 A 
ATOM     21  C   UNL     1       0.307  -2.172  -2.474  0.00  0.00    +0.166 A 
ATOM     22  C   UNL     1       0.496  -1.816  -1.141  0.00  0.00    +0.204 A 
BRANCH  17  24
ATOM     23  C   UNL     1       2.300   0.761   0.747  0.00  0.00    +0.277 C 
ATOM     24  O   UNL     1       1.471  -0.373   0.486  0.00  0.00    -0.491 OA
ENDBRANCH  17  24
BRANCH  22  25
ATOM     25  O   UNL     1      -0.101  -2.537  -0.156  0.00  0.00    -0.488 OA
ATOM     26  C   UNL     1      -1.406  -2.122   0.252  0.00  0.00    +0.277 C 
ENDBRANCH  22  25
BRANCH  21  27
ATOM     27  O   UNL     1      -0.476  -3.239  -2.788  0.00  0.00    -0.491 OA
ATOM     28  C   UNL     1      -0.622  -3.550  -4.176  0.00  0.00    +0.277 C 
ENDBRANCH  21  27
ENDBRANCH   1  19
BRANCH  15  29
ATOM     29  C   UNL     1       3.226   0.285  -7.588  0.00  0.00    -0.025 A 
ATOM     30  C   UNL     1       2.739   1.312  -8.376  0.00  0.00    +0.006 A 
ATOM     31  C   UNL     1       2.237   1.041  -9.634  0.00  0.00    +0.015 A 
ATOM     32  C   UNL     1       2.222  -0.265 -10.107  0.00  0.00    +0.008 A 
ATOM     33  C   UNL     1       2.712  -1.295  -9.312  0.00  0.00    +0.015 A 
ATOM     34  C   UNL     1       3.217  -1.016  -8.058  0.00  0.00    +0.006 A 
BRANCH  32  35
ATOM     35  S   UNL     1       1.582  -0.616 -11.711  0.00  0.00    -0.129 S 
ATOM     36  C   UNL     1       1.771  -2.413 -11.876  0.00  0.00    +0.090 C 
ENDBRANCH  32  35
ENDBRANCH  15  29
TORSDOF 6
