REMARK  Name = ZINC38980905
REMARK  2 active torsions:
REMARK  status: ('A' for Active; 'I' for Inactive)
REMARK    1  A    between atoms: C_4  and  C_7
REMARK    2  A    between atoms: C_15  and  C_20
REMARK                            x       y       z     vdW  Elec       q    Type
REMARK                         _______ _______ _______ _____ _____    ______ ____
ROOT
ATOM      1  C   UNL     1       3.695  -0.686  -0.056  0.00  0.00    +0.248 C 
ATOM      2  O   UNL     1       4.181  -0.076  -0.993  0.00  0.00    -0.270 OA
ATOM      3  N   UNL     1       3.719  -2.025  -0.045  0.00  0.00    -0.281 N 
ATOM      4  C   UNL     1       4.878  -2.672  -0.161  0.00  0.00    +0.036 C 
ATOM      5  C   UNL     1       6.133  -1.913  -0.162  0.00  0.00    +0.025 C 
ATOM      6  C   UNL     1       7.312  -2.547  -0.277  0.00  0.00    +0.031 C 
ATOM      7  C   UNL     1       7.334  -4.019  -0.402  0.00  0.00    +0.084 C 
ATOM      8  N   UNL     1       8.322  -4.857  -0.525  0.00  0.00    -0.250 NA
ATOM      9  C   UNL     1       7.787  -6.218  -0.613  0.00  0.00    +0.276 C 
ATOM     10  N   UNL     1       6.325  -6.103  -0.526  0.00  0.00    -0.215 NA
ATOM     11  C   UNL     1       6.051  -4.757  -0.398  0.00  0.00    +0.077 C 
ATOM     12  C   UNL     1       4.881  -4.076  -0.274  0.00  0.00    +0.050 C 
ATOM     13  H   UNL     1       2.892  -2.523   0.048  0.00  0.00    +0.155 HD
ENDROOT
BRANCH   1  17
ATOM     14  C   UNL     1       1.927   1.436   3.173  0.00  0.00    +0.000 A 
ATOM     15  C   UNL     1       2.478   2.131   2.111  0.00  0.00    +0.001 A 
ATOM     16  C   UNL     1       3.053   1.448   1.060  0.00  0.00    +0.013 A 
ATOM     17  C   UNL     1       3.079   0.053   1.069  0.00  0.00    +0.037 A 
ATOM     18  C   UNL     1       2.522  -0.642   2.143  0.00  0.00    +0.013 A 
ATOM     19  C   UNL     1       1.950   0.053   3.188  0.00  0.00    +0.001 A 
ENDBRANCH   1  17
BRANCH   9  20
ATOM     20  C   UNL     1       8.179  -6.843  -1.927  0.00  0.00    +0.149 A 
ATOM     21  C   UNL     1       9.312  -6.596  -2.608  0.00  0.00    +0.048 A 
ATOM     22  C   UNL     1       9.270  -7.392  -3.776  0.00  0.00    +0.041 A 
ATOM     23  C   UNL     1       8.113  -8.077  -3.738  0.00  0.00    +0.195 A 
ATOM     24  O   UNL     1       7.459  -7.745  -2.613  0.00  0.00    -0.464 OA
ENDBRANCH   9  20
TORSDOF 2
