REMARK  Name = ZINC00799010
REMARK  5 active torsions:
REMARK  status: ('A' for Active; 'I' for Inactive)
REMARK    1  A    between atoms: C_9  and  C_12
REMARK    2  A    between atoms: N_14  and  C_15
REMARK    3  A    between atoms: C_16  and  C_23
REMARK    4  A    between atoms: N_25  and  C_26
REMARK    5  A    between atoms: C_26  and  C_27
REMARK                            x       y       z     vdW  Elec       q    Type
REMARK                         _______ _______ _______ _____ _____    ______ ____
ROOT
ATOM      1  C   UNL     1       6.343  -4.516  -0.054  0.00  0.00    +0.085 A 
ATOM      2  C   UNL     1       6.759  -5.806  -0.325  0.00  0.00    +0.069 A 
ATOM      3  C   UNL     1       8.090  -6.192   0.142  0.00  0.00    -0.023 A 
ATOM      4  C   UNL     1       8.748  -5.215   0.791  0.00  0.00    -0.004 A 
ATOM      5  S   UNL     1       7.635  -3.833   0.768  0.00  0.00    -0.077 S 
ATOM      6  C   UNL     1      10.108  -5.665   1.253  0.00  0.00    +0.043 C 
ATOM      7  C   UNL     1      10.054  -7.207   1.180  0.00  0.00    +0.010 C 
ATOM      8  C   UNL     1       8.978  -7.434   0.099  0.00  0.00    +0.037 C 
ENDROOT
BRANCH   1  11
ATOM      9  C   UNL     1       4.898  -2.639  -0.050  0.00  0.00    +0.262 C 
ATOM     10  O   UNL     1       5.739  -2.006   0.552  0.00  0.00    -0.271 OA
ATOM     11  N   UNL     1       5.136  -3.921  -0.391  0.00  0.00    -0.276 N 
ATOM     12  H   UNL     1       4.464  -4.428  -0.873  0.00  0.00    +0.155 HD
BRANCH   9  21
ATOM     13  C   UNL     1      -0.017   1.378   0.010  0.00  0.00    +0.004 A 
ATOM     14  C   UNL     1       1.170   2.088   0.002  0.00  0.00    +0.004 A 
ATOM     15  C   UNL     1       2.378   1.418  -0.012  0.00  0.00    +0.049 A 
ATOM     16  C   UNL     1       2.404   0.031  -0.019  0.00  0.00    +0.163 A 
ATOM     17  C   UNL     1       1.212  -0.683  -0.014  0.00  0.00    +0.162 A 
ATOM     18  C   UNL     1       0.002  -0.004   0.002  0.00  0.00    +0.049 A 
ATOM     19  O   UNL     1       1.214  -2.043  -0.029  0.00  0.00    -0.484 OA
ATOM     20  C   UNL     1       2.441  -2.689   0.331  0.00  0.00    +0.283 C 
ATOM     21  C   UNL     1       3.587  -1.993  -0.416  0.00  0.00    +0.296 C 
ATOM     22  O   UNL     1       3.602  -0.615  -0.029  0.00  0.00    -0.473 OA
ENDBRANCH   9  21
ENDBRANCH   1  11
BRANCH   2  23
ATOM     23  C   UNL     1       5.902  -6.749  -1.049  0.00  0.00    +0.247 C 
ATOM     24  O   UNL     1       5.960  -6.816  -2.263  0.00  0.00    -0.270 OA
ATOM     25  N   UNL     1       5.048  -7.542  -0.371  0.00  0.00    -0.304 N 
ATOM     26  H   UNL     1       5.002  -7.489   0.596  0.00  0.00    +0.149 HD
BRANCH  25  27
ATOM     27  C   UNL     1       4.191  -8.484  -1.095  0.00  0.00    +0.179 C 
BRANCH  27  28
ATOM     28  C   UNL     1       3.339  -9.245  -0.113  0.00  0.00    +0.122 A 
ATOM     29  C   UNL     1       2.118  -8.880   0.317  0.00  0.00    +0.046 A 
ATOM     30  C   UNL     1       1.688  -9.875   1.224  0.00  0.00    +0.041 A 
ATOM     31  C   UNL     1       2.672 -10.789   1.294  0.00  0.00    +0.195 A 
ATOM     32  O   UNL     1       3.667 -10.405   0.478  0.00  0.00    -0.466 OA
ENDBRANCH  27  28
ENDBRANCH  25  27
ENDBRANCH   2  23
TORSDOF 5
