REMARK  Name = ZINC09125658
REMARK  3 active torsions:
REMARK  status: ('A' for Active; 'I' for Inactive)
REMARK    1  A    between atoms: C_1  and  C_2
REMARK    2  A    between atoms: N_8  and  C_9
REMARK    3  A    between atoms: C_16  and  C_18
REMARK                            x       y       z     vdW  Elec       q    Type
REMARK                         _______ _______ _______ _____ _____    ______ ____
ROOT
ATOM      1  C   UNL     1       1.239   0.287   5.069  0.00  0.00    +0.033 C 
ATOM      2  C   UNL     1       1.461   1.313   3.956  0.00  0.00    +0.115 C 
ATOM      3  C   UNL     1       0.973   2.695   4.447  0.00  0.00    +0.103 C 
ATOM      4  S   UNL     1      -0.296   3.061   3.174  0.00  0.00    -0.088 S 
ATOM      5  C   UNL     1      -0.150   1.577   2.200  0.00  0.00    +0.163 C 
ATOM      6  N   UNL     1       0.772   0.867   2.767  0.00  0.00    -0.259 NA
ATOM      7  N   UNL     1      -0.872   1.251   1.066  0.00  0.00    -0.215 N 
ATOM      8  C   UNL     1      -0.362   1.512  -0.155  0.00  0.00    +0.257 C 
ATOM      9  O   UNL     1      -1.014   1.264  -1.151  0.00  0.00    -0.269 OA
ENDROOT
BRANCH   8  10
ATOM     10  C   UNL     1       0.982   2.103  -0.281  0.00  0.00    +0.039 A 
ATOM     11  C   UNL     1       1.316   3.243   0.458  0.00  0.00    +0.014 A 
ATOM     12  C   UNL     1       2.575   3.788   0.342  0.00  0.00    +0.017 A 
ATOM     13  C   UNL     1       3.506   3.215  -0.515  0.00  0.00    +0.030 A 
ATOM     14  C   UNL     1       3.183   2.080  -1.266  0.00  0.00    +0.048 A 
ATOM     15  C   UNL     1       1.918   1.527  -1.143  0.00  0.00    +0.037 A 
ATOM     16  N   UNL     1       4.101   1.498  -2.137  0.00  0.00    -0.284 N 
ATOM     17  C   UNL     1       5.424   1.630  -2.089  0.00  0.00    +0.227 C 
ATOM     18  O   UNL     1       6.088   1.046  -2.920  0.00  0.00    -0.275 OA
ATOM     19  C   UNL     1       6.142   2.463  -1.063  0.00  0.00    +0.170 C 
ATOM     20  S   UNL     1       5.120   3.914  -0.667  0.00  0.00    -0.114 S 
ATOM     21  H   UNL     1       3.741   0.942  -2.846  0.00  0.00    +0.155 HD
ENDBRANCH   8  10
BRANCH   7  22
ATOM     22  C   UNL     1      -2.132   0.650   1.185  0.00  0.00    +0.044 A 
ATOM     23  C   UNL     1      -3.140   1.284   1.899  0.00  0.00    +0.025 A 
ATOM     24  C   UNL     1      -4.383   0.692   2.010  0.00  0.00    +0.022 A 
ATOM     25  C   UNL     1      -4.620  -0.538   1.422  0.00  0.00    +0.041 A 
ATOM     26  C   UNL     1      -3.615  -1.174   0.715  0.00  0.00    +0.022 A 
ATOM     27  C   UNL     1      -2.372  -0.584   0.595  0.00  0.00    +0.025 A 
ATOM     28 CL   UNL     1      -6.181  -1.282   1.570  0.00  0.00    -0.084 Cl
ENDBRANCH   7  22
TORSDOF 2
