REMARK  Name = ZINC66420895
REMARK  7 active torsions:
REMARK  status: ('A' for Active; 'I' for Inactive)
REMARK    1  A    between atoms: C_1  and  C_2
REMARK    2  A    between atoms: C_3  and  C_9
REMARK    3  A    between atoms: N_5  and  C_7
REMARK    4  A    between atoms: N_14  and  C_17
REMARK    5  A    between atoms: C_17  and  C_18
REMARK    6  A    between atoms: N_20  and  C_21
REMARK    7  A    between atoms: C_26  and  C_29
REMARK                            x       y       z     vdW  Elec       q    Type
REMARK                         _______ _______ _______ _____ _____    ______ ____
ROOT
ATOM      1  C   UNL     1      -0.005  -0.375  -2.548  0.00  0.00    +0.251 C 
ATOM      2  O   UNL     1       1.042  -0.173  -3.132  0.00  0.00    -0.270 OA
ATOM      3  N   UNL     1      -1.179  -0.185  -3.183  0.00  0.00    -0.295 N 
ATOM      4  C   UNL     1      -2.457  -0.418  -2.494  0.00  0.00    +0.123 C 
ATOM      5  C   UNL     1      -3.320  -1.337  -3.365  0.00  0.00    +0.104 C 
ATOM      6  N   UNL     1      -3.436  -0.763  -4.712  0.00  0.00    -0.291 NA
ATOM      7  C   UNL     1      -2.126  -0.686  -5.373  0.00  0.00    +0.104 C 
ATOM      8  C   UNL     1      -1.215   0.267  -4.583  0.00  0.00    +0.123 C 
ENDROOT
BRANCH   1  11
ATOM      9  C   UNL     1      -0.018   1.503   0.010  0.00  0.00    +0.068 C 
ATOM     10  C   UNL     1       0.002  -0.004   0.002  0.00  0.00    +0.074 A 
ATOM     11  C   UNL     1       0.008  -0.828  -1.146  0.00  0.00    +0.096 A 
ATOM     12  C   UNL     1       0.029  -2.139  -0.707  0.00  0.00    +0.139 A 
ATOM     13  N   UNL     1       0.035  -2.111   0.636  0.00  0.00    -0.255 N 
ATOM     14  N   UNL     1       0.023  -0.776   1.053  0.00  0.00    -0.175 NA
ATOM     15  C   UNL     1       0.055  -3.283   1.516  0.00  0.00    +0.174 C 
ATOM     16 CL   UNL     1       0.043  -3.558  -1.706  0.00  0.00    -0.062 Cl
ENDBRANCH   1  11
BRANCH   6  17
ATOM     17  C   UNL     1      -4.393  -1.523  -5.527  0.00  0.00    +0.180 C 
BRANCH  17  18
ATOM     18  C   UNL     1      -4.672  -0.773  -6.804  0.00  0.00    +0.227 C 
ATOM     19  O   UNL     1      -4.127   0.290  -7.014  0.00  0.00    -0.274 OA
ATOM     20  N   UNL     1      -5.527  -1.284  -7.712  0.00  0.00    -0.311 N 
ATOM     21  H   UNL     1      -5.963  -2.134  -7.544  0.00  0.00    +0.149 HD
BRANCH  20  22
ATOM     22  C   UNL     1      -5.798  -0.554  -8.954  0.00  0.00    +0.073 C 
ATOM     23  C   UNL     1      -6.902   0.476  -8.710  0.00  0.00    +0.022 C 
ATOM     24  C   UNL     1      -8.174  -0.240  -8.250  0.00  0.00    +0.002 C 
ATOM     25  C   UNL     1      -8.625  -1.224  -9.332  0.00  0.00    +0.003 C 
ATOM     26  C   UNL     1      -7.520  -2.254  -9.576  0.00  0.00    -0.012 C 
ATOM     27  C   UNL     1      -6.248  -1.538 -10.035  0.00  0.00    +0.025 C 
ATOM     28  C   UNL     1      -7.970  -3.238 -10.658  0.00  0.00    +0.007 C 
ENDBRANCH  20  22
ENDBRANCH  17  18
ENDBRANCH   6  17
TORSDOF 4
