REMARK  Name = ZINC38183334
REMARK  3 active torsions:
REMARK  status: ('A' for Active; 'I' for Inactive)
REMARK    1  A    between atoms: C_1  and  C_2
REMARK    2  A    between atoms: C_2  and  C_25
REMARK    3  A    between atoms: C_11  and  C_12
REMARK                            x       y       z     vdW  Elec       q    Type
REMARK                         _______ _______ _______ _____ _____    ______ ____
ROOT
ATOM      1  C   UNL     1      -0.019   1.526   0.010  0.00  0.00    +0.022 C 
ATOM      2  C   UNL     1       0.002  -0.004   0.002  0.00  0.00    +0.030 C 
ATOM      3  C   UNL     1      -1.402  -0.553   0.107  0.00  0.00    -0.015 A 
ATOM      4  C   UNL     1      -2.513  -0.436  -0.697  0.00  0.00    +0.006 A 
ATOM      5  C   UNL     1      -3.694  -1.064  -0.340  0.00  0.00    +0.000 A 
ATOM      6  C   UNL     1      -3.753  -1.808   0.825  0.00  0.00    +0.002 A 
ATOM      7  C   UNL     1      -2.642  -1.927   1.633  0.00  0.00    +0.023 A 
ATOM      8  C   UNL     1      -1.449  -1.297   1.280  0.00  0.00    +0.035 A 
ATOM      9  N   UNL     1      -0.212  -1.269   1.921  0.00  0.00    -0.317 N 
ATOM     10  C   UNL     1       0.699  -0.532   1.238  0.00  0.00    +0.018 C 
ATOM     11  C   UNL     1       1.995  -0.308   1.597  0.00  0.00    +0.020 C 
ATOM     12  C   UNL     1       0.690  -0.522  -1.263  0.00  0.00    +0.022 C 
ATOM     13  H   UNL     1      -0.025  -1.723   2.757  0.00  0.00    +0.152 HD
ENDROOT
BRANCH  11  14
ATOM     14  C   UNL     1       2.498  -0.864   2.770  0.00  0.00    +0.020 C 
ATOM     15  C   UNL     1       3.827  -0.635   3.138  0.00  0.00    +0.107 C 
ATOM     16  C   UNL     1       4.440  -1.195   4.368  0.00  0.00    +0.204 C 
ATOM     17  O   UNL     1       4.080  -2.250   4.859  0.00  0.00    -0.286 OA
ATOM     18  C   UNL     1       5.526  -0.369   4.951  0.00  0.00    +0.065 A 
ATOM     19  C   UNL     1       6.045  -0.681   6.208  0.00  0.00    +0.015 A 
ATOM     20  C   UNL     1       7.061   0.085   6.737  0.00  0.00    +0.001 A 
ATOM     21  C   UNL     1       7.566   1.159   6.021  0.00  0.00    +0.004 A 
ATOM     22  C   UNL     1       7.057   1.478   4.780  0.00  0.00    +0.047 A 
ATOM     23  C   UNL     1       6.025   0.723   4.231  0.00  0.00    +0.143 A 
ATOM     24  O   UNL     1       5.520   1.076   3.025  0.00  0.00    -0.422 OA
ATOM     25  C   UNL     1       4.763   0.186   2.334  0.00  0.00    +0.348 C 
ATOM     26  O   UNL     1       4.845   0.068   1.126  0.00  0.00    -0.244 OA
ENDBRANCH  11  14
TORSDOF 1
