REMARK  Name = ZINC49741283
REMARK  7 active torsions:
REMARK  status: ('A' for Active; 'I' for Inactive)
REMARK    1  A    between atoms: C_1  and  C_2
REMARK    2  A    between atoms: C_5  and  S_9
REMARK    3  A    between atoms: C_6  and  C_8
REMARK    4  A    between atoms: S_9  and  N_12
REMARK    5  A    between atoms: N_12  and  C_13
REMARK    6  A    between atoms: C_19  and  C_23
REMARK    7  A    between atoms: C_19  and  C_24
REMARK                            x       y       z     vdW  Elec       q    Type
REMARK                         _______ _______ _______ _____ _____    ______ ____
ROOT
ATOM      1  N   UNL     1       1.444  -5.003   0.615  0.00  0.00    -0.216 N 
ATOM      2  H   UNL     1       2.083  -5.476   0.061  0.00  0.00    +0.174 HD
ENDROOT
BRANCH   1   3
ATOM      3  C   UNL     1       1.727  -4.768   1.965  0.00  0.00    +0.048 A 
ATOM      4  C   UNL     1       1.506  -3.512   2.516  0.00  0.00    +0.026 A 
ATOM      5  C   UNL     1       1.784  -3.277   3.846  0.00  0.00    +0.025 A 
ATOM      6  C   UNL     1       2.289  -4.299   4.648  0.00  0.00    +0.038 A 
ATOM      7  C   UNL     1       2.506  -5.551   4.089  0.00  0.00    -0.010 A 
ATOM      8  C   UNL     1       2.225  -5.791   2.763  0.00  0.00    +0.031 A 
ATOM      9  C   UNL     1       3.048  -6.425   5.197  0.00  0.00    +0.068 C 
ATOM     10  C   UNL     1       3.095  -5.507   6.400  0.00  0.00    +0.227 C 
ATOM     11  O   UNL     1       3.469  -5.801   7.516  0.00  0.00    -0.275 OA
ATOM     12  N   UNL     1       2.643  -4.306   6.000  0.00  0.00    -0.285 N 
ATOM     13  C   UNL     1       2.107  -7.603   5.458  0.00  0.00    +0.025 C 
ATOM     14  C   UNL     1       4.451  -6.924   4.849  0.00  0.00    +0.025 C 
ATOM     15  H   UNL     1       2.571  -3.534   6.583  0.00  0.00    +0.155 HD
ENDBRANCH   1   3
BRANCH   1  16
ATOM     16  S   UNL     1       0.016  -4.473  -0.036  0.00  0.00    +0.073 S 
ATOM     17  O   UNL     1      -1.010  -4.855   0.870  0.00  0.00    -0.150 OA
ATOM     18  O   UNL     1       0.018  -4.875  -1.399  0.00  0.00    -0.150 OA
BRANCH  16  23
ATOM     19  C   UNL     1       0.178   1.558  -0.012  0.00  0.00    +0.044 C 
ATOM     20  C   UNL     1       0.138   0.052  -0.018  0.00  0.00    -0.050 A 
ATOM     21  C   UNL     1      -0.802  -0.617   0.744  0.00  0.00    +0.005 A 
ATOM     22  C   UNL     1      -0.839  -1.999   0.738  0.00  0.00    +0.029 A 
ATOM     23  C   UNL     1       0.063  -2.712  -0.030  0.00  0.00    +0.111 A 
ATOM     24  C   UNL     1       1.002  -2.043  -0.792  0.00  0.00    -0.024 A 
ATOM     25  C   UNL     1       1.036  -0.660  -0.790  0.00  0.00    +0.008 A 
ATOM     26  C   UNL     1       1.985  -2.820  -1.629  0.00  0.00    +0.046 C 
ENDBRANCH  16  23
ENDBRANCH   1  16
TORSDOF 3
