REMARK  Name = ZINC01440756
REMARK  4 active torsions:
REMARK  status: ('A' for Active; 'I' for Inactive)
REMARK    1  A    between atoms: C_6  and  O_7
REMARK    2  A    between atoms: O_7  and  C_8
REMARK    3  A    between atoms: C_8  and  C_9
REMARK    4  A    between atoms: C_11  and  C_14
REMARK                            x       y       z     vdW  Elec       q    Type
REMARK                         _______ _______ _______ _____ _____    ______ ____
ROOT
ATOM      1  C   UNL     1      -2.454  -2.722   0.012  0.00  0.00    +0.265 A 
ATOM      2  N   UNL     1      -3.161  -3.022  -1.040  0.00  0.00    -0.186 NA
ATOM      3  C   UNL     1      -4.348  -3.535  -0.666  0.00  0.00    +0.238 A 
ATOM      4  N   UNL     1      -4.398  -3.563   0.646  0.00  0.00    -0.053 NA
ATOM      5  O   UNL     1      -3.161  -3.038   1.105  0.00  0.00    -0.334 OA
ENDROOT
BRANCH   3   6
ATOM      6  C   UNL     1      -5.416  -3.991  -1.579  0.00  0.00    +0.177 A 
ATOM      7  C   UNL     1      -6.619  -4.505  -1.207  0.00  0.00    +0.054 A 
ATOM      8  C   UNL     1      -7.318  -4.802  -2.392  0.00  0.00    +0.057 A 
ATOM      9  C   UNL     1      -6.516  -4.458  -3.421  0.00  0.00    +0.171 A 
ATOM     10  O   UNL     1      -5.370  -3.964  -2.926  0.00  0.00    -0.445 OA
ATOM     11 BR   UNL     1      -6.937  -4.637  -5.256  0.00  0.00    -0.008 Br
ENDBRANCH   3   6
BRANCH   1  12
ATOM     12  C   UNL     1      -1.070  -2.126   0.001  0.00  0.00    +0.327 C 
BRANCH  12  13
ATOM     13  O   UNL     1      -1.165  -0.701   0.010  0.00  0.00    -0.483 OA
BRANCH  13  19
ATOM     14  C   UNL     1      -0.017   1.383   0.010  0.00  0.00    +0.047 A 
ATOM     15  C   UNL     1       1.171   2.089   0.002  0.00  0.00    +0.023 A 
ATOM     16  C   UNL     1       2.378   1.414  -0.013  0.00  0.00    +0.041 A 
ATOM     17  C   UNL     1       2.399   0.030  -0.021  0.00  0.00    +0.023 A 
ATOM     18  C   UNL     1       1.214  -0.679  -0.014  0.00  0.00    +0.047 A 
ATOM     19  C   UNL     1       0.002  -0.004   0.002  0.00  0.00    +0.121 A 
ATOM     20 CL   UNL     1       3.869   2.303  -0.024  0.00  0.00    -0.084 Cl
ENDBRANCH  13  19
ENDBRANCH  12  13
ENDBRANCH   1  12
TORSDOF 4
