REMARK  Name = ZINC67298675
REMARK  5 active torsions:
REMARK  status: ('A' for Active; 'I' for Inactive)
REMARK    1  A    between atoms: C_3  and  O_30
REMARK    2  A    between atoms: C_8  and  C_20
REMARK    3  A    between atoms: N_10  and  C_11
REMARK    4  A    between atoms: N_22  and  C_23
REMARK    5  A    between atoms: C_23  and  C_24
REMARK                            x       y       z     vdW  Elec       q    Type
REMARK                         _______ _______ _______ _____ _____    ______ ____
ROOT
ATOM      1  C   UNL     1      -0.244   1.188   1.536  0.00  0.00    +0.015 A 
ATOM      2  C   UNL     1       0.890   1.799   1.984  0.00  0.00    +0.046 A 
ATOM      3  C   UNL     1       2.108   1.122   1.973  0.00  0.00    +0.120 A 
ATOM      4  C   UNL     1       2.187  -0.177   1.493  0.00  0.00    +0.092 A 
ATOM      5  C   UNL     1       1.046  -0.810   1.029  0.00  0.00    +0.141 A 
ATOM      6  C   UNL     1      -0.190  -0.134   1.070  0.00  0.00    +0.018 A 
ATOM      7  C   UNL     1      -1.369  -0.792   0.635  0.00  0.00    +0.030 A 
ATOM      8  C   UNL     1      -1.302  -2.154   0.378  0.00  0.00    +0.097 A 
ATOM      9  C   UNL     1      -0.008  -2.825   0.609  0.00  0.00    +0.212 A 
ATOM     10  N   UNL     1       0.053  -4.111   0.882  0.00  0.00    -0.324 N 
ATOM     11  O   UNL     1       1.117  -2.069   0.530  0.00  0.00    -0.438 OA
ATOM     12  H   UNL     1      -0.763  -4.630   0.954  0.00  0.00    +0.169 HD
ENDROOT
BRANCH  10  13
ATOM     13  C   UNL     1       1.267  -4.714   1.063  0.00  0.00    +0.063 A 
ATOM     14  C   UNL     1       2.283  -4.543   0.120  0.00  0.00    +0.065 A 
ATOM     15  C   UNL     1       3.507  -5.156   0.309  0.00  0.00    +0.125 A 
ATOM     16  C   UNL     1       3.726  -5.939   1.432  0.00  0.00    +0.040 A 
ATOM     17  C   UNL     1       2.723  -6.112   2.369  0.00  0.00    +0.025 A 
ATOM     18  C   UNL     1       1.498  -5.501   2.195  0.00  0.00    +0.064 A 
ATOM     19 CL   UNL     1       0.244  -5.714   3.377  0.00  0.00    -0.081 Cl
ATOM     20  F   UNL     1       4.491  -4.992  -0.601  0.00  0.00    -0.205 F 
ENDBRANCH  10  13
BRANCH   8  21
ATOM     21  C   UNL     1      -2.475  -2.899  -0.107  0.00  0.00    +0.249 C 
ATOM     22  O   UNL     1      -2.363  -4.066  -0.432  0.00  0.00    -0.270 OA
ATOM     23  N   UNL     1      -3.674  -2.288  -0.192  0.00  0.00    -0.309 N 
ATOM     24  H   UNL     1      -3.779  -1.380   0.131  0.00  0.00    +0.149 HD
BRANCH  23  25
ATOM     25  C   UNL     1      -4.817  -2.997  -0.771  0.00  0.00    +0.136 C 
BRANCH  25  26
ATOM     26  C   UNL     1      -6.047  -2.087  -0.748  0.00  0.00    +0.135 C 
ATOM     27  C   UNL     1      -7.284  -2.865  -1.244  0.00  0.00    +0.035 C 
ATOM     28  C   UNL     1      -8.027  -1.796  -2.093  0.00  0.00    +0.031 C 
ATOM     29  C   UNL     1      -6.831  -1.005  -2.681  0.00  0.00    +0.160 C 
ATOM     30  O   UNL     1      -5.847  -0.978  -1.633  0.00  0.00    -0.375 OA
ENDBRANCH  25  26
ENDBRANCH  23  25
ENDBRANCH   8  21
BRANCH   3  31
ATOM     31  O   UNL     1       3.226   1.739   2.433  0.00  0.00    -0.507 OA
ATOM     32  H   UNL     1       3.386   1.609   3.378  0.00  0.00    +0.292 HD
ENDBRANCH   3  31
TORSDOF 5
