REMARK  Name = ZINC54699460
REMARK  3 active torsions:
REMARK  status: ('A' for Active; 'I' for Inactive)
REMARK    1  A    between atoms: C_1  and  N_2
REMARK    2  A    between atoms: C_3  and  C_13
REMARK    3  A    between atoms: C_5  and  C_7
REMARK                            x       y       z     vdW  Elec       q    Type
REMARK                         _______ _______ _______ _____ _____    ______ ____
ROOT
ATOM      1  C   UNL     1       0.167   1.469  -0.014  0.00  0.00    +0.174 C 
ATOM      2  N   UNL     1       0.080   0.007  -0.006  0.00  0.00    -0.248 N 
ATOM      3  C   UNL     1      -0.090  -0.802  -1.077  0.00  0.00    +0.161 A 
ATOM      4  N   UNL     1      -0.115  -2.046  -0.642  0.00  0.00    -0.211 NA
ATOM      5  C   UNL     1       0.033  -2.063   0.680  0.00  0.00    +0.155 A 
ATOM      6  N   UNL     1       0.162  -0.836   1.114  0.00  0.00    -0.154 NA
ENDROOT
BRANCH   3   7
ATOM      7  C   UNL     1      -0.223  -0.368  -2.484  0.00  0.00    +0.050 C 
ATOM      8  C   UNL     1      -1.322  -0.650  -3.157  0.00  0.00    -0.043 C 
ATOM      9  C   UNL     1      -1.474   0.109  -4.485  0.00  0.00    +0.079 C 
ATOM     10  S   UNL     1       0.213   0.752  -4.751  0.00  0.00    -0.098 S 
ATOM     11  C   UNL     1       0.874   0.386  -3.131  0.00  0.00    +0.099 C 
ATOM     12  N   UNL     1       2.040   0.704  -2.640  0.00  0.00    -0.292 NA
ATOM     13  C   UNL     1      -1.833  -1.029  -5.453  0.00  0.00    +0.019 C 
ATOM     14  C   UNL     1      -2.878  -1.829  -4.630  0.00  0.00    +0.006 C 
ATOM     15  C   UNL     1      -2.592  -1.495  -3.149  0.00  0.00    +0.033 C 
ATOM     16  H   UNL     1       2.304   0.375  -1.767  0.00  0.00    +0.187 HD
ENDBRANCH   3   7
BRANCH   5  17
ATOM     17  C   UNL     1       0.056  -3.301   1.540  0.00  0.00    +0.059 C 
ATOM     18  C   UNL     1      -1.084  -3.235   2.558  0.00  0.00    +0.011 C 
ATOM     19  C   UNL     1      -1.061  -4.491   3.431  0.00  0.00    +0.001 C 
ATOM     20  C   UNL     1       0.277  -4.576   4.168  0.00  0.00    +0.000 C 
ATOM     21  C   UNL     1       1.417  -4.641   3.150  0.00  0.00    +0.001 C 
ATOM     22  C   UNL     1       1.394  -3.385   2.277  0.00  0.00    +0.011 C 
ENDBRANCH   5  17
TORSDOF 2
