REMARK  Name = ZINC46875510
REMARK  2 active torsions:
REMARK  status: ('A' for Active; 'I' for Inactive)
REMARK    1  A    between atoms: C_8  and  C_11
REMARK    2  A    between atoms: C_11  and  N_12
REMARK                            x       y       z     vdW  Elec       q    Type
REMARK                         _______ _______ _______ _____ _____    ______ ____
ROOT
ATOM      1  N   UNL     1       5.194  -3.268   0.112  0.00  0.00    -0.296 N 
ATOM      2  C   UNL     1       6.058  -4.168  -0.397  0.00  0.00    +0.302 C 
ATOM      3  O   UNL     1       5.666  -5.010  -1.182  0.00  0.00    -0.253 OA
ATOM      4  N   UNL     1       7.356  -4.135  -0.037  0.00  0.00    -0.285 N 
ATOM      5  C   UNL     1       8.333  -5.030  -0.672  0.00  0.00    +0.114 C 
ATOM      6  C   UNL     1       9.074  -5.806   0.421  0.00  0.00    +0.084 C 
ATOM      7  C   UNL     1       9.679  -4.819   1.421  0.00  0.00    +0.173 C 
ATOM      8  C   UNL     1       8.568  -3.995   2.076  0.00  0.00    +0.084 C 
ATOM      9  C   UNL     1       7.823  -3.198   0.995  0.00  0.00    +0.114 C 
ATOM     10  O   UNL     1      10.402  -5.538   2.428  0.00  0.00    -0.346 OA
ATOM     11  C   UNL     1      11.771  -5.088   2.376  0.00  0.00    +0.191 C 
ATOM     12  C   UNL     1      11.660  -3.708   1.681  0.00  0.00    +0.191 C 
ATOM     13  O   UNL     1      10.586  -3.939   0.737  0.00  0.00    -0.346 OA
ATOM     14  H   UNL     1       5.490  -2.642   0.791  0.00  0.00    +0.150 HD
ENDROOT
BRANCH   1  15
ATOM     15  C   UNL     1       3.808  -3.234  -0.361  0.00  0.00    +0.150 C 
BRANCH  15  23
ATOM     16  C   UNL     1      -0.011   1.387  -0.012  0.00  0.00    +0.000 A 
ATOM     17  C   UNL     1       1.180   2.088  -0.023  0.00  0.00    +0.004 A 
ATOM     18  C   UNL     1       2.385   1.416  -0.039  0.00  0.00    +0.046 A 
ATOM     19  C   UNL     1       2.411   0.024  -0.045  0.00  0.00    +0.124 A 
ATOM     20  C   UNL     1       1.208  -0.670  -0.026  0.00  0.00    -0.002 A 
ATOM     21  C   UNL     1       0.006   0.003  -0.014  0.00  0.00    +0.007 A 
ATOM     22  C   UNL     1       1.547  -2.148  -0.013  0.00  0.00    +0.085 C 
ATOM     23  C   UNL     1       3.045  -2.129   0.372  0.00  0.00    +0.195 C 
ATOM     24  O   UNL     1       3.471  -0.830  -0.072  0.00  0.00    -0.487 OA
ENDBRANCH  15  23
ENDBRANCH   1  15
TORSDOF 2
