REMARK  Name = ZINC25175948
REMARK  10 active torsions:
REMARK  status: ('A' for Active; 'I' for Inactive)
REMARK    1  A    between atoms: C_1  and  C_2
REMARK    2  A    between atoms: C_2  and  C_3
REMARK    3  A    between atoms: N_10  and  N_13
REMARK    4  A    between atoms: C_14  and  C_16
REMARK    5  A    between atoms: C_17  and  C_30
REMARK    6  A    between atoms: C_19  and  C_29
REMARK    7  A    between atoms: C_21  and  C_25
REMARK    8  A    between atoms: C_25  and  C_26
REMARK    9  A    between atoms: C_25  and  C_27
REMARK   10  A    between atoms: C_25  and  C_28
REMARK                            x       y       z     vdW  Elec       q    Type
REMARK                         _______ _______ _______ _____ _____    ______ ____
ROOT
ATOM      1  N   UNL     1       4.024  -4.226  -1.261  0.00  0.00    -0.214 N 
ATOM      2  C   UNL     1       4.356  -2.937  -1.053  0.00  0.00    +0.269 C 
ATOM      3  O   UNL     1       5.518  -2.586  -1.136  0.00  0.00    -0.268 OA
ATOM      4  H   UNL     1       2.974  -4.543  -1.185  0.00  0.00    +0.176 HD
ENDROOT
BRANCH   2   5
ATOM      5  C   UNL     1       3.314  -1.954  -0.724  0.00  0.00    +0.081 A 
ATOM      6  C   UNL     1       3.452  -0.623  -0.481  0.00  0.00    -0.020 A 
ATOM      7  C   UNL     1       2.321   0.153  -0.180  0.00  0.00    +0.032 A 
ATOM      8  C   UNL     1       2.233   1.539   0.102  0.00  0.00    +0.050 A 
ATOM      9  N   UNL     1       1.058   2.070   0.361  0.00  0.00    -0.236 NA
ATOM     10  C   UNL     1      -0.056   1.358   0.369  0.00  0.00    +0.136 A 
ATOM     11  N   UNL     1      -0.045   0.064   0.114  0.00  0.00    -0.224 NA
ATOM     12  C   UNL     1       1.087  -0.549  -0.155  0.00  0.00    +0.113 A 
ATOM     13  S   UNL     1       1.558  -2.215  -0.542  0.00  0.00    -0.064 S 
ATOM     14  C   UNL     1       3.473   2.396   0.106  0.00  0.00    +0.066 C 
ATOM     15  C   UNL     1       4.815   0.017  -0.536  0.00  0.00    +0.046 C 
BRANCH  10  16
ATOM     16  C   UNL     1      -1.366   2.040   0.668  0.00  0.00    +0.022 C 
ATOM     17  C   UNL     1      -2.500   1.014   0.611  0.00  0.00    +0.019 C 
ATOM     18  C   UNL     1      -1.310   2.662   2.065  0.00  0.00    +0.019 C 
ATOM     19  C   UNL     1      -1.618   3.137  -0.368  0.00  0.00    +0.019 C 
ENDBRANCH  10  16
ENDBRANCH   2   5
BRANCH   1  27
ATOM     20  C   UNL     1       7.477  -8.072  -4.484  0.00  0.00    -0.008 A 
ATOM     21  C   UNL     1       6.468  -7.189  -4.423  0.00  0.00    +0.026 A 
ATOM     22  C   UNL     1       6.148  -6.566  -3.153  0.00  0.00    +0.074 A 
ATOM     23  C   UNL     1       6.958  -6.964  -2.074  0.00  0.00    +0.115 A 
ATOM     24  S   UNL     1       8.079  -8.127  -2.807  0.00  0.00    -0.073 S 
ATOM     25  N   UNL     1       6.785  -6.479  -0.848  0.00  0.00    -0.228 NA
ATOM     26  C   UNL     1       5.848  -5.606  -0.596  0.00  0.00    +0.223 A 
ATOM     27  N   UNL     1       5.018  -5.163  -1.575  0.00  0.00    -0.212 N 
ATOM     28  C   UNL     1       5.126  -5.611  -2.840  0.00  0.00    +0.279 A 
ATOM     29  O   UNL     1       4.370  -5.207  -3.706  0.00  0.00    -0.265 OA
BRANCH  20  31
ATOM     30  C   UNL     1       9.071  -8.018  -6.383  0.00  0.00    +0.009 C 
ATOM     31  C   UNL     1       7.981  -8.833  -5.684  0.00  0.00    +0.039 C 
ENDBRANCH  20  31
ENDBRANCH   1  27
TORSDOF 4
