REMARK  Name = ZINC19560075
REMARK  6 active torsions:
REMARK  status: ('A' for Active; 'I' for Inactive)
REMARK    1  A    between atoms: C_1  and  C_2
REMARK    2  A    between atoms: C_3  and  C_8
REMARK    3  A    between atoms: C_5  and  C_7
REMARK    4  A    between atoms: C_14  and  C_16
REMARK    5  A    between atoms: C_21  and  C_28
REMARK    6  A    between atoms: C_24  and  C_27
REMARK                            x       y       z     vdW  Elec       q    Type
REMARK                         _______ _______ _______ _____ _____    ______ ____
ROOT
ATOM      1  C   UNL     1      -1.060   3.985  -1.531  0.00  0.00    +0.085 A 
ATOM      2  C   UNL     1      -0.161   3.959  -2.604  0.00  0.00    +0.070 A 
ATOM      3  C   UNL     1      -0.012   5.228  -3.043  0.00  0.00    +0.118 A 
ATOM      4  N   UNL     1      -0.789   6.032  -2.271  0.00  0.00    -0.239 N 
ATOM      5  N   UNL     1      -1.438   5.225  -1.337  0.00  0.00    -0.172 NA
ATOM      6  C   UNL     1      -0.886   7.484  -2.446  0.00  0.00    +0.214 C 
ATOM      7  C   UNL     1       0.328   7.970  -3.246  0.00  0.00    +0.058 C 
ATOM      8  C   UNL     1       0.500   7.112  -4.504  0.00  0.00    +0.071 C 
ATOM      9  N   UNL     1       0.771   5.721  -4.090  0.00  0.00    -0.327 N 
ATOM     10  C   UNL     1       1.675   7.640  -5.330  0.00  0.00    +0.028 C 
ATOM     11  H   UNL     1       1.553   5.138  -4.599  0.00  0.00    +0.148 HD
ENDROOT
BRANCH   1  18
ATOM     12  C   UNL     1      -0.769   1.056  -2.386  0.00  0.00    +0.256 C 
ATOM     13  O   UNL     1      -1.433   1.563  -3.271  0.00  0.00    -0.269 OA
ATOM     14  N   UNL     1      -0.768   1.595  -1.151  0.00  0.00    -0.288 N 
ATOM     15  C   UNL     1      -0.013   1.086   0.008  0.00  0.00    +0.109 C 
ATOM     16  C   UNL     1      -0.783   1.608   1.247  0.00  0.00    +0.021 C 
ATOM     17  C   UNL     1      -1.232   3.013   0.763  0.00  0.00    +0.030 C 
ATOM     18  C   UNL     1      -1.519   2.789  -0.737  0.00  0.00    +0.127 C 
BRANCH  12  21
ATOM     19  C   UNL     1      -0.554  -0.440  -5.088  0.00  0.00    +0.067 C 
ATOM     20  C   UNL     1       0.171  -0.855  -3.834  0.00  0.00    +0.058 A 
ATOM     21  C   UNL     1       0.030  -0.143  -2.664  0.00  0.00    +0.097 A 
ATOM     22  S   UNL     1       1.085  -1.090  -1.577  0.00  0.00    -0.068 S 
ATOM     23  C   UNL     1       1.592  -2.280  -2.735  0.00  0.00    +0.076 A 
ATOM     24  N   UNL     1       0.957  -1.901  -3.825  0.00  0.00    -0.249 NA
ATOM     25  C   UNL     1       2.522  -3.450  -2.543  0.00  0.00    +0.073 C 
ENDBRANCH  12  21
ENDBRANCH   1  18
BRANCH   6  26
ATOM     26  C   UNL     1      -0.906   8.164  -1.076  0.00  0.00    +0.412 C 
ATOM     27  F   UNL     1       0.271   7.856  -0.385  0.00  0.00    -0.168 F 
ATOM     28  F   UNL     1      -0.999   9.550  -1.245  0.00  0.00    -0.168 F 
ATOM     29  F   UNL     1      -2.009   7.709  -0.345  0.00  0.00    -0.168 F 
ENDBRANCH   6  26
TORSDOF 3
