REMARK  Name = ZINC63681112
REMARK  6 active torsions:
REMARK  status: ('A' for Active; 'I' for Inactive)
REMARK    1  A    between atoms: C_1  and  C_2
REMARK    2  A    between atoms: C_5  and  N_8
REMARK    3  A    between atoms: C_10  and  N_15
REMARK    4  A    between atoms: N_18  and  C_19
REMARK    5  A    between atoms: C_19  and  C_20
REMARK    6  A    between atoms: C_20  and  C_21
REMARK                            x       y       z     vdW  Elec       q    Type
REMARK                         _______ _______ _______ _____ _____    ______ ____
ROOT
ATOM      1  N   UNL     1       0.511  -7.449   1.423  0.00  0.00    -0.295 N 
ATOM      2  C   UNL     1      -0.004  -8.682   1.600  0.00  0.00    +0.300 C 
ATOM      3  O   UNL     1      -1.125  -8.936   1.203  0.00  0.00    -0.253 OA
ATOM      4  N   UNL     1       0.724  -9.633   2.218  0.00  0.00    -0.299 N 
ATOM      5  H   UNL     1       1.405  -7.246   1.739  0.00  0.00    +0.151 HD
ATOM      6  H   UNL     1       1.618  -9.431   2.535  0.00  0.00    +0.150 HD
ENDROOT
BRANCH   1   9
ATOM      7  N   UNL     1       0.059  -4.170  -0.021  0.00  0.00    -0.270 N 
ATOM      8  C   UNL     1       0.176  -5.003   1.182  0.00  0.00    +0.136 C 
ATOM      9  C   UNL     1      -0.280  -6.415   0.751  0.00  0.00    +0.101 C 
ATOM     10  C   UNL     1       0.013  -6.391  -0.767  0.00  0.00    +0.120 C 
ATOM     11  C   UNL     1      -0.034  -4.923  -1.130  0.00  0.00    +0.222 C 
ATOM     12  O   UNL     1      -0.139  -4.490  -2.258  0.00  0.00    -0.275 OA
BRANCH   7  17
ATOM     13  C   UNL     1      -0.018   1.503   0.010  0.00  0.00    +0.044 C 
ATOM     14  C   UNL     1       0.002  -0.004   0.002  0.00  0.00    -0.050 A 
ATOM     15  C   UNL     1       0.020  -0.687  -1.200  0.00  0.00    +0.005 A 
ATOM     16  C   UNL     1       0.039  -2.068  -1.211  0.00  0.00    +0.024 A 
ATOM     17  C   UNL     1       0.040  -2.771  -0.013  0.00  0.00    +0.036 A 
ATOM     18  C   UNL     1       0.022  -2.082   1.192  0.00  0.00    +0.024 A 
ATOM     19  C   UNL     1       0.009  -0.701   1.197  0.00  0.00    +0.005 A 
ENDBRANCH   7  17
ENDBRANCH   1   9
BRANCH   4  20
ATOM     20  C   UNL     1       0.164 -10.973   2.412  0.00  0.00    +0.110 C 
BRANCH  20  21
ATOM     21  C   UNL     1       1.187 -11.854   3.133  0.00  0.00    +0.052 C 
BRANCH  21  22
ATOM     22  C   UNL     1       0.611 -13.232   3.332  0.00  0.00    -0.040 C 
ATOM     23  C   UNL     1       0.790 -14.311   2.535  0.00  0.00    -0.001 A 
ATOM     24  C   UNL     1       1.544 -14.515   1.293  0.00  0.00    +0.010 A 
ATOM     25  C   UNL     1       1.534 -15.737   0.713  0.00  0.00    +0.001 A 
ATOM     26  C   UNL     1       0.822 -16.810   1.267  0.00  0.00    +0.002 A 
ATOM     27  C   UNL     1       0.106 -16.699   2.405  0.00  0.00    +0.026 A 
ATOM     28  C   UNL     1       0.047 -15.460   3.100  0.00  0.00    +0.043 A 
ATOM     29  N   UNL     1      -0.567 -15.105   4.203  0.00  0.00    -0.380 N 
ATOM     30  C   UNL     1      -0.278 -13.691   4.466  0.00  0.00    +0.144 C 
ATOM     31  H   UNL     1      -1.118 -15.683   4.755  0.00  0.00    +0.160 HD
ENDBRANCH  21  22
ENDBRANCH  20  21
ENDBRANCH   4  20
TORSDOF 5
