REMARK  Name = ZINC09240766
REMARK  6 active torsions:
REMARK  status: ('A' for Active; 'I' for Inactive)
REMARK    1  A    between atoms: C_1  and  C_2
REMARK    2  A    between atoms: C_2  and  C_3
REMARK    3  A    between atoms: C_2  and  C_4
REMARK    4  A    between atoms: C_4  and  C_5
REMARK    5  A    between atoms: C_5  and  N_7
REMARK    6  A    between atoms: N_9  and  C_20
REMARK                            x       y       z     vdW  Elec       q    Type
REMARK                         _______ _______ _______ _____ _____    ______ ____
ROOT
ATOM      1  N   UNL     1      -2.560  -2.715  -0.133  0.00  0.00    -0.159 NA
ATOM      2  C   UNL     1      -2.544  -4.038  -0.249  0.00  0.00    +0.154 C 
ATOM      3  N   UNL     1      -3.615  -4.892  -0.287  0.00  0.00    -0.275 N 
ATOM      4  C   UNL     1      -3.396  -6.294  -0.037  0.00  0.00    +0.116 C 
ATOM      5  C   UNL     1      -4.342  -6.892   1.003  0.00  0.00    +0.190 C 
ATOM      6  S   UNL     1      -3.227  -7.330   2.395  0.00  0.00    -0.028 S 
ATOM      7  O   UNL     1      -3.538  -6.506   3.510  0.00  0.00    -0.174 OA
ATOM      8  O   UNL     1      -3.220  -8.743   2.551  0.00  0.00    -0.174 OA
ATOM      9  C   UNL     1      -1.615  -6.801   1.695  0.00  0.00    +0.182 C 
ATOM     10  C   UNL     1      -1.924  -6.670   0.198  0.00  0.00    +0.097 C 
ATOM     11  S   UNL     1      -1.123  -5.110  -0.401  0.00  0.00    -0.086 S 
ENDROOT
BRANCH   3  12
ATOM     12  C   UNL     1      -4.899  -4.410  -0.563  0.00  0.00    +0.056 A 
ATOM     13  C   UNL     1      -5.355  -4.357  -1.874  0.00  0.00    +0.025 A 
ATOM     14  C   UNL     1      -6.624  -3.882  -2.144  0.00  0.00    +0.003 A 
ATOM     15  C   UNL     1      -7.441  -3.459  -1.111  0.00  0.00    +0.021 A 
ATOM     16  C   UNL     1      -6.991  -3.511   0.196  0.00  0.00    +0.061 A 
ATOM     17  C   UNL     1      -5.723  -3.990   0.474  0.00  0.00    +0.081 A 
ATOM     18 CL   UNL     1      -5.160  -4.062   2.115  0.00  0.00    -0.080 Cl
ATOM     19 CL   UNL     1      -8.019  -2.979   1.490  0.00  0.00    -0.082 Cl
ENDBRANCH   3  12
BRANCH   1  20
ATOM     20  C   UNL     1      -1.416  -2.035  -0.119  0.00  0.00    +0.238 C 
ATOM     21  O   UNL     1      -0.357  -2.624  -0.213  0.00  0.00    -0.274 OA
BRANCH  20  22
ATOM     22  C   UNL     1      -1.433  -0.534   0.013  0.00  0.00    +0.101 C 
BRANCH  22  24
ATOM     23  C   UNL     1      -0.019   1.526   0.010  0.00  0.00    +0.008 C 
ATOM     24  C   UNL     1       0.002  -0.004   0.002  0.00  0.00    -0.008 C 
ATOM     25  C   UNL     1       0.742  -0.511   1.242  0.00  0.00    +0.008 C 
ENDBRANCH  22  24
ENDBRANCH  20  22
ENDBRANCH   1  20
TORSDOF 4
