REMARK  Name = ZINC30947394
REMARK  7 active torsions:
REMARK  status: ('A' for Active; 'I' for Inactive)
REMARK    1  A    between atoms: C_1  and  N_2
REMARK    2  A    between atoms: N_2  and  C_3
REMARK    3  A    between atoms: N_2  and  S_4
REMARK    4  A    between atoms: S_4  and  C_7
REMARK    5  A    between atoms: C_16  and  C_18
REMARK    6  A    between atoms: N_23  and  C_25
REMARK    7  A    between atoms: C_25  and  C_26
REMARK                            x       y       z     vdW  Elec       q    Type
REMARK                         _______ _______ _______ _____ _____    ______ ____
ROOT
ATOM      1  C   UNL     1      -2.537  -6.320  -0.460  0.00  0.00    +0.106 A 
ATOM      2  C   UNL     1      -1.174  -6.085  -0.462  0.00  0.00    +0.030 A 
ATOM      3  C   UNL     1      -0.691  -4.807  -0.644  0.00  0.00    +0.026 A 
ATOM      4  C   UNL     1      -1.573  -3.741  -0.834  0.00  0.00    +0.040 A 
ATOM      5  C   UNL     1      -2.937  -3.986  -0.825  0.00  0.00    -0.023 A 
ATOM      6  C   UNL     1      -3.417  -5.269  -0.641  0.00  0.00    +0.034 A 
ATOM      7  C   UNL     1      -3.663  -2.678  -1.042  0.00  0.00    +0.056 C 
ATOM      8  C   UNL     1      -2.545  -1.632  -1.173  0.00  0.00    +0.118 C 
ATOM      9  N   UNL     1      -1.296  -2.384  -1.028  0.00  0.00    -0.271 N 
ATOM     10  C   UNL     1      -0.060  -1.848  -1.079  0.00  0.00    +0.221 C 
ATOM     11  O   UNL     1       0.915  -2.568  -1.051  0.00  0.00    -0.275 OA
ENDROOT
BRANCH  10  12
ATOM     12  C   UNL     1       0.109  -0.353  -1.170  0.00  0.00    +0.059 C 
ATOM     13  C   UNL     1       1.365   0.067  -0.401  0.00  0.00    +0.009 C 
ATOM     14  C   UNL     1       1.563   1.578  -0.549  0.00  0.00    -0.018 C 
ATOM     15  C   UNL     1       1.667   1.930  -2.034  0.00  0.00    -0.078 C 
ATOM     16  N   UNL     1       0.443   1.509  -2.726  0.00  0.00    +0.383 N 
ATOM     17  C   UNL     1       0.256   0.055  -2.638  0.00  0.00    -0.066 C 
ATOM     18  H   UNL     1      -0.409   1.988  -2.221  0.00  0.00    -0.081 HD
BRANCH  16  19
ATOM     19  C   UNL     1       0.449   1.955  -4.126  0.00  0.00    -0.042 C 
BRANCH  19  20
ATOM     20  C   UNL     1       0.733   3.434  -4.181  0.00  0.00    -0.046 A 
ATOM     21  C   UNL     1       1.961   3.886  -4.627  0.00  0.00    +0.004 A 
ATOM     22  C   UNL     1       2.219   5.242  -4.683  0.00  0.00    +0.020 A 
ATOM     23  C   UNL     1       1.254   6.149  -4.282  0.00  0.00    +0.042 A 
ATOM     24  C   UNL     1       0.027   5.697  -3.830  0.00  0.00    +0.040 A 
ATOM     25  C   UNL     1      -0.234   4.339  -3.779  0.00  0.00    +0.044 A 
ATOM     26 CL   UNL     1      -1.773   3.771  -3.212  0.00  0.00    -0.083 Cl
ATOM     27 CL   UNL     1       1.581   7.852  -4.346  0.00  0.00    -0.083 Cl
ENDBRANCH  19  20
ENDBRANCH  16  19
ENDBRANCH  10  12
BRANCH   1  28
ATOM     28  S   UNL     1      -3.151  -7.955  -0.227  0.00  0.00    +0.060 S 
ATOM     29  O   UNL     1      -2.139  -8.674   0.465  0.00  0.00    -0.153 OA
ATOM     30  O   UNL     1      -4.473  -7.825   0.278  0.00  0.00    -0.153 OA
BRANCH  28  32
ATOM     31  C   UNL     1      -2.151  -9.386  -2.293  0.00  0.00    +0.131 C 
ATOM     32  N   UNL     1      -3.282  -8.647  -1.725  0.00  0.00    -0.183 NA
ATOM     33  C   UNL     1      -4.529  -8.521  -2.484  0.00  0.00    +0.131 C 
ENDBRANCH  28  32
ENDBRANCH   1  28
TORSDOF 5
