REMARK  Name = ZINC16487433
REMARK  8 active torsions:
REMARK  status: ('A' for Active; 'I' for Inactive)
REMARK    1  A    between atoms: C_1  and  C_2
REMARK    2  A    between atoms: C_2  and  C_3
REMARK    3  A    between atoms: C_3  and  C_5
REMARK    4  A    between atoms: C_3  and  N_6
REMARK    5  A    between atoms: N_6  and  C_7
REMARK    6  A    between atoms: C_7  and  C_8
REMARK    7  A    between atoms: C_18  and  C_20
REMARK    8  A    between atoms: C_27  and  C_29
REMARK                            x       y       z     vdW  Elec       q    Type
REMARK                         _______ _______ _______ _____ _____    ______ ____
ROOT
ATOM      1  C   UNL     1       3.518  -0.194   3.493  0.00  0.00    +0.234 C 
ATOM      2  O   UNL     1       3.625  -1.386   3.298  0.00  0.00    -0.274 OA
ATOM      3  N   UNL     1       3.922   0.337   4.664  0.00  0.00    -0.289 N 
ATOM      4  C   UNL     1       3.803   1.782   4.908  0.00  0.00    +0.114 C 
ATOM      5  C   UNL     1       2.797   1.991   6.058  0.00  0.00    +0.062 C 
ATOM      6  C   UNL     1       3.080   0.987   7.128  0.00  0.00    -0.003 A 
ATOM      7  C   UNL     1       3.822  -0.149   7.034  0.00  0.00    -0.012 A 
ATOM      8  C   UNL     1       3.927  -0.925   8.187  0.00  0.00    +0.013 A 
ATOM      9  C   UNL     1       3.309  -0.534   9.325  0.00  0.00    +0.046 A 
ATOM     10  S   UNL     1       2.527   0.988   8.813  0.00  0.00    -0.101 S 
ATOM     11  C   UNL     1       4.493  -0.519   5.712  0.00  0.00    +0.137 C 
ENDROOT
BRANCH  11  12
ATOM     12  C   UNL     1       5.978  -0.284   5.810  0.00  0.00    -0.023 A 
ATOM     13  C   UNL     1       6.458   0.951   6.205  0.00  0.00    +0.007 A 
ATOM     14  C   UNL     1       7.820   1.165   6.300  0.00  0.00    +0.020 A 
ATOM     15  C   UNL     1       8.704   0.147   5.989  0.00  0.00    +0.041 A 
ATOM     16  C   UNL     1       8.223  -1.087   5.588  0.00  0.00    +0.020 A 
ATOM     17  C   UNL     1       6.861  -1.302   5.499  0.00  0.00    +0.007 A 
ATOM     18 CL   UNL     1      10.415   0.417   6.101  0.00  0.00    -0.084 Cl
ENDBRANCH  11  12
BRANCH   1  19
ATOM     19  C   UNL     1       2.933   0.694   2.424  0.00  0.00    +0.204 C 
BRANCH  19  20
ATOM     20  N   UNL     1       2.439  -0.131   1.319  0.00  0.00    -0.283 N 
ATOM     21  C   UNL     1       3.288  -0.553   0.361  0.00  0.00    +0.283 C 
ATOM     22  O   UNL     1       4.482  -0.348   0.474  0.00  0.00    -0.267 OA
BRANCH  21  23
ATOM     23  C   UNL     1       2.772  -1.257  -0.817  0.00  0.00    +0.189 A 
ATOM     24  C   UNL     1       3.524  -1.865  -1.781  0.00  0.00    +0.054 A 
ATOM     25  C   UNL     1       2.624  -2.411  -2.710  0.00  0.00    +0.042 A 
ATOM     26  C   UNL     1       1.379  -2.109  -2.282  0.00  0.00    +0.196 A 
ATOM     27  O   UNL     1       1.472  -1.414  -1.141  0.00  0.00    -0.458 OA
ENDBRANCH  21  23
BRANCH  20  28
ATOM     28  C   UNL     1       1.022  -0.498   1.256  0.00  0.00    +0.074 C 
ATOM     29  C   UNL     1       0.164   0.767   1.324  0.00  0.00    +0.028 C 
BRANCH  28  31
ATOM     30  C   UNL     1       1.396  -2.752   2.268  0.00  0.00    +0.005 C 
ATOM     31  C   UNL     1       0.679  -1.411   2.435  0.00  0.00    +0.019 C 
ENDBRANCH  28  31
ENDBRANCH  20  28
ENDBRANCH  19  20
ENDBRANCH   1  19
TORSDOF 6
