REMARK  Name = ZINC13331295
REMARK  5 active torsions:
REMARK  status: ('A' for Active; 'I' for Inactive)
REMARK    1  A    between atoms: C_1  and  C_2
REMARK    2  A    between atoms: C_5  and  O_8
REMARK    3  A    between atoms: O_8  and  C_9
REMARK    4  A    between atoms: C_9  and  C_11
REMARK    5  A    between atoms: C_9  and  C_12
REMARK                            x       y       z     vdW  Elec       q    Type
REMARK                         _______ _______ _______ _____ _____    ______ ____
ROOT
ATOM      1  C   UNL     1       0.381  -1.538  -1.917  0.00  0.00    +0.256 C 
ATOM      2  O   UNL     1      -0.677  -2.095  -1.718  0.00  0.00    -0.272 OA
ATOM      3  N   UNL     1       0.885  -0.698  -0.991  0.00  0.00    -0.298 N 
ATOM      4  C   UNL     1       0.164  -0.448   0.265  0.00  0.00    +0.113 C 
ATOM      5  C   UNL     1      -0.023   1.063   0.434  0.00  0.00    +0.084 C 
ATOM      6  C   UNL     1       1.338   1.755   0.338  0.00  0.00    +0.173 C 
ATOM      7  C   UNL     1       1.961   1.492  -1.034  0.00  0.00    +0.084 C 
ATOM      8  C   UNL     1       2.166  -0.015  -1.217  0.00  0.00    +0.113 C 
ATOM      9  O   UNL     1       2.205   1.258   1.364  0.00  0.00    -0.346 OA
ATOM     10  C   UNL     1       2.563   2.376   2.202  0.00  0.00    +0.191 C 
ATOM     11  C   UNL     1       1.432   3.397   1.926  0.00  0.00    +0.191 C 
ATOM     12  O   UNL     1       1.167   3.171   0.520  0.00  0.00    -0.346 OA
ENDROOT
BRANCH   1  13
ATOM     13  C   UNL     1       1.133  -1.784  -3.200  0.00  0.00    +0.256 C 
ATOM     14  C   UNL     1       2.457  -2.483  -2.888  0.00  0.00    +0.062 C 
BRANCH  13  15
ATOM     15  O   UNL     1       0.347  -2.611  -4.061  0.00  0.00    -0.480 OA
BRANCH  15  20
ATOM     16  C   UNL     1       1.365  -2.241  -9.588  0.00  0.00    +0.044 C 
ATOM     17  C   UNL     1       1.093  -2.340  -8.109  0.00  0.00    -0.050 A 
ATOM     18  C   UNL     1       0.046  -3.119  -7.650  0.00  0.00    +0.007 A 
ATOM     19  C   UNL     1      -0.205  -3.211  -6.295  0.00  0.00    +0.046 A 
ATOM     20  C   UNL     1       0.593  -2.522  -5.394  0.00  0.00    +0.122 A 
ATOM     21  C   UNL     1       1.639  -1.736  -5.857  0.00  0.00    +0.046 A 
ATOM     22  C   UNL     1       1.889  -1.651  -7.213  0.00  0.00    +0.007 A 
ENDBRANCH  15  20
ENDBRANCH  13  15
ENDBRANCH   1  13
TORSDOF 3
