REMARK  Name = ZINC12417497
REMARK  5 active torsions:
REMARK  status: ('A' for Active; 'I' for Inactive)
REMARK    1  A    between atoms: C_1  and  C_2
REMARK    2  A    between atoms: C_5  and  C_25
REMARK    3  A    between atoms: C_10  and  C_12
REMARK    4  A    between atoms: C_18  and  O_23
REMARK    5  A    between atoms: O_23  and  C_24
REMARK                            x       y       z     vdW  Elec       q    Type
REMARK                         _______ _______ _______ _____ _____    ______ ____
ROOT
ATOM      1  C   UNL     1       3.078  -2.113   1.357  0.00  0.00    +0.122 A 
ATOM      2  C   UNL     1       3.661  -1.587   2.502  0.00  0.00    +0.032 A 
ATOM      3  C   UNL     1       4.933  -0.970   2.380  0.00  0.00    +0.022 A 
ATOM      4  C   UNL     1       5.657  -0.602   3.524  0.00  0.00    +0.012 A 
ATOM      5  C   UNL     1       6.898  -0.047   3.394  0.00  0.00    +0.004 A 
ATOM      6  C   UNL     1       7.450   0.164   2.139  0.00  0.00    +0.049 A 
ATOM      7  C   UNL     1       6.748  -0.172   0.996  0.00  0.00    +0.163 A 
ATOM      8  C   UNL     1       5.477  -0.733   1.105  0.00  0.00    +0.180 A 
ATOM      9  O   UNL     1       4.759  -1.028  -0.006  0.00  0.00    -0.418 OA
ATOM     10  C   UNL     1       3.848  -2.025   0.103  0.00  0.00    +0.350 A 
ATOM     11  O   UNL     1       3.667  -2.818  -0.803  0.00  0.00    -0.244 OA
ENDROOT
BRANCH   1  19
ATOM     12  C   UNL     1      -0.048   1.617   0.383  0.00  0.00    +0.009 C 
ATOM     13  C   UNL     1      -0.032   0.092   0.261  0.00  0.00    +0.004 C 
ATOM     14  C   UNL     1      -1.468  -0.437   0.279  0.00  0.00    +0.009 C 
ATOM     15  C   UNL     1      -1.454  -1.959   0.124  0.00  0.00    +0.004 C 
ATOM     16  C   UNL     1      -0.696  -2.581   1.301  0.00  0.00    +0.111 C 
ATOM     17  N   UNL     1       0.639  -1.971   1.379  0.00  0.00    -0.297 N 
ATOM     18  C   UNL     1       0.744  -0.506   1.439  0.00  0.00    +0.111 C 
ATOM     19  C   UNL     1       1.746  -2.740   1.395  0.00  0.00    +0.254 C 
ATOM     20  O   UNL     1       1.644  -3.951   1.441  0.00  0.00    -0.270 OA
ATOM     21  C   UNL     1      -2.892  -2.484   0.108  0.00  0.00    +0.009 C 
ENDBRANCH   1  19
BRANCH   7  22
ATOM     22  O   UNL     1       7.295   0.043  -0.230  0.00  0.00    -0.491 OA
ATOM     23  C   UNL     1       8.601   0.621  -0.265  0.00  0.00    +0.277 C 
ENDBRANCH   7  22
TORSDOF 2
