REMARK  Name = ZINC54404945
REMARK  4 active torsions:
REMARK  status: ('A' for Active; 'I' for Inactive)
REMARK    1  A    between atoms: C_3  and  N_16
REMARK    2  A    between atoms: C_6  and  N_7
REMARK    3  A    between atoms: N_7  and  S_8
REMARK    4  A    between atoms: S_8  and  N_11
REMARK                            x       y       z     vdW  Elec       q    Type
REMARK                         _______ _______ _______ _____ _____    ______ ____
ROOT
ATOM      1  C   UNL     1       0.158   1.266  -0.193  0.00  0.00    +0.026 A 
ATOM      2  C   UNL     1       1.401   1.862  -0.261  0.00  0.00    +0.025 A 
ATOM      3  C   UNL     1       2.549   1.085  -0.182  0.00  0.00    +0.038 A 
ATOM      4  C   UNL     1       2.447  -0.291  -0.035  0.00  0.00    +0.025 A 
ATOM      5  C   UNL     1       1.204  -0.888   0.034  0.00  0.00    +0.026 A 
ATOM      6  C   UNL     1       0.056  -0.112  -0.045  0.00  0.00    +0.049 A 
ENDROOT
BRANCH   3   7
ATOM      7  N   UNL     1       3.812   1.691  -0.252  0.00  0.00    -0.254 N 
ATOM      8  C   UNL     1       5.098   1.004  -0.066  0.00  0.00    +0.134 C 
ATOM      9  C   UNL     1       6.144   2.122  -0.245  0.00  0.00    +0.125 C 
ATOM     10  N   UNL     1       5.335   3.321  -0.513  0.00  0.00    -0.297 N 
ATOM     11  C   UNL     1       4.038   2.987  -0.504  0.00  0.00    +0.307 C 
ATOM     12  O   UNL     1       3.146   3.789  -0.704  0.00  0.00    -0.252 OA
ATOM     13  H   UNL     1       5.686   4.210  -0.674  0.00  0.00    +0.150 HD
ENDBRANCH   3   7
BRANCH   6  14
ATOM     14  N   UNL     1      -1.204  -0.716   0.024  0.00  0.00    -0.206 N 
ATOM     15  H   UNL     1      -1.892  -0.340   0.596  0.00  0.00    +0.175 HD
BRANCH  14  16
ATOM     16  S   UNL     1      -1.521  -2.074  -0.870  0.00  0.00    +0.112 S 
ATOM     17  O   UNL     1      -0.495  -3.009  -0.567  0.00  0.00    -0.138 OA
ATOM     18  O   UNL     1      -2.899  -2.369  -0.685  0.00  0.00    -0.138 OA
BRANCH  16  19
ATOM     19  N   UNL     1      -1.334  -1.665  -2.464  0.00  0.00    -0.164 NA
ATOM     20  C   UNL     1      -2.409  -1.237  -3.370  0.00  0.00    +0.111 C 
ATOM     21  C   UNL     1      -1.771  -0.989  -4.753  0.00  0.00    +0.018 C 
ATOM     22  C   UNL     1      -0.472  -1.835  -4.693  0.00  0.00    +0.018 C 
ATOM     23  C   UNL     1      -0.061  -1.665  -3.207  0.00  0.00    +0.111 C 
ENDBRANCH  16  19
ENDBRANCH  14  16
ENDBRANCH   6  14
TORSDOF 4
