REMARK  Name = ZINC34697730
REMARK  5 active torsions:
REMARK  status: ('A' for Active; 'I' for Inactive)
REMARK    1  A    between atoms: C_6  and  C_7
REMARK    2  A    between atoms: C_12  and  C_14
REMARK    3  A    between atoms: C_14  and  N_15
REMARK    4  A    between atoms: C_20  and  C_22
REMARK    5  A    between atoms: C_25  and  N_28
REMARK                            x       y       z     vdW  Elec       q    Type
REMARK                         _______ _______ _______ _____ _____    ______ ____
ROOT
ATOM      1  C   UNL     1      -1.034  -1.118   0.010  0.00  0.00    +0.039 C 
ATOM      2  C   UNL     1      -1.134  -2.211   1.096  0.00  0.00    +0.116 C 
ATOM      3  N   UNL     1      -1.965  -3.273   0.483  0.00  0.00    -0.297 N 
ATOM      4  C   UNL     1      -1.506  -3.332  -0.924  0.00  0.00    +0.110 C 
ATOM      5  C   UNL     1      -1.280  -1.855  -1.323  0.00  0.00    -0.001 C 
ATOM      6  C   UNL     1      -2.923  -4.016   1.072  0.00  0.00    +0.247 C 
ATOM      7  O   UNL     1      -3.263  -3.776   2.214  0.00  0.00    -0.270 OA
ENDROOT
BRANCH   1  13
ATOM      8  C   UNL     1       0.472   0.880  -0.053  0.00  0.00    +0.007 A 
ATOM      9  C   UNL     1       1.730   1.452  -0.045  0.00  0.00    +0.038 A 
ATOM     10  C   UNL     1       2.855   0.650   0.034  0.00  0.00    +0.123 A 
ATOM     11  C   UNL     1       2.719  -0.726   0.105  0.00  0.00    +0.038 A 
ATOM     12  C   UNL     1       1.460  -1.297   0.097  0.00  0.00    +0.007 A 
ATOM     13  C   UNL     1       0.338  -0.494   0.018  0.00  0.00    -0.042 A 
ATOM     14  F   UNL     1       4.085   1.209   0.041  0.00  0.00    -0.205 F 
ENDBRANCH   1  13
BRANCH   6  15
ATOM     15  C   UNL     1      -3.559  -5.125   0.329  0.00  0.00    +0.037 A 
ATOM     16  C   UNL     1      -2.910  -5.699  -0.765  0.00  0.00    +0.015 A 
ATOM     17  C   UNL     1      -3.509  -6.734  -1.454  0.00  0.00    +0.033 A 
ATOM     18  C   UNL     1      -4.752  -7.201  -1.062  0.00  0.00    +0.126 A 
ATOM     19  C   UNL     1      -5.401  -6.636   0.021  0.00  0.00    +0.033 A 
ATOM     20  C   UNL     1      -4.810  -5.605   0.722  0.00  0.00    +0.015 A 
BRANCH  18  21
ATOM     21  N   UNL     1      -5.389  -8.311  -1.806  0.00  0.00    +0.056 N 
ATOM     22  O   UNL     1      -4.824  -8.807  -2.753  0.00  0.00    -0.126 OA
ATOM     23  O   UNL     1      -6.474  -8.721  -1.467  0.00  0.00    -0.126 OA
ENDBRANCH  18  21
ENDBRANCH   6  15
BRANCH   5  24
ATOM     24  C   UNL     1      -0.057  -1.730  -2.234  0.00  0.00    -0.073 C 
BRANCH  24  25
ATOM     25  N   UNL     1      -0.349  -2.349  -3.534  0.00  0.00    +0.380 N 
ATOM     26  C   UNL     1      -1.362  -1.548  -4.267  0.00  0.00    -0.079 C 
ATOM     27  C   UNL     1      -1.142  -1.962  -5.743  0.00  0.00    -0.020 C 
ATOM     28  C   UNL     1       0.394  -2.116  -5.834  0.00  0.00    -0.020 C 
ATOM     29  C   UNL     1       0.861  -2.344  -4.384  0.00  0.00    -0.079 C 
ATOM     30  H   UNL     1      -0.679  -3.293  -3.404  0.00  0.00    -0.082 HD
ENDBRANCH  24  25
ENDBRANCH   5  24
TORSDOF 5
