REMARK  Name = ZINC05495445
REMARK  4 active torsions:
REMARK  status: ('A' for Active; 'I' for Inactive)
REMARK    1  A    between atoms: C_4  and  N_7
REMARK    2  A    between atoms: C_8  and  C_26
REMARK    3  A    between atoms: C_17  and  C_19
REMARK    4  A    between atoms: C_24  and  O_25
REMARK                            x       y       z     vdW  Elec       q    Type
REMARK                         _______ _______ _______ _____ _____    ______ ____
ROOT
ATOM      1  N   UNL     1      -0.107   4.066  -0.435  0.00  0.00    -0.271 N 
ATOM      2  C   UNL     1       0.994   3.470   0.336  0.00  0.00    +0.214 C 
ATOM      3  C   UNL     1       0.864   1.968   0.321  0.00  0.00    +0.029 A 
ATOM      4  C   UNL     1       1.956   1.190   0.660  0.00  0.00    +0.010 A 
ATOM      5  C   UNL     1       1.855  -0.188   0.657  0.00  0.00    +0.001 A 
ATOM      6  C   UNL     1       0.659  -0.794   0.316  0.00  0.00    +0.004 A 
ATOM      7  C   UNL     1      -0.434  -0.022  -0.024  0.00  0.00    +0.046 A 
ATOM      8  C   UNL     1      -0.334   1.364  -0.023  0.00  0.00    +0.129 A 
ATOM      9  O   UNL     1      -1.417   2.109  -0.367  0.00  0.00    -0.466 OA
ATOM     10  C   UNL     1      -1.394   3.494  -0.008  0.00  0.00    +0.299 C 
ENDROOT
BRANCH   1  14
ATOM     11  C   UNL     1      -0.120   8.213  -0.055  0.00  0.00    +0.000 A 
ATOM     12  C   UNL     1       0.355   7.628  -1.214  0.00  0.00    +0.002 A 
ATOM     13  C   UNL     1       0.361   6.253  -1.343  0.00  0.00    +0.023 A 
ATOM     14  C   UNL     1      -0.111   5.457  -0.307  0.00  0.00    +0.034 A 
ATOM     15  C   UNL     1      -0.593   6.049   0.854  0.00  0.00    +0.023 A 
ATOM     16  C   UNL     1      -0.591   7.424   0.979  0.00  0.00    +0.002 A 
ENDBRANCH   1  14
BRANCH  10  17
ATOM     17  C   UNL     1      -2.523   4.214  -0.701  0.00  0.00    +0.053 A 
ATOM     18  C   UNL     1      -2.271   4.968  -1.831  0.00  0.00    +0.012 A 
ATOM     19  C   UNL     1      -3.306   5.629  -2.466  0.00  0.00    +0.001 A 
ATOM     20  C   UNL     1      -4.595   5.536  -1.974  0.00  0.00    +0.004 A 
ATOM     21  C   UNL     1      -4.851   4.783  -0.845  0.00  0.00    +0.046 A 
ATOM     22  C   UNL     1      -3.816   4.115  -0.208  0.00  0.00    +0.125 A 
BRANCH  22  23
ATOM     23  O   UNL     1      -4.066   3.369   0.900  0.00  0.00    -0.506 OA
ATOM     24  H   UNL     1      -3.999   3.862   1.730  0.00  0.00    +0.292 HD
ENDBRANCH  22  23
ENDBRANCH  10  17
BRANCH   2  25
ATOM     25  C   UNL     1       0.938   3.954   1.725  0.00  0.00    +0.090 C 
ATOM     26  N   UNL     1       0.896   4.327   2.797  0.00  0.00    -0.194 NA
ENDBRANCH   2  25
TORSDOF 4
