REMARK  Name = ZINC19462366
REMARK  5 active torsions:
REMARK  status: ('A' for Active; 'I' for Inactive)
REMARK    1  A    between atoms: C_1  and  C_2
REMARK    2  A    between atoms: N_7  and  C_10
REMARK    3  A    between atoms: C_14  and  C_16
REMARK    4  A    between atoms: C_23  and  C_25
REMARK    5  A    between atoms: C_25  and  N_26
REMARK                            x       y       z     vdW  Elec       q    Type
REMARK                         _______ _______ _______ _____ _____    ______ ____
ROOT
ATOM      1  C   UNL     1      -1.845  -3.487   6.121  0.00  0.00    +0.247 C 
ATOM      2  O   UNL     1      -2.884  -3.732   5.540  0.00  0.00    -0.270 OA
ATOM      3  N   UNL     1      -1.587  -4.064   7.312  0.00  0.00    -0.296 N 
ATOM      4  C   UNL     1      -0.400  -3.681   8.088  0.00  0.00    +0.108 C 
ATOM      5  C   UNL     1      -0.841  -3.281   9.499  0.00  0.00    +0.019 C 
ATOM      6  C   UNL     1      -1.655  -4.421  10.117  0.00  0.00    +0.003 C 
ATOM      7  C   UNL     1      -2.906  -4.673   9.273  0.00  0.00    +0.021 C 
ATOM      8  C   UNL     1      -2.491  -5.083   7.861  0.00  0.00    +0.060 C 
ENDROOT
BRANCH   1  13
ATOM      9  C   UNL     1      -0.370  -0.660   4.129  0.00  0.00    +0.045 A 
ATOM     10  C   UNL     1       0.983  -0.817   4.403  0.00  0.00    +0.024 A 
ATOM     11  C   UNL     1       1.411  -1.837   5.231  0.00  0.00    +0.003 A 
ATOM     12  C   UNL     1       0.498  -2.707   5.792  0.00  0.00    +0.013 A 
ATOM     13  C   UNL     1      -0.864  -2.557   5.522  0.00  0.00    +0.039 A 
ATOM     14  C   UNL     1      -1.296  -1.524   4.691  0.00  0.00    +0.037 A 
BRANCH   9  20
ATOM     15  C   UNL     1      -3.393   2.236   2.102  0.00  0.00    +0.017 C 
ATOM     16  C   UNL     1      -1.926   2.268   2.534  0.00  0.00    +0.082 C 
ATOM     17  C   UNL     1      -1.017   1.732   1.409  0.00  0.00    +0.109 C 
ATOM     18  C   UNL     1      -0.358   0.521   2.032  0.00  0.00    +0.227 C 
ATOM     19  O   UNL     1       0.444  -0.203   1.482  0.00  0.00    -0.275 OA
ATOM     20  N   UNL     1      -0.799   0.377   3.288  0.00  0.00    -0.210 N 
ATOM     21  C   UNL     1      -1.685   1.307   3.677  0.00  0.00    +0.229 C 
ATOM     22  O   UNL     1      -2.210   1.368   4.768  0.00  0.00    -0.275 OA
ENDBRANCH   9  20
ENDBRANCH   1  13
BRANCH   8  23
ATOM     23  C   UNL     1      -3.734  -5.197   6.976  0.00  0.00    -0.056 C 
BRANCH  23  24
ATOM     24  N   UNL     1      -4.657  -6.185   7.552  0.00  0.00    +0.381 N 
ATOM     25  C   UNL     1      -4.006  -7.509   7.530  0.00  0.00    -0.079 C 
ATOM     26  C   UNL     1      -4.629  -8.361   8.608  0.00  0.00    -0.019 C 
ATOM     27  C   UNL     1      -5.748  -9.255   8.043  0.00  0.00    -0.002 C 
ATOM     28  C   UNL     1      -6.618  -8.503   7.015  0.00  0.00    -0.002 C 
ATOM     29  C   UNL     1      -6.918  -7.089   7.442  0.00  0.00    -0.019 C 
ATOM     30  C   UNL     1      -5.857  -6.145   6.840  0.00  0.00    -0.079 C 
ATOM     31  H   UNL     1      -4.842  -5.933   8.511  0.00  0.00    -0.082 HD
ENDBRANCH  23  24
ENDBRANCH   8  23
TORSDOF 4
