REMARK  Name = ZINC13071215
REMARK  10 active torsions:
REMARK  status: ('A' for Active; 'I' for Inactive)
REMARK    1  A    between atoms: C_1  and  N_2
REMARK    2  A    between atoms: C_3  and  C_22
REMARK    3  A    between atoms: N_5  and  C_8
REMARK    4  A    between atoms: C_8  and  N_56
REMARK    5  A    between atoms: C_13  and  O_20
REMARK    6  A    between atoms: C_14  and  O_18
REMARK    7  A    between atoms: O_18  and  C_19
REMARK    8  A    between atoms: O_20  and  C_21
REMARK    9  A    between atoms: C_22  and  O_23
REMARK   10  A    between atoms: O_23  and  C_24
REMARK                            x       y       z     vdW  Elec       q    Type
REMARK                         _______ _______ _______ _____ _____    ______ ____
ROOT
ATOM      1  C   UNL     1       1.776  -1.773  -0.024  0.00  0.00    +0.152 C 
ATOM      2  N   UNL     1       1.294  -0.390  -0.012  0.00  0.00    -0.307 N 
ATOM      3  C   UNL     1       2.081   0.736  -0.014  0.00  0.00    +0.170 A 
ATOM      4  N   UNL     1       1.316   1.780  -0.001  0.00  0.00    -0.154 NA
ATOM      5  N   UNL     1      -0.016   1.345   0.009  0.00  0.00    -0.257 N 
ATOM      6  C   UNL     1       0.002  -0.004   0.002  0.00  0.00    +0.176 A 
ATOM      7  S   UNL     1      -1.364  -1.036   0.010  0.00  0.00    -0.011 S 
ENDROOT
BRANCH   5   8
ATOM      8  C   UNL     1      -1.208   2.197   0.020  0.00  0.00    +0.072 C 
BRANCH   8  18
ATOM      9  C   UNL     1      -2.908   3.146   1.464  0.00  0.00    -0.071 C 
ATOM     10  C   UNL     1      -3.428   3.078   2.900  0.00  0.00    +0.017 C 
ATOM     11  C   UNL     1      -2.364   3.555   3.855  0.00  0.00    -0.044 A 
ATOM     12  C   UNL     1      -2.742   3.902   5.144  0.00  0.00    +0.053 A 
ATOM     13  C   UNL     1      -1.799   4.337   6.058  0.00  0.00    +0.162 A 
ATOM     14  C   UNL     1      -0.462   4.426   5.678  0.00  0.00    +0.162 A 
ATOM     15  C   UNL     1      -0.091   4.081   4.391  0.00  0.00    +0.051 A 
ATOM     16  C   UNL     1      -1.041   3.646   3.478  0.00  0.00    -0.057 A 
ATOM     17  C   UNL     1      -0.584   3.286   2.088  0.00  0.00    -0.040 C 
ATOM     18  N   UNL     1      -1.603   2.456   1.423  0.00  0.00    +0.396 N 
ATOM     19  H   UNL     1      -1.681   1.560   1.919  0.00  0.00    -0.079 HD
BRANCH  14  20
ATOM     20  O   UNL     1       0.473   4.850   6.569  0.00  0.00    -0.491 OA
ATOM     21  C   UNL     1       1.825   4.916   6.108  0.00  0.00    +0.277 C 
ENDBRANCH  14  20
BRANCH  13  22
ATOM     22  O   UNL     1      -2.175   4.676   7.320  0.00  0.00    -0.491 OA
ATOM     23  C   UNL     1      -3.564   4.559   7.636  0.00  0.00    +0.277 C 
ENDBRANCH  13  22
ENDBRANCH   8  18
ENDBRANCH   5   8
BRANCH   3  24
ATOM     24  C   UNL     1       3.587   0.752  -0.028  0.00  0.00    +0.305 C 
BRANCH  24  25
ATOM     25  O   UNL     1       4.051   0.765  -1.380  0.00  0.00    -0.484 OA
BRANCH  25  26
ATOM     26  C   UNL     1       5.397   0.780  -1.571  0.00  0.00    +0.121 A 
ATOM     27  C   UNL     1       6.253   0.789  -0.479  0.00  0.00    +0.047 A 
ATOM     28  C   UNL     1       7.620   0.801  -0.675  0.00  0.00    +0.023 A 
ATOM     29  C   UNL     1       8.136   0.813  -1.959  0.00  0.00    +0.041 A 
ATOM     30  C   UNL     1       7.283   0.809  -3.049  0.00  0.00    +0.023 A 
ATOM     31  C   UNL     1       5.915   0.793  -2.857  0.00  0.00    +0.047 A 
ATOM     32 CL   UNL     1       9.854   0.833  -2.203  0.00  0.00    -0.084 Cl
ENDBRANCH  25  26
ENDBRANCH  24  25
ENDBRANCH   3  24
TORSDOF 7
