REMARK  Name = ZINC35787940
REMARK  8 active torsions:
REMARK  status: ('A' for Active; 'I' for Inactive)
REMARK    1  A    between atoms: C_1  and  C_2
REMARK    2  A    between atoms: C_2  and  N_3
REMARK    3  A    between atoms: N_6  and  C_9
REMARK    4  A    between atoms: C_9  and  C_10
REMARK    5  A    between atoms: C_13  and  C_26
REMARK    6  A    between atoms: C_16  and  C_18
REMARK    7  A    between atoms: C_23  and  O_24
REMARK    8  A    between atoms: O_24  and  C_25
REMARK                            x       y       z     vdW  Elec       q    Type
REMARK                         _______ _______ _______ _____ _____    ______ ____
ROOT
ATOM      1  C   UNL     1       3.518  -4.015  -3.630  0.00  0.00    +0.249 C 
ATOM      2  O   UNL     1       3.026  -4.609  -2.693  0.00  0.00    -0.272 OA
ATOM      3  N   UNL     1       4.141  -4.699  -4.610  0.00  0.00    -0.184 N 
ATOM      4  C   UNL     1       4.291  -6.162  -4.670  0.00  0.00    +0.137 C 
ATOM      5  C   UNL     1       5.070  -6.392  -5.981  0.00  0.00    +0.087 C 
ATOM      6  C   UNL     1       5.280  -4.998  -6.529  0.00  0.00    +0.072 C 
ATOM      7  N   UNL     1       4.744  -4.138  -5.734  0.00  0.00    -0.181 NA
ENDROOT
BRANCH   4   8
ATOM      8  C   UNL     1       5.077  -6.664  -3.487  0.00  0.00    -0.025 A 
ATOM      9  C   UNL     1       6.149  -5.934  -3.010  0.00  0.00    +0.007 A 
ATOM     10  C   UNL     1       6.871  -6.394  -1.924  0.00  0.00    +0.020 A 
ATOM     11  C   UNL     1       6.520  -7.586  -1.316  0.00  0.00    +0.041 A 
ATOM     12  C   UNL     1       5.447  -8.316  -1.794  0.00  0.00    +0.020 A 
ATOM     13  C   UNL     1       4.722  -7.853  -2.876  0.00  0.00    +0.007 A 
ATOM     14 CL   UNL     1       7.426  -8.165   0.047  0.00  0.00    -0.084 Cl
ENDBRANCH   4   8
BRANCH   6  15
ATOM     15  C   UNL     1       5.984  -4.675  -7.783  0.00  0.00    +0.039 A 
ATOM     16  C   UNL     1       6.516  -5.696  -8.572  0.00  0.00    +0.013 A 
ATOM     17  C   UNL     1       7.174  -5.387  -9.745  0.00  0.00    +0.001 A 
ATOM     18  C   UNL     1       7.309  -4.067 -10.142  0.00  0.00    +0.004 A 
ATOM     19  C   UNL     1       6.786  -3.048  -9.369  0.00  0.00    +0.046 A 
ATOM     20  C   UNL     1       6.117  -3.341  -8.192  0.00  0.00    +0.129 A 
BRANCH  20  21
ATOM     21  O   UNL     1       5.598  -2.340  -7.435  0.00  0.00    -0.494 OA
ATOM     22  C   UNL     1       5.773  -1.006  -7.915  0.00  0.00    +0.277 C 
ENDBRANCH  20  21
ENDBRANCH   6  15
BRANCH   1  23
ATOM     23  C   UNL     1       3.433  -2.512  -3.697  0.00  0.00    +0.182 C 
BRANCH  23  27
ATOM     24  N   UNL     1       0.690  -0.478  -1.207  0.00  0.00    +0.381 N 
ATOM     25  C   UNL     1       2.100  -0.069  -1.160  0.00  0.00    -0.063 C 
ATOM     26  C   UNL     1       2.812  -0.546  -2.427  0.00  0.00    +0.066 C 
ATOM     27  N   UNL     1       2.711  -2.009  -2.521  0.00  0.00    -0.298 NA
ATOM     28  C   UNL     1       1.305  -2.435  -2.544  0.00  0.00    +0.066 C 
ATOM     29  C   UNL     1       0.605  -1.943  -1.275  0.00  0.00    -0.063 C 
ATOM     30  H   UNL     1       0.251  -0.077  -2.022  0.00  0.00    -0.082 HD
BRANCH  24  32
ATOM     31  C   UNL     1      -0.019   1.526   0.010  0.00  0.00    -0.017 C 
ATOM     32  C   UNL     1       0.002  -0.004   0.002  0.00  0.00    -0.082 C 
ENDBRANCH  24  32
ENDBRANCH  23  27
ENDBRANCH   1  23
TORSDOF 6
