REMARK  Name = ZINC42731283
REMARK  4 active torsions:
REMARK  status: ('A' for Active; 'I' for Inactive)
REMARK    1  A    between atoms: C_1  and  C_2
REMARK    2  A    between atoms: C_6  and  C_7
REMARK    3  A    between atoms: C_7  and  C_9
REMARK    4  A    between atoms: C_7  and  O_20
REMARK                            x       y       z     vdW  Elec       q    Type
REMARK                         _______ _______ _______ _____ _____    ______ ____
ROOT
ATOM      1  C   UNL     1       1.431  -0.335   3.175  0.00  0.00    +0.244 C 
ATOM      2  C   UNL     1       1.412   0.062   4.657  0.00  0.00    +0.276 C 
ATOM      3  O   UNL     1       2.733  -0.109   5.183  0.00  0.00    -0.485 OA
ATOM      4  C   UNL     1       3.368  -1.273   4.875  0.00  0.00    +0.162 A 
ATOM      5  C   UNL     1       4.468  -1.667   5.622  0.00  0.00    +0.049 A 
ATOM      6  C   UNL     1       5.126  -2.844   5.318  0.00  0.00    +0.004 A 
ATOM      7  C   UNL     1       4.689  -3.631   4.269  0.00  0.00    +0.004 A 
ATOM      8  C   UNL     1       3.593  -3.245   3.522  0.00  0.00    +0.049 A 
ATOM      9  C   UNL     1       2.928  -2.066   3.822  0.00  0.00    +0.163 A 
ATOM     10  O   UNL     1       1.845  -1.702   3.081  0.00  0.00    -0.479 OA
ENDROOT
BRANCH   1  11
ATOM     11  C   UNL     1       0.030  -0.179   2.581  0.00  0.00    +0.195 C 
BRANCH  11  17
ATOM     12  C   UNL     1      -0.018   1.503   0.010  0.00  0.00    +0.044 C 
ATOM     13  C   UNL     1       0.002  -0.004   0.002  0.00  0.00    -0.038 A 
ATOM     14  C   UNL     1       0.006  -0.699  -1.193  0.00  0.00    +0.011 A 
ATOM     15  C   UNL     1       0.024  -2.054  -1.165  0.00  0.00    +0.046 A 
ATOM     16  S   UNL     1       0.037  -2.387   0.589  0.00  0.00    -0.099 S 
ATOM     17  C   UNL     1       0.023  -0.698   1.166  0.00  0.00    +0.025 A 
ENDBRANCH  11  17
BRANCH  11  18
ATOM     18  O   UNL     1      -0.906  -0.921   3.365  0.00  0.00    -0.383 OA
ATOM     19  H   UNL     1      -0.718  -1.869   3.409  0.00  0.00    +0.210 HD
ENDBRANCH  11  18
ENDBRANCH   1  11
TORSDOF 3
