REMARK  Name = ZINC35961779
REMARK  11 active torsions:
REMARK  status: ('A' for Active; 'I' for Inactive)
REMARK    1  A    between atoms: C_1  and  C_2
REMARK    2  A    between atoms: C_2  and  C_3
REMARK    3  A    between atoms: C_2  and  C_4
REMARK    4  A    between atoms: C_2  and  N_5
REMARK    5  A    between atoms: N_8  and  C_9
REMARK    6  A    between atoms: N_8  and  C_17
REMARK    7  A    between atoms: C_9  and  C_10
REMARK    8  A    between atoms: C_10  and  N_11
REMARK    9  A    between atoms: C_17  and  C_18
REMARK   10  A    between atoms: C_21  and  C_33
REMARK   11  A    between atoms: C_24  and  C_26
REMARK                            x       y       z     vdW  Elec       q    Type
REMARK                         _______ _______ _______ _____ _____    ______ ____
ROOT
ATOM      1  C   UNL     1       1.217  -0.546  -4.528  0.00  0.00    +0.253 C 
ATOM      2  O   UNL     1       1.318   0.661  -4.465  0.00  0.00    -0.272 OA
ATOM      3  N   UNL     1       0.500  -1.111  -5.520  0.00  0.00    -0.183 N 
ATOM      4  C   UNL     1      -0.203  -0.384  -6.589  0.00  0.00    +0.143 C 
ATOM      5  C   UNL     1      -0.843  -1.507  -7.429  0.00  0.00    +0.087 C 
ATOM      6  C   UNL     1      -0.421  -2.776  -6.723  0.00  0.00    +0.072 C 
ATOM      7  N   UNL     1       0.308  -2.479  -5.703  0.00  0.00    -0.181 NA
ENDROOT
BRANCH   6   8
ATOM      8  C   UNL     1      -0.782  -4.143  -7.141  0.00  0.00    +0.033 A 
ATOM      9  C   UNL     1      -1.571  -4.344  -8.276  0.00  0.00    +0.012 A 
ATOM     10  C   UNL     1      -1.905  -5.625  -8.662  0.00  0.00    +0.001 A 
ATOM     11  C   UNL     1      -1.461  -6.712  -7.928  0.00  0.00    +0.003 A 
ATOM     12  C   UNL     1      -0.679  -6.522  -6.803  0.00  0.00    +0.039 A 
ATOM     13  C   UNL     1      -0.331  -5.245  -6.407  0.00  0.00    +0.132 A 
ATOM     14  F   UNL     1       0.438  -5.061  -5.312  0.00  0.00    -0.205 F 
ENDBRANCH   6   8
BRANCH   4  15
ATOM     15  C   UNL     1      -1.261   0.519  -6.010  0.00  0.00    +0.013 A 
ATOM     16  C   UNL     1      -1.629   1.763  -6.401  0.00  0.00    +0.013 A 
ATOM     17  C   UNL     1      -2.639   2.411  -5.714  0.00  0.00    +0.008 A 
ATOM     18  C   UNL     1      -3.231   1.782  -4.669  0.00  0.00    +0.045 A 
ATOM     19  S   UNL     1      -2.362   0.223  -4.635  0.00  0.00    -0.100 S 
ENDBRANCH   4  15
BRANCH   1  20
ATOM     20  C   UNL     1       1.893  -1.414  -3.498  0.00  0.00    +0.207 C 
BRANCH  20  24
ATOM     21  N   UNL     1       0.688  -0.476  -1.203  0.00  0.00    -0.294 N 
ATOM     22  C   UNL     1       1.972  -0.132  -1.427  0.00  0.00    +0.303 C 
ATOM     23  O   UNL     1       2.561   0.570  -0.628  0.00  0.00    -0.253 OA
ATOM     24  N   UNL     1       2.602  -0.567  -2.536  0.00  0.00    -0.276 N 
ATOM     25  H   UNL     1       0.218  -1.037  -1.840  0.00  0.00    +0.151 HD
BRANCH  21  27
ATOM     26  C   UNL     1      -0.019   1.526   0.010  0.00  0.00    +0.031 C 
ATOM     27  C   UNL     1       0.002  -0.004   0.002  0.00  0.00    +0.028 C 
ATOM     28  C   UNL     1       0.742  -0.511   1.242  0.00  0.00    +0.031 C 
ATOM     29  C   UNL     1      -1.433  -0.534   0.013  0.00  0.00    +0.031 C 
ENDBRANCH  21  27
BRANCH  24  30
ATOM     30  C   UNL     1       3.998  -0.193  -2.779  0.00  0.00    +0.125 C 
BRANCH  30  31
ATOM     31  C   UNL     1       4.923  -1.238  -2.153  0.00  0.00    +0.103 C 
BRANCH  31  32
ATOM     32  N   UNL     1       6.322  -0.863  -2.397  0.00  0.00    -0.297 NA
ATOM     33  C   UNL     1       6.644  -0.934  -3.829  0.00  0.00    +0.112 C 
ATOM     34  C   UNL     1       8.090  -0.478  -4.045  0.00  0.00    +0.175 C 
ATOM     35  O   UNL     1       8.963  -1.289  -3.253  0.00  0.00    -0.377 OA
ATOM     36  C   UNL     1       8.677  -1.244  -1.852  0.00  0.00    +0.175 C 
ATOM     37  C   UNL     1       7.237  -1.706  -1.615  0.00  0.00    +0.112 C 
ENDBRANCH  31  32
ENDBRANCH  30  31
ENDBRANCH  24  30
ENDBRANCH  20  24
ENDBRANCH   1  20
TORSDOF 8
