REMARK  Name = ZINC38747210
REMARK  5 active torsions:
REMARK  status: ('A' for Active; 'I' for Inactive)
REMARK    1  A    between atoms: C_1  and  C_2
REMARK    2  A    between atoms: C_5  and  C_8
REMARK    3  A    between atoms: C_8  and  C_9
REMARK    4  A    between atoms: C_15  and  C_17
REMARK    5  A    between atoms: C_19  and  C_29
REMARK                            x       y       z     vdW  Elec       q    Type
REMARK                         _______ _______ _______ _____ _____    ______ ____
ROOT
ATOM      1  C   UNL     1       2.175  -3.560  -0.453  0.00  0.00    +0.223 A 
ATOM      2  N   UNL     1       2.804  -3.947   0.619  0.00  0.00    -0.111 NA
ATOM      3  N   UNL     1       3.864  -4.596   0.285  0.00  0.00    -0.092 NA
ATOM      4  C   UNL     1       3.948  -4.645  -1.021  0.00  0.00    +0.314 A 
ATOM      5  O   UNL     1       2.878  -3.995  -1.515  0.00  0.00    -0.409 OA
ATOM      6  N   UNL     1       4.951  -5.258  -1.758  0.00  0.00    -0.235 N 
ATOM      7  C   UNL     1       5.966  -5.881  -1.127  0.00  0.00    +0.265 C 
ATOM      8  O   UNL     1       6.049  -5.833   0.083  0.00  0.00    -0.271 OA
ATOM      9  H   UNL     1       4.922  -5.239  -2.727  0.00  0.00    +0.159 HD
ENDROOT
BRANCH   7  10
ATOM     10  C   UNL     1       6.999  -6.636  -1.923  0.00  0.00    +0.299 C 
ATOM     11  C   UNL     1       6.380  -7.923  -2.485  0.00  0.00    +0.220 C 
ATOM     12  O   UNL     1       7.389  -8.621  -3.222  0.00  0.00    -0.481 OA
ATOM     13  C   UNL     1       8.607  -8.742  -2.628  0.00  0.00    +0.163 A 
ATOM     14  C   UNL     1       9.503  -9.691  -3.098  0.00  0.00    +0.049 A 
ATOM     15  C   UNL     1      10.745  -9.824  -2.507  0.00  0.00    +0.004 A 
ATOM     16  C   UNL     1      11.098  -9.012  -1.444  0.00  0.00    +0.004 A 
ATOM     17  C   UNL     1      10.210  -8.066  -0.970  0.00  0.00    +0.049 A 
ATOM     18  C   UNL     1       8.961  -7.928  -1.558  0.00  0.00    +0.163 A 
ATOM     19  O   UNL     1       8.094  -6.997  -1.075  0.00  0.00    -0.472 OA
ATOM     20  C   UNL     1       5.213  -7.573  -3.410  0.00  0.00    +0.056 C 
ENDBRANCH   7  10
BRANCH   1  21
ATOM     21  C   UNL     1       0.891  -2.774  -0.496  0.00  0.00    +0.132 C 
BRANCH  21  26
ATOM     22  C   UNL     1       2.090   2.879  -0.574  0.00  0.00    +0.044 C 
ATOM     23  C   UNL     1       1.777   1.405  -0.554  0.00  0.00    -0.050 A 
ATOM     24  C   UNL     1       1.662   0.706  -1.741  0.00  0.00    +0.003 A 
ATOM     25  C   UNL     1       1.375  -0.646  -1.722  0.00  0.00    +0.004 A 
ATOM     26  C   UNL     1       1.204  -1.300  -0.516  0.00  0.00    -0.038 A 
ATOM     27  C   UNL     1       1.320  -0.602   0.671  0.00  0.00    +0.004 A 
ATOM     28  C   UNL     1       1.611   0.750   0.652  0.00  0.00    +0.003 A 
ENDBRANCH  21  26
ENDBRANCH   1  21
TORSDOF 3
