REMARK  Name = ZINC48806701
REMARK  6 active torsions:
REMARK  status: ('A' for Active; 'I' for Inactive)
REMARK    1  A    between atoms: C_1  and  C_2
REMARK    2  A    between atoms: C_7  and  C_8
REMARK    3  A    between atoms: C_8  and  C_10
REMARK    4  A    between atoms: C_8  and  N_11
REMARK    5  A    between atoms: C_12  and  C_14
REMARK    6  A    between atoms: N_16  and  C_17
REMARK                            x       y       z     vdW  Elec       q    Type
REMARK                         _______ _______ _______ _____ _____    ______ ____
ROOT
ATOM      1  C   UNL     1      -1.914  -1.138   5.591  0.00  0.00    +0.303 C 
ATOM      2  O   UNL     1      -1.934  -2.345   5.462  0.00  0.00    -0.265 OA
ATOM      3  N   UNL     1      -2.416  -0.571   6.706  0.00  0.00    -0.278 N 
ATOM      4  H   UNL     1      -2.468   0.395   6.778  0.00  0.00    +0.155 HD
ENDROOT
BRANCH   3   5
ATOM      5  C   UNL     1      -2.861  -1.375   7.760  0.00  0.00    +0.038 A 
ATOM      6  C   UNL     1      -3.938  -0.968   8.538  0.00  0.00    +0.027 A 
ATOM      7  C   UNL     1      -4.378  -1.761   9.579  0.00  0.00    +0.051 A 
ATOM      8  C   UNL     1      -3.748  -2.965   9.851  0.00  0.00    +0.173 A 
ATOM      9  C   UNL     1      -2.668  -3.377   9.073  0.00  0.00    +0.174 A 
ATOM     10  C   UNL     1      -2.230  -2.584   8.026  0.00  0.00    +0.073 A 
ATOM     11  O   UNL     1      -2.228  -4.582   9.539  0.00  0.00    -0.395 OA
ATOM     12  C   UNL     1      -2.785  -4.710  10.861  0.00  0.00    +0.589 C 
ATOM     13  O   UNL     1      -3.984  -3.914  10.805  0.00  0.00    -0.395 OA
ATOM     14  F   UNL     1      -3.095  -6.046  11.136  0.00  0.00    -0.125 F 
ATOM     15  F   UNL     1      -1.901  -4.201  11.818  0.00  0.00    -0.125 F 
ENDBRANCH   3   5
BRANCH   1  17
ATOM     16  N   UNL     1      -0.831  -0.849   3.400  0.00  0.00    -0.301 N 
ATOM     17  C   UNL     1      -1.333  -0.281   4.514  0.00  0.00    +0.300 C 
ATOM     18  O   UNL     1      -1.313   0.925   4.644  0.00  0.00    -0.265 OA
ATOM     19  H   UNL     1      -0.847  -1.813   3.296  0.00  0.00    +0.150 HD
BRANCH  16  20
ATOM     20  C   UNL     1      -0.261  -0.008   2.343  0.00  0.00    +0.101 C 
ATOM     21  C   UNL     1       1.225   0.224   2.623  0.00  0.00    +0.033 C 
BRANCH  20  28
ATOM     22  C   UNL     1      -0.403   1.553  -0.084  0.00  0.00    +0.044 C 
ATOM     23  C   UNL     1      -0.488   0.049  -0.149  0.00  0.00    -0.046 A 
ATOM     24  C   UNL     1      -0.629  -0.583  -1.370  0.00  0.00    +0.004 A 
ATOM     25  C   UNL     1      -0.707  -1.962  -1.429  0.00  0.00    +0.000 A 
ATOM     26  C   UNL     1      -0.645  -2.708  -0.268  0.00  0.00    +0.000 A 
ATOM     27  C   UNL     1      -0.504  -2.076   0.953  0.00  0.00    +0.006 A 
ATOM     28  C   UNL     1      -0.421  -0.697   1.012  0.00  0.00    -0.025 A 
ENDBRANCH  20  28
ENDBRANCH  16  20
ENDBRANCH   1  17
TORSDOF 4
