REMARK  Name = ZINC11615657
REMARK  5 active torsions:
REMARK  status: ('A' for Active; 'I' for Inactive)
REMARK    1  A    between atoms: C_1  and  C_2
REMARK    2  A    between atoms: C_9  and  C_11
REMARK    3  A    between atoms: C_14  and  C_16
REMARK    4  A    between atoms: C_17  and  C_18
REMARK    5  A    between atoms: C_17  and  C_20
REMARK                            x       y       z     vdW  Elec       q    Type
REMARK                         _______ _______ _______ _____ _____    ______ ____
ROOT
ATOM      1  C   UNL     1      -1.129  -0.942   0.007  0.00  0.00    +0.161 A 
ATOM      2  C   UNL     1      -2.464  -0.595   0.021  0.00  0.00    +0.052 A 
ATOM      3  C   UNL     1      -3.194  -1.783   0.021  0.00  0.00    +0.050 A 
ATOM      4  C   UNL     1      -2.275  -2.820   0.007  0.00  0.00    +0.130 A 
ATOM      5  O   UNL     1      -1.036  -2.285  -0.007  0.00  0.00    -0.453 OA
ENDROOT
BRANCH   1  14
ATOM      6  C   UNL     1       5.942   1.440  -0.048  0.00  0.00    +0.044 C 
ATOM      7  C   UNL     1       4.448   1.640  -0.033  0.00  0.00    -0.048 A 
ATOM      8  C   UNL     1       3.939   2.932  -0.021  0.00  0.00    +0.004 A 
ATOM      9  C   UNL     1       2.569   3.120  -0.007  0.00  0.00    +0.017 A 
ATOM     10  C   UNL     1       1.738   2.027  -0.004  0.00  0.00    +0.040 A 
ATOM     11  C   UNL     1       2.226   0.698  -0.015  0.00  0.00    +0.079 A 
ATOM     12  C   UNL     1       3.635   0.551  -0.030  0.00  0.00    +0.032 A 
ATOM     13  N   UNL     1       1.294  -0.265  -0.012  0.00  0.00    -0.236 NA
ATOM     14  C   UNL     1       0.002  -0.004   0.002  0.00  0.00    +0.144 A 
ATOM     15  S   UNL     1      -0.022   1.783   0.012  0.00  0.00    -0.064 S 
ENDBRANCH   1  14
BRANCH   4  16
ATOM     16  C   UNL     1      -2.581  -4.195   0.003  0.00  0.00    +0.068 C 
ATOM     17  C   UNL     1      -1.563  -5.130  -0.012  0.00  0.00    +0.097 C 
BRANCH  17  18
ATOM     18  C   UNL     1      -1.883  -6.567  -0.017  0.00  0.00    +0.150 A 
ATOM     19  N   UNL     1      -0.960  -7.581  -0.031  0.00  0.00    -0.337 N 
ATOM     20  H   UNL     1       0.035  -7.478  -0.041  0.00  0.00    +0.167 HD
ATOM     21  C   UNL     1      -1.662  -8.771  -0.029  0.00  0.00    +0.066 A 
ATOM     22  C   UNL     1      -1.289 -10.108  -0.039  0.00  0.00    +0.028 A 
ATOM     23  C   UNL     1      -2.260 -11.088  -0.033  0.00  0.00    +0.002 A 
ATOM     24  C   UNL     1      -3.605 -10.747  -0.018  0.00  0.00    +0.002 A 
ATOM     25  C   UNL     1      -3.991  -9.437  -0.008  0.00  0.00    +0.030 A 
ATOM     26  C   UNL     1      -3.025  -8.425  -0.014  0.00  0.00    +0.089 A 
ATOM     27  N   UNL     1      -3.095  -7.072  -0.002  0.00  0.00    -0.227 NA
ENDBRANCH  17  18
BRANCH  17  28
ATOM     28  C   UNL     1      -0.197  -4.700  -0.023  0.00  0.00    +0.103 C 
ATOM     29  N   UNL     1       0.887  -4.359  -0.032  0.00  0.00    -0.191 NA
ENDBRANCH  17  28
ENDBRANCH   4  16
TORSDOF 4
