REMARK  Name = ZINC03211485
REMARK  4 active torsions:
REMARK  status: ('A' for Active; 'I' for Inactive)
REMARK    1  A    between atoms: C_3  and  C_8
REMARK    2  A    between atoms: N_9  and  N_10
REMARK    3  A    between atoms: C_11  and  C_13
REMARK    4  A    between atoms: C_17  and  N_19
REMARK                            x       y       z     vdW  Elec       q    Type
REMARK                         _______ _______ _______ _____ _____    ______ ____
ROOT
ATOM      1  N   UNL     1       3.596   5.955  -0.001  0.00  0.00    -0.203 N 
ATOM      2  C   UNL     1       3.573   7.302   0.006  0.00  0.00    +0.263 C 
ATOM      3  O   UNL     1       2.510   7.892   0.020  0.00  0.00    -0.268 OA
ATOM      4  H   UNL     1       4.445   5.484  -0.012  0.00  0.00    +0.178 HD
ENDROOT
BRANCH   2   5
ATOM      5  C   UNL     1       4.840   8.063  -0.002  0.00  0.00    +0.041 A 
ATOM      6  C   UNL     1       6.062   7.388  -0.012  0.00  0.00    +0.014 A 
ATOM      7  C   UNL     1       7.241   8.104  -0.026  0.00  0.00    +0.023 A 
ATOM      8  C   UNL     1       7.214   9.489  -0.018  0.00  0.00    +0.071 A 
ATOM      9  C   UNL     1       6.005  10.163  -0.003  0.00  0.00    +0.145 A 
ATOM     10  C   UNL     1       4.819   9.459   0.005  0.00  0.00    +0.047 A 
ATOM     11 CL   UNL     1       8.702  10.383  -0.029  0.00  0.00    -0.081 Cl
BRANCH   9  12
ATOM     12  N   UNL     1       5.984  11.643   0.005  0.00  0.00    +0.058 N 
ATOM     13  O   UNL     1       4.921  12.238   0.018  0.00  0.00    -0.126 OA
ATOM     14  O   UNL     1       7.031  12.267  -0.002  0.00  0.00    -0.126 OA
ENDBRANCH   9  12
ENDBRANCH   2   5
BRANCH   1  16
ATOM     15  C   UNL     1       2.418   3.936  -0.000  0.00  0.00    +0.138 C 
ATOM     16  N   UNL     1       2.395   5.234   0.007  0.00  0.00    -0.187 NA
BRANCH  15  19
ATOM     17  C   UNL     1      -0.013   1.076   0.008  0.00  0.00    +0.002 A 
ATOM     18  C   UNL     1       1.174   1.780   0.000  0.00  0.00    +0.009 A 
ATOM     19  C   UNL     1       1.153   3.177   0.008  0.00  0.00    -0.004 A 
ATOM     20  C   UNL     1      -0.070   3.851   0.023  0.00  0.00    +0.024 A 
ATOM     21  C   UNL     1      -1.249   3.134   0.031  0.00  0.00    +0.018 A 
ATOM     22  C   UNL     1      -1.221   1.749   0.017  0.00  0.00    +0.015 A 
ATOM     23 BR   UNL     1      -2.907   4.044   0.051  0.00  0.00    -0.050 Br
ENDBRANCH  15  19
ENDBRANCH   1  16
TORSDOF 4
