REMARK  Name = ZINC36642586
REMARK  9 active torsions:
REMARK  status: ('A' for Active; 'I' for Inactive)
REMARK    1  A    between atoms: C_1  and  C_2
REMARK    2  A    between atoms: C_2  and  N_3
REMARK    3  A    between atoms: N_3  and  C_4
REMARK    4  A    between atoms: N_3  and  C_6
REMARK    5  A    between atoms: C_4  and  C_5
REMARK    6  A    between atoms: C_6  and  C_7
REMARK    7  A    between atoms: C_7  and  N_8
REMARK    8  A    between atoms: C_19  and  C_21
REMARK    9  A    between atoms: C_23  and  C_33
REMARK                            x       y       z     vdW  Elec       q    Type
REMARK                         _______ _______ _______ _____ _____    ______ ____
ROOT
ATOM      1  N   UNL     1      -1.305  -3.982  -1.587  0.00  0.00    -0.249 N 
ATOM      2  C   UNL     1      -1.463  -4.777  -0.462  0.00  0.00    +0.168 A 
ATOM      3  N   UNL     1      -1.510  -4.418   0.799  0.00  0.00    -0.221 NA
ATOM      4  C   UNL     1      -1.670  -5.310   1.802  0.00  0.00    +0.115 A 
ATOM      5  C   UNL     1      -1.736  -5.058   3.193  0.00  0.00    +0.150 A 
ATOM      6  C   UNL     1      -1.902  -6.088   4.085  0.00  0.00    +0.040 A 
ATOM      7  C   UNL     1      -2.011  -7.404   3.659  0.00  0.00    +0.004 A 
ATOM      8  C   UNL     1      -1.950  -7.685   2.307  0.00  0.00    +0.017 A 
ATOM      9  C   UNL     1      -1.784  -6.661   1.407  0.00  0.00    +0.044 A 
ATOM     10  S   UNL     1      -1.662  -6.550  -0.362  0.00  0.00    -0.052 S 
ATOM     11  F   UNL     1      -1.633  -3.790   3.649  0.00  0.00    -0.203 F 
ATOM     12  C   UNL     1      -1.289  -4.543  -2.812  0.00  0.00    +0.266 C 
ATOM     13  O   UNL     1      -1.506  -5.729  -2.938  0.00  0.00    -0.271 OA
ENDROOT
BRANCH  12  14
ATOM     14  C   UNL     1      -1.000  -3.697  -4.025  0.00  0.00    +0.299 C 
ATOM     15  C   UNL     1       0.206  -4.269  -4.780  0.00  0.00    +0.220 C 
ATOM     16  O   UNL     1       0.444  -3.452  -5.931  0.00  0.00    -0.481 OA
ATOM     17  C   UNL     1      -0.642  -3.123  -6.683  0.00  0.00    +0.163 A 
ATOM     18  C   UNL     1      -0.460  -2.657  -7.976  0.00  0.00    +0.049 A 
ATOM     19  C   UNL     1      -1.553  -2.316  -8.750  0.00  0.00    +0.004 A 
ATOM     20  C   UNL     1      -2.831  -2.437  -8.237  0.00  0.00    +0.004 A 
ATOM     21  C   UNL     1      -3.020  -2.902  -6.949  0.00  0.00    +0.049 A 
ATOM     22  C   UNL     1      -1.927  -3.249  -6.168  0.00  0.00    +0.163 A 
ATOM     23  O   UNL     1      -2.130  -3.712  -4.904  0.00  0.00    -0.472 OA
ATOM     24  C   UNL     1       1.438  -4.255  -3.873  0.00  0.00    +0.056 C 
ENDBRANCH  12  14
BRANCH   1  25
ATOM     25  C   UNL     1      -1.157  -2.532  -1.443  0.00  0.00    +0.097 C 
BRANCH  25  26
ATOM     26  C   UNL     1       0.330  -2.173  -1.398  0.00  0.00    -0.059 C 
BRANCH  26  27
ATOM     27  N   UNL     1       0.480  -0.735  -1.139  0.00  0.00    +0.380 N 
ATOM     28  H   UNL     1      -0.031  -0.213  -1.835  0.00  0.00    -0.082 HD
BRANCH  27  30
ATOM     29  C   UNL     1       0.001   1.092   0.419  0.00  0.00    -0.017 C 
ATOM     30  C   UNL     1      -0.049  -0.420   0.195  0.00  0.00    -0.082 C 
ENDBRANCH  27  30
BRANCH  27  31
ATOM     31  C   UNL     1       1.902  -0.372  -1.201  0.00  0.00    -0.082 C 
ATOM     32  C   UNL     1       2.418  -0.572  -2.628  0.00  0.00    -0.017 C 
ENDBRANCH  27  31
ENDBRANCH  26  27
ENDBRANCH  25  26
ENDBRANCH   1  25
TORSDOF 6
