REMARK  Name = ZINC15860519
REMARK  9 active torsions:
REMARK  status: ('A' for Active; 'I' for Inactive)
REMARK    1  A    between atoms: C_1  and  C_2
REMARK    2  A    between atoms: C_5  and  C_7
REMARK    3  A    between atoms: C_7  and  C_9
REMARK    4  A    between atoms: C_7  and  N_61
REMARK    5  A    between atoms: C_9  and  N_10
REMARK    6  A    between atoms: C_11  and  C_13
REMARK    7  A    between atoms: C_19  and  C_25
REMARK    8  A    between atoms: C_20  and  C_24
REMARK    9  A    between atoms: C_28  and  C_31
REMARK                            x       y       z     vdW  Elec       q    Type
REMARK                         _______ _______ _______ _____ _____    ______ ____
ROOT
ATOM      1  N   UNL     1      -5.826   1.599   3.661  0.00  0.00    -0.310 N 
ATOM      2  C   UNL     1      -6.662   0.613   4.042  0.00  0.00    +0.279 C 
ATOM      3  O   UNL     1      -6.241  -0.517   4.188  0.00  0.00    -0.267 OA
ATOM      4  H   UNL     1      -6.162   2.502   3.545  0.00  0.00    +0.149 HD
ENDROOT
BRANCH   2   5
ATOM      5  C   UNL     1      -8.094   0.907   4.284  0.00  0.00    +0.193 A 
ATOM      6  C   UNL     1      -8.912  -0.105   4.661  0.00  0.00    +0.103 A 
ATOM      7  C   UNL     1     -10.332   0.187   4.907  0.00  0.00    +0.193 A 
ATOM      8  O   UNL     1     -11.112  -0.683   5.252  0.00  0.00    -0.287 OA
ATOM      9  C   UNL     1     -10.769   1.582   4.709  0.00  0.00    +0.064 A 
ATOM     10  C   UNL     1     -12.096   1.962   4.909  0.00  0.00    +0.019 A 
ATOM     11  C   UNL     1     -12.463   3.265   4.716  0.00  0.00    -0.047 A 
ATOM     12  C   UNL     1     -11.524   4.208   4.322  0.00  0.00    -0.044 A 
ATOM     13  C   UNL     1     -10.209   3.851   4.119  0.00  0.00    +0.050 A 
ATOM     14  C   UNL     1      -9.812   2.531   4.310  0.00  0.00    +0.140 A 
ATOM     15  O   UNL     1      -8.531   2.164   4.115  0.00  0.00    -0.450 OA
ATOM     16  C   UNL     1     -11.948   5.639   4.114  0.00  0.00    +0.044 C 
ATOM     17  C   UNL     1     -13.896   3.679   4.931  0.00  0.00    +0.044 C 
ENDBRANCH   2   5
BRANCH   1  18
ATOM     18  C   UNL     1      -4.410   1.308   3.422  0.00  0.00    +0.097 C 
BRANCH  18  19
ATOM     19  C   UNL     1      -3.666   2.611   3.122  0.00  0.00    +0.016 C 
BRANCH  19  26
ATOM     20  C   UNL     1      -3.584   4.518   1.633  0.00  0.00    -0.078 C 
ATOM     21  C   UNL     1      -4.372   5.290   0.572  0.00  0.00    -0.015 C 
ATOM     22  C   UNL     1      -4.579   4.397  -0.654  0.00  0.00    -0.018 C 
ATOM     23  C   UNL     1      -5.309   3.120  -0.228  0.00  0.00    -0.015 C 
ATOM     24  C   UNL     1      -4.494   2.410   0.856  0.00  0.00    -0.078 C 
ATOM     25  C   UNL     1      -5.419   5.142  -1.694  0.00  0.00    +0.007 C 
ATOM     26  N   UNL     1      -4.351   3.313   2.018  0.00  0.00    +0.387 N 
ATOM     27  H   UNL     1      -5.285   3.600   2.333  0.00  0.00    -0.081 HD
ENDBRANCH  19  26
BRANCH  19  32
ATOM     28  C   UNL     1       0.366   1.235   0.422  0.00  0.00    +0.086 C 
ATOM     29  C   UNL     1      -0.486   1.701   1.574  0.00  0.00    +0.102 A 
ATOM     30  C   UNL     1      -0.043   2.010   2.806  0.00  0.00    +0.044 A 
ATOM     31  C   UNL     1      -1.174   2.396   3.563  0.00  0.00    +0.043 A 
ATOM     32  C   UNL     1      -2.240   2.300   2.748  0.00  0.00    +0.093 A 
ATOM     33  O   UNL     1      -1.816   1.884   1.543  0.00  0.00    -0.466 OA
ENDBRANCH  19  32
ENDBRANCH  18  19
ENDBRANCH   1  18
TORSDOF 5
