REMARK  Name = ZINC45626247
REMARK  3 active torsions:
REMARK  status: ('A' for Active; 'I' for Inactive)
REMARK    1  A    between atoms: C_4  and  C_8
REMARK    2  A    between atoms: C_6  and  N_7
REMARK    3  A    between atoms: N_12  and  C_13
REMARK                            x       y       z     vdW  Elec       q    Type
REMARK                         _______ _______ _______ _____ _____    ______ ____
ROOT
ATOM      1  C   UNL     1       3.706  -0.675   0.017  0.00  0.00    +0.188 A 
ATOM      2  N   UNL     1       3.882  -1.980   0.071  0.00  0.00    -0.108 NA
ATOM      3  N   UNL     1       5.128  -2.271  -0.037  0.00  0.00    -0.022 NA
ATOM      4  N   UNL     1       5.834  -1.201  -0.167  0.00  0.00    -0.039 NA
ATOM      5  N   UNL     1       4.940  -0.116  -0.142  0.00  0.00    -0.193 N 
ENDROOT
BRANCH   5   6
ATOM      6  C   UNL     1       5.250   1.246  -0.255  0.00  0.00    +0.071 A 
ATOM      7  C   UNL     1       4.625   2.172   0.570  0.00  0.00    +0.029 A 
ATOM      8  C   UNL     1       4.932   3.514   0.458  0.00  0.00    +0.023 A 
ATOM      9  C   UNL     1       5.862   3.937  -0.476  0.00  0.00    +0.059 A 
ATOM     10  C   UNL     1       6.487   3.016  -1.300  0.00  0.00    +0.061 A 
ATOM     11  C   UNL     1       6.187   1.671  -1.187  0.00  0.00    +0.049 A 
ATOM     12 CL   UNL     1       7.652   3.550  -2.470  0.00  0.00    -0.082 Cl
ATOM     13 CL   UNL     1       6.245   5.625  -0.615  0.00  0.00    -0.082 Cl
ENDBRANCH   5   6
BRANCH   1  17
ATOM     14  C   UNL     1      -0.003   1.391   0.279  0.00  0.00    +0.024 A 
ATOM     15  C   UNL     1       0.320   0.429   1.218  0.00  0.00    +0.018 A 
ATOM     16  C   UNL     1       1.522  -0.245   1.138  0.00  0.00    +0.029 A 
ATOM     17  C   UNL     1       2.417   0.044   0.105  0.00  0.00    +0.037 A 
ATOM     18  C   UNL     1       2.091   1.014  -0.841  0.00  0.00    +0.035 A 
ATOM     19  C   UNL     1       0.881   1.685  -0.752  0.00  0.00    +0.025 A 
ATOM     20 BR   UNL     1       1.958  -1.559   2.426  0.00  0.00    -0.050 Br
BRANCH  19  21
ATOM     21  N   UNL     1       0.550   2.659  -1.699  0.00  0.00    -0.358 N 
ATOM     22  H   UNL     1      -0.296   3.128  -1.637  0.00  0.00    +0.142 HD
ATOM     23  H   UNL     1       1.167   2.865  -2.418  0.00  0.00    +0.142 HD
ENDBRANCH  19  21
ENDBRANCH   1  17
TORSDOF 3
