REMARK  Name = ZINC59310085
REMARK  7 active torsions:
REMARK  status: ('A' for Active; 'I' for Inactive)
REMARK    1  A    between atoms: C_4  and  N_7
REMARK    2  A    between atoms: N_16  and  C_17
REMARK    3  A    between atoms: C_17  and  C_19
REMARK    4  A    between atoms: C_20  and  C_21
REMARK    5  A    between atoms: C_24  and  O_27
REMARK    6  A    between atoms: O_27  and  C_28
REMARK    7  A    between atoms: C_28  and  C_29
REMARK                            x       y       z     vdW  Elec       q    Type
REMARK                         _______ _______ _______ _____ _____    ______ ____
ROOT
ATOM      1  N   UNL     1       3.624  -0.652  -0.038  0.00  0.00    -0.280 N 
ATOM      2  C   UNL     1       3.792  -2.031   0.066  0.00  0.00    +0.073 A 
ATOM      3  C   UNL     1       2.900  -3.087   0.181  0.00  0.00    +0.028 A 
ATOM      4  C   UNL     1       3.373  -4.381   0.268  0.00  0.00    +0.002 A 
ATOM      5  C   UNL     1       4.735  -4.630   0.243  0.00  0.00    +0.002 A 
ATOM      6  C   UNL     1       5.631  -3.586   0.129  0.00  0.00    +0.028 A 
ATOM      7  C   UNL     1       5.166  -2.282   0.040  0.00  0.00    +0.066 A 
ATOM      8  N   UNL     1       5.807  -1.053  -0.079  0.00  0.00    -0.325 N 
ATOM      9  C   UNL     1       4.857  -0.078  -0.130  0.00  0.00    +0.206 A 
ATOM     10  N   UNL     1       5.094   1.221  -0.248  0.00  0.00    -0.143 NA
ATOM     11  H   UNL     1       6.766  -0.914  -0.122  0.00  0.00    +0.169 HD
ENDROOT
BRANCH   1  15
ATOM     12  C   UNL     1      -0.021   1.367  -0.078  0.00  0.00    +0.000 A 
ATOM     13  C   UNL     1       0.875   1.540  -1.117  0.00  0.00    +0.002 A 
ATOM     14  C   UNL     1       2.084   0.872  -1.107  0.00  0.00    +0.026 A 
ATOM     15  C   UNL     1       2.399   0.026  -0.051  0.00  0.00    +0.050 A 
ATOM     16  C   UNL     1       1.497  -0.146   0.990  0.00  0.00    +0.026 A 
ATOM     17  C   UNL     1       0.290   0.525   0.974  0.00  0.00    +0.002 A 
ENDBRANCH   1  15
BRANCH  10  18
ATOM     18  C   UNL     1       6.346   1.659  -0.447  0.00  0.00    +0.263 C 
ATOM     19  O   UNL     1       7.251   0.861  -0.622  0.00  0.00    -0.269 OA
BRANCH  18  20
ATOM     20  C   UNL     1       6.626   3.100  -0.454  0.00  0.00    +0.070 C 
ATOM     21  C   UNL     1       7.884   3.540  -0.654  0.00  0.00    +0.013 C 
BRANCH  21  22
ATOM     22  C   UNL     1       8.165   4.984  -0.661  0.00  0.00    -0.025 A 
ATOM     23  C   UNL     1       7.130   5.902  -0.455  0.00  0.00    +0.011 A 
ATOM     24  C   UNL     1       7.398   7.252  -0.462  0.00  0.00    +0.046 A 
ATOM     25  C   UNL     1       8.695   7.704  -0.675  0.00  0.00    +0.122 A 
ATOM     26  C   UNL     1       9.728   6.796  -0.880  0.00  0.00    +0.046 A 
ATOM     27  C   UNL     1       9.471   5.444  -0.868  0.00  0.00    +0.011 A 
BRANCH  25  28
ATOM     28  O   UNL     1       8.955   9.037  -0.682  0.00  0.00    -0.477 OA
BRANCH  28  29
ATOM     29  C   UNL     1      10.309   9.433  -0.906  0.00  0.00    +0.346 C 
BRANCH  29  30
ATOM     30  C   UNL     1      10.402  10.902  -0.881  0.00  0.00    +0.104 C 
ATOM     31  N   UNL     1      10.473  12.035  -0.862  0.00  0.00    -0.193 NA
ENDBRANCH  29  30
ENDBRANCH  28  29
ENDBRANCH  25  28
ENDBRANCH  21  22
ENDBRANCH  18  20
ENDBRANCH  10  18
TORSDOF 7
