REMARK  Name = ZINC32600679
REMARK  3 active torsions:
REMARK  status: ('A' for Active; 'I' for Inactive)
REMARK    1  A    between atoms: C_6  and  N_7
REMARK    2  A    between atoms: N_13  and  C_14
REMARK    3  A    between atoms: C_14  and  N_15
REMARK                            x       y       z     vdW  Elec       q    Type
REMARK                         _______ _______ _______ _____ _____    ______ ____
ROOT
ATOM      1  C   UNL     1       1.220  -0.661  -0.013  0.00  0.00    +0.035 A 
ATOM      2  C   UNL     1       2.406   0.034  -0.021  0.00  0.00    +0.029 A 
ATOM      3  C   UNL     1       2.418   1.439  -0.013  0.00  0.00    +0.058 A 
ATOM      4  C   UNL     1       1.168   2.075   0.002  0.00  0.00    +0.040 A 
ATOM      5  C   UNL     1      -0.017   1.380   0.010  0.00  0.00    +0.050 A 
ATOM      6  C   UNL     1       0.002  -0.004   0.002  0.00  0.00    +0.127 A 
ATOM      7  S   UNL     1       1.592   3.800   0.007  0.00  0.00    -0.062 S 
ATOM      8  C   UNL     1       3.368   3.615  -0.011  0.00  0.00    +0.128 A 
ATOM      9  S   UNL     1       4.573   4.831  -0.016  0.00  0.00    -0.025 S 
ATOM     10  N   UNL     1       3.521   2.276  -0.019  0.00  0.00    -0.315 N 
ENDROOT
BRANCH   6  11
ATOM     11  N   UNL     1      -1.264  -0.771   0.009  0.00  0.00    +0.056 N 
ATOM     12  O   UNL     1      -2.331  -0.185   0.022  0.00  0.00    -0.126 OA
ATOM     13  O   UNL     1      -1.238  -1.989   0.003  0.00  0.00    -0.126 OA
ENDBRANCH   6  11
BRANCH  10  14
ATOM     14  C   UNL     1       4.868   1.700  -0.036  0.00  0.00    +0.210 C 
BRANCH  14  15
ATOM     15  N   UNL     1       5.304   1.516  -1.426  0.00  0.00    -0.285 NA
ATOM     16  C   UNL     1       4.481   0.509  -2.107  0.00  0.00    +0.086 C 
ATOM     17  C   UNL     1       4.867   0.448  -3.587  0.00  0.00    +0.015 C 
ATOM     18  C   UNL     1       6.350   0.088  -3.708  0.00  0.00    +0.002 C 
ATOM     19  C   UNL     1       7.183   1.125  -2.949  0.00  0.00    +0.015 C 
ATOM     20  C   UNL     1       6.729   1.166  -1.488  0.00  0.00    +0.086 C 
ENDBRANCH  14  15
ENDBRANCH  10  14
TORSDOF 3
