REMARK  Name = ZINC21222203
REMARK  8 active torsions:
REMARK  status: ('A' for Active; 'I' for Inactive)
REMARK    1  A    between atoms: C_1  and  C_2
REMARK    2  A    between atoms: C_2  and  C_3
REMARK    3  A    between atoms: C_2  and  C_4
REMARK    4  A    between atoms: C_4  and  O_5
REMARK    5  A    between atoms: O_5  and  C_6
REMARK    6  A    between atoms: C_9  and  C_12
REMARK    7  A    between atoms: C_17  and  C_23
REMARK    8  A    between atoms: C_27  and  N_29
REMARK                            x       y       z     vdW  Elec       q    Type
REMARK                         _______ _______ _______ _____ _____    ______ ____
ROOT
ATOM      1  C   UNL     1      -2.382  -0.004  -0.693  0.00  0.00    +0.032 C 
ATOM      2  C   UNL     1      -1.282  -0.795   0.020  0.00  0.00    +0.059 C 
ATOM      3  C   UNL     1       0.002  -0.004   0.002  0.00  0.00    +0.018 C 
ATOM      4  C   UNL     1      -0.016   1.345   0.009  0.00  0.00    +0.020 C 
ATOM      5  C   UNL     1       1.283   2.116   0.001  0.00  0.00    +0.063 C 
ATOM      6  C   UNL     1       2.315   1.362  -0.841  0.00  0.00    +0.109 C 
ATOM      7  C   UNL     1       2.328  -0.086  -0.424  0.00  0.00    +0.218 C 
ATOM      8  O   UNL     1       3.364  -0.715  -0.455  0.00  0.00    -0.275 OA
ATOM      9  N   UNL     1       1.194  -0.683  -0.019  0.00  0.00    -0.289 N 
ATOM     10  C   UNL     1      -1.225   2.061   0.019  0.00  0.00    +0.162 C 
ATOM     11  O   UNL     1      -1.202   3.275   0.037  0.00  0.00    -0.292 OA
ATOM     12  C   UNL     1      -2.550   1.345   0.013  0.00  0.00    +0.088 C 
ATOM     13  H   UNL     1       1.233  -1.735   0.299  0.00  0.00    +0.155 HD
ENDROOT
BRANCH   1  17
ATOM     14  C   UNL     1      -6.056  -2.181  -0.518  0.00  0.00    +0.121 A 
ATOM     15  C   UNL     1      -5.494  -1.864  -1.746  0.00  0.00    +0.046 A 
ATOM     16  C   UNL     1      -4.306  -1.160  -1.800  0.00  0.00    +0.007 A 
ATOM     17  C   UNL     1      -3.678  -0.772  -0.631  0.00  0.00    -0.043 A 
ATOM     18  C   UNL     1      -4.233  -1.092   0.594  0.00  0.00    +0.007 A 
ATOM     19  C   UNL     1      -5.423  -1.790   0.653  0.00  0.00    +0.046 A 
BRANCH  14  20
ATOM     20  O   UNL     1      -7.223  -2.874  -0.462  0.00  0.00    -0.492 OA
BRANCH  20  21
ATOM     21  C   UNL     1      -7.743  -3.166   0.836  0.00  0.00    +0.232 C 
BRANCH  21  23
ATOM     22  C   UNL     1      -9.545  -4.366   2.084  0.00  0.00    +0.010 C 
ATOM     23  C   UNL     1      -9.053  -3.945   0.698  0.00  0.00    +0.020 C 
ATOM     24  C   UNL     1     -10.106  -3.059   0.030  0.00  0.00    +0.010 C 
ENDBRANCH  21  23
ENDBRANCH  20  21
ENDBRANCH  14  20
ENDBRANCH   1  17
BRANCH   5  25
ATOM     25  C   UNL     1       1.792   2.258   1.412  0.00  0.00    -0.037 A 
ATOM     26  C   UNL     1       2.071   1.131   2.163  0.00  0.00    +0.004 A 
ATOM     27  C   UNL     1       2.543   1.262   3.456  0.00  0.00    +0.003 A 
ATOM     28  C   UNL     1       2.725   2.519   4.002  0.00  0.00    +0.033 A 
ATOM     29  C   UNL     1       2.441   3.646   3.253  0.00  0.00    +0.126 A 
ATOM     30  C   UNL     1       1.974   3.515   1.958  0.00  0.00    +0.037 A 
BRANCH  29  31
ATOM     31  N   UNL     1       2.635   4.992   3.837  0.00  0.00    +0.056 N 
ATOM     32  O   UNL     1       2.385   5.984   3.177  0.00  0.00    -0.126 OA
ATOM     33  O   UNL     1       3.047   5.106   4.978  0.00  0.00    -0.126 OA
ENDBRANCH  29  31
ENDBRANCH   5  25
TORSDOF 6
