REMARK  Name = ZINC48865256
REMARK  4 active torsions:
REMARK  status: ('A' for Active; 'I' for Inactive)
REMARK    1  A    between atoms: C_3  and  N_11
REMARK    2  A    between atoms: C_6  and  N_7
REMARK    3  A    between atoms: C_15  and  C_17
REMARK    4  A    between atoms: C_17  and  O_18
REMARK                            x       y       z     vdW  Elec       q    Type
REMARK                         _______ _______ _______ _____ _____    ______ ____
ROOT
ATOM      1  C   UNL     1      -0.017   1.378   0.010  0.00  0.00    +0.034 A 
ATOM      2  C   UNL     1       1.169   2.087   0.002  0.00  0.00    +0.027 A 
ATOM      3  C   UNL     1       2.381   1.410  -0.013  0.00  0.00    +0.049 A 
ATOM      4  C   UNL     1       2.397   0.020  -0.021  0.00  0.00    +0.064 A 
ATOM      5  C   UNL     1       1.207  -0.683  -0.013  0.00  0.00    +0.054 A 
ATOM      6  C   UNL     1       0.002  -0.004   0.002  0.00  0.00    +0.128 A 
ATOM      7 CL   UNL     1       3.909  -0.832  -0.040  0.00  0.00    -0.082 Cl
ENDROOT
BRANCH   3   8
ATOM      8  N   UNL     1       3.582   2.124  -0.021  0.00  0.00    -0.324 N 
ATOM      9  C   UNL     1       4.306   2.575  -1.224  0.00  0.00    +0.105 C 
ATOM     10  C   UNL     1       5.778   2.731  -0.766  0.00  0.00    +0.021 C 
ATOM     11  C   UNL     1       5.599   3.282   0.673  0.00  0.00    +0.026 C 
ATOM     12  C   UNL     1       4.330   2.556   1.169  0.00  0.00    +0.099 C 
BRANCH  12  13
ATOM     13  C   UNL     1       3.474   3.511   2.003  0.00  0.00    +0.178 C 
BRANCH  13  14
ATOM     14  O   UNL     1       3.232   4.707   1.260  0.00  0.00    -0.393 OA
ATOM     15  H   UNL     1       2.694   5.359   1.729  0.00  0.00    +0.209 HD
ENDBRANCH  13  14
ENDBRANCH  12  13
ENDBRANCH   3   8
BRANCH   6  16
ATOM     16  N   UNL     1      -1.270  -0.760   0.011  0.00  0.00    +0.056 N 
ATOM     17  O   UNL     1      -2.325  -0.168   0.024  0.00  0.00    -0.126 OA
ATOM     18  O   UNL     1      -1.256  -1.969   0.004  0.00  0.00    -0.126 OA
ENDBRANCH   6  16
TORSDOF 4
