REMARK  Name = ZINC52710905
REMARK  6 active torsions:
REMARK  status: ('A' for Active; 'I' for Inactive)
REMARK    1  A    between atoms: C_1  and  C_2
REMARK    2  A    between atoms: C_2  and  C_3
REMARK    3  A    between atoms: C_2  and  N_4
REMARK    4  A    between atoms: C_5  and  S_9
REMARK    5  A    between atoms: S_9  and  C_10
REMARK    6  A    between atoms: C_10  and  C_11
REMARK                            x       y       z     vdW  Elec       q    Type
REMARK                         _______ _______ _______ _____ _____    ______ ____
ROOT
ATOM      1  C   UNL     1      -2.751  -3.546   4.006  0.00  0.00    +0.121 A 
ATOM      2  N   UNL     1      -2.970  -4.313   5.105  0.00  0.00    -0.310 N 
ATOM      3  H   UNL     1      -2.251  -4.444   5.743  0.00  0.00    +0.170 HD
ATOM      4  C   UNL     1      -4.163  -4.894   5.327  0.00  0.00    +0.260 A 
ATOM      5  O   UNL     1      -4.344  -5.579   6.319  0.00  0.00    -0.267 OA
ATOM      6  C   UNL     1      -5.218  -4.693   4.378  0.00  0.00    +0.075 A 
ATOM      7  C   UNL     1      -6.582  -5.221   4.410  0.00  0.00    -0.023 A 
ATOM      8  C   UNL     1      -7.394  -4.883   3.386  0.00  0.00    -0.004 A 
ATOM      9  S   UNL     1      -6.403  -3.857   2.334  0.00  0.00    -0.073 S 
ATOM     10  C   UNL     1      -4.898  -3.886   3.275  0.00  0.00    +0.116 A 
ATOM     11  N   UNL     1      -3.694  -3.340   3.126  0.00  0.00    -0.226 NA
ATOM     12  C   UNL     1      -8.821  -5.291   3.187  0.00  0.00    +0.043 C 
ATOM     13  C   UNL     1      -9.127  -6.461   4.132  0.00  0.00    +0.005 C 
ATOM     14  C   UNL     1      -8.614  -6.109   5.532  0.00  0.00    +0.005 C 
ATOM     15  C   UNL     1      -7.085  -6.114   5.541  0.00  0.00    +0.037 C 
ENDROOT
BRANCH   1  16
ATOM     16  C   UNL     1      -1.397  -2.916   3.800  0.00  0.00    +0.151 C 
BRANCH  16  17
ATOM     17  S   UNL     1      -1.406  -1.951   2.264  0.00  0.00    -0.077 S 
BRANCH  17  19
ATOM     18  N   UNL     1       0.711  -0.489   1.189  0.00  0.00    -0.218 N 
ATOM     19  C   UNL     1       0.223  -1.287   2.168  0.00  0.00    +0.210 A 
ATOM     20  N   UNL     1       1.195  -1.473   3.035  0.00  0.00    -0.101 NA
ATOM     21  N   UNL     1       2.254  -0.847   2.665  0.00  0.00    -0.022 NA
ATOM     22  N   UNL     1       2.044  -0.232   1.552  0.00  0.00    -0.043 NA
BRANCH  18  24
ATOM     23  C   UNL     1      -0.019   1.526   0.010  0.00  0.00    +0.032 C 
ATOM     24  C   UNL     1       0.002  -0.004   0.002  0.00  0.00    +0.106 C 
ATOM     25  C   UNL     1       0.718  -0.497  -1.257  0.00  0.00    +0.032 C 
ENDBRANCH  18  24
ENDBRANCH  17  19
ENDBRANCH  16  17
ENDBRANCH   1  16
TORSDOF 4
