REMARK  Name = ZINC38581728
REMARK  7 active torsions:
REMARK  status: ('A' for Active; 'I' for Inactive)
REMARK    1  A    between atoms: C_1  and  C_2
REMARK    2  A    between atoms: C_2  and  C_26
REMARK    3  A    between atoms: C_4  and  N_10
REMARK    4  A    between atoms: C_6  and  C_8
REMARK    5  A    between atoms: C_6  and  C_9
REMARK    6  A    between atoms: C_11  and  C_13
REMARK    7  A    between atoms: N_15  and  C_16
REMARK                            x       y       z     vdW  Elec       q    Type
REMARK                         _______ _______ _______ _____ _____    ______ ____
ROOT
ATOM      1  N   UNL     1       2.558  -0.751  -2.687  0.00  0.00    -0.305 N 
ATOM      2  C   UNL     1       3.740  -0.301  -3.154  0.00  0.00    +0.300 C 
ATOM      3  O   UNL     1       4.364   0.529  -2.527  0.00  0.00    -0.265 OA
ATOM      4  H   UNL     1       2.059  -1.415  -3.188  0.00  0.00    +0.149 HD
ENDROOT
BRANCH   1   8
ATOM      5  C   UNL     1      -0.037   1.647  -0.058  0.00  0.00    -0.010 C 
ATOM      6  C   UNL     1      -0.073   0.116  -0.093  0.00  0.00    -0.072 C 
ATOM      7  C   UNL     1       0.505  -0.383  -1.413  0.00  0.00    +0.009 C 
ATOM      8  C   UNL     1       2.026  -0.236  -1.419  0.00  0.00    +0.071 C 
ATOM      9  C   UNL     1       2.589  -1.063  -0.263  0.00  0.00    +0.009 C 
ATOM     10  C   UNL     1       2.028  -0.569   1.066  0.00  0.00    -0.072 C 
ATOM     11  N   UNL     1       0.580  -0.455   1.072  0.00  0.00    +0.386 N 
ATOM     12  C   UNL     1       2.693   0.756   1.450  0.00  0.00    -0.010 C 
ATOM     13  C   UNL     1       2.422  -1.603   2.147  0.00  0.00    -0.010 C 
ATOM     14  C   UNL     1      -1.560  -0.304  -0.052  0.00  0.00    -0.010 C 
ATOM     15  H   UNL     1       0.304   0.092   1.894  0.00  0.00    -0.084 HD
ATOM     16  H   UNL     1       0.186  -1.387   1.236  0.00  0.00    -0.084 HD
ENDBRANCH   1   8
BRANCH   2  17
ATOM     17  C   UNL     1       4.280  -0.826  -4.444  0.00  0.00    +0.303 C 
ATOM     18  O   UNL     1       3.656  -1.657  -5.071  0.00  0.00    -0.265 OA
ATOM     19  N   UNL     1       5.462  -0.376  -4.912  0.00  0.00    -0.278 N 
ATOM     20  H   UNL     1       5.926   0.339  -4.449  0.00  0.00    +0.155 HD
BRANCH  19  21
ATOM     21  C   UNL     1       6.018  -0.940  -6.063  0.00  0.00    +0.032 C 
ATOM     22  C   UNL     1       7.249  -1.478  -5.987  0.00  0.00    +0.027 C 
ATOM     23  C   UNL     1       7.877  -2.037  -7.229  0.00  0.00    +0.160 C 
ATOM     24  C   UNL     1       6.757  -2.488  -8.148  0.00  0.00    -0.018 C 
ATOM     25  C   UNL     1       7.087  -3.733  -8.533  0.00  0.00    +0.025 C 
ATOM     26  C   UNL     1       8.224  -4.160  -7.810  0.00  0.00    +0.106 C 
ATOM     27  N   UNL     1       8.688  -3.228  -7.024  0.00  0.00    -0.279 NA
ATOM     28  C   UNL     1       5.590  -1.724  -8.347  0.00  0.00    +0.008 C 
ATOM     29  C   UNL     1       5.233  -0.926  -7.300  0.00  0.00    +0.023 C 
ENDBRANCH  19  21
ENDBRANCH   2  17
TORSDOF 3
