REMARK  Name = ZINC38670192
REMARK  10 active torsions:
REMARK  status: ('A' for Active; 'I' for Inactive)
REMARK    1  A    between atoms: C_1  and  N_2
REMARK    2  A    between atoms: C_10  and  C_12
REMARK    3  A    between atoms: C_12  and  C_14
REMARK    4  A    between atoms: C_12  and  N_28
REMARK    5  A    between atoms: C_14  and  N_15
REMARK    6  A    between atoms: C_16  and  C_18
REMARK    7  A    between atoms: C_18  and  C_19
REMARK    8  A    between atoms: C_22  and  N_25
REMARK    9  A    between atoms: N_28  and  C_29
REMARK   10  A    between atoms: N_28  and  C_30
REMARK                            x       y       z     vdW  Elec       q    Type
REMARK                         _______ _______ _______ _____ _____    ______ ____
ROOT
ATOM      1  C   UNL     1       4.767  -2.810  -0.698  0.00  0.00    -0.021 C 
ENDROOT
BRANCH   1  11
ATOM      2  C   UNL     1       0.361   1.627   1.167  0.00  0.00    +0.129 C 
ATOM      3  N   UNL     1       0.199   0.248   0.697  0.00  0.00    -0.333 N 
ATOM      4  C   UNL     1      -1.139  -0.347   0.577  0.00  0.00    +0.105 C 
ATOM      5  C   UNL     1      -1.078  -1.761   1.169  0.00  0.00    +0.024 C 
ATOM      6  C   UNL     1      -0.112  -2.604   0.336  0.00  0.00    +0.038 C 
ATOM      7  C   UNL     1       1.206  -1.893   0.177  0.00  0.00    -0.026 A 
ATOM      8  C   UNL     1       1.315  -0.520   0.350  0.00  0.00    +0.033 A 
ATOM      9  C   UNL     1       2.545   0.107   0.185  0.00  0.00    +0.023 A 
ATOM     10  C   UNL     1       3.659  -0.634  -0.154  0.00  0.00    +0.004 A 
ATOM     11  C   UNL     1       3.551  -2.001  -0.329  0.00  0.00    -0.059 A 
ATOM     12  C   UNL     1       2.329  -2.631  -0.157  0.00  0.00    +0.007 A 
ENDBRANCH   1  11
BRANCH   1  13
ATOM     13  N   UNL     1       5.573  -2.066  -1.675  0.00  0.00    +0.382 N 
ATOM     14  C   UNL     1       6.813  -2.804  -1.951  0.00  0.00    -0.096 C 
ATOM     15  C   UNL     1       4.810  -1.907  -2.920  0.00  0.00    -0.096 C 
ATOM     16  H   UNL     1       5.799  -1.156  -1.301  0.00  0.00    -0.082 HD
ENDBRANCH   1  13
BRANCH   1  17
ATOM     17  C   UNL     1       5.603  -3.075   0.556  0.00  0.00    +0.093 C 
BRANCH  17  18
ATOM     18  N   UNL     1       4.829  -3.892   1.495  0.00  0.00    -0.316 N 
ATOM     19  C   UNL     1       5.388  -4.303   2.650  0.00  0.00    +0.217 C 
ATOM     20  O   UNL     1       6.532  -3.997   2.913  0.00  0.00    -0.275 OA
ATOM     21  H   UNL     1       3.914  -4.136   1.285  0.00  0.00    +0.149 HD
BRANCH  19  22
ATOM     22  C   UNL     1       4.592  -5.143   3.615  0.00  0.00    +0.130 C 
BRANCH  22  23
ATOM     23  C   UNL     1       5.441  -5.466   4.818  0.00  0.00    -0.038 A 
ATOM     24  C   UNL     1       6.224  -6.605   4.825  0.00  0.00    +0.006 A 
ATOM     25  C   UNL     1       7.003  -6.902   5.928  0.00  0.00    +0.033 A 
ATOM     26  C   UNL     1       6.998  -6.059   7.024  0.00  0.00    +0.126 A 
ATOM     27  C   UNL     1       6.215  -4.920   7.017  0.00  0.00    +0.033 A 
ATOM     28  C   UNL     1       5.440  -4.621   5.912  0.00  0.00    +0.006 A 
BRANCH  26  29
ATOM     29  N   UNL     1       7.831  -6.377   8.205  0.00  0.00    +0.056 N 
ATOM     30  O   UNL     1       8.516  -7.374   8.212  0.00  0.00    -0.126 OA
ATOM     31  O   UNL     1       7.827  -5.641   9.164  0.00  0.00    -0.126 OA
ENDBRANCH  26  29
ENDBRANCH  22  23
ENDBRANCH  19  22
ENDBRANCH  17  18
ENDBRANCH   1  17
TORSDOF 7
