REMARK  Name = ZINC66673883
REMARK  10 active torsions:
REMARK  status: ('A' for Active; 'I' for Inactive)
REMARK    1  A    between atoms: C_1  and  C_2
REMARK    2  A    between atoms: C_2  and  N_3
REMARK    3  A    between atoms: N_6  and  C_7
REMARK    4  A    between atoms: C_7  and  C_12
REMARK    5  A    between atoms: N_14  and  C_15
REMARK    6  A    between atoms: C_15  and  C_17
REMARK    7  A    between atoms: C_15  and  C_18
REMARK    8  A    between atoms: C_21  and  S_24
REMARK    9  A    between atoms: S_24  and  N_27
REMARK   10  A    between atoms: N_27  and  C_28
REMARK                            x       y       z     vdW  Elec       q    Type
REMARK                         _______ _______ _______ _____ _____    ______ ____
ROOT
ATOM      1  C   UNL     1       2.306  -4.308  -1.490  0.00  0.00    +0.237 C 
ATOM      2  O   UNL     1       3.150  -5.162  -1.665  0.00  0.00    -0.273 OA
ATOM      3  N   UNL     1       1.960  -3.949  -0.238  0.00  0.00    -0.307 N 
ATOM      4  H   UNL     1       1.339  -3.217  -0.098  0.00  0.00    +0.149 HD
ENDROOT
BRANCH   1   5
ATOM      5  C   UNL     1       1.645  -3.649  -2.673  0.00  0.00    +0.112 C 
ATOM      6  C   UNL     1       1.756  -4.556  -3.916  0.00  0.00    +0.035 C 
ATOM      7  C   UNL     1       1.978  -3.569  -5.088  0.00  0.00    +0.003 C 
ATOM      8  C   UNL     1       2.900  -2.494  -4.461  0.00  0.00    +0.003 C 
ATOM      9  C   UNL     1       2.373  -2.338  -3.020  0.00  0.00    +0.035 C 
BRANCH   5  13
ATOM     10  N   UNL     1      -1.838  -4.111  -1.597  0.00  0.00    -0.300 N 
ATOM     11  C   UNL     1      -0.571  -4.378  -1.969  0.00  0.00    +0.300 C 
ATOM     12  O   UNL     1      -0.156  -5.520  -1.941  0.00  0.00    -0.253 OA
ATOM     13  N   UNL     1       0.237  -3.377  -2.374  0.00  0.00    -0.285 N 
ATOM     14  H   UNL     1      -2.169  -3.200  -1.620  0.00  0.00    +0.150 HD
ATOM     15  H   UNL     1      -0.114  -2.478  -2.467  0.00  0.00    +0.151 HD
BRANCH  10  17
ATOM     16  C   UNL     1      -4.089  -4.630  -0.793  0.00  0.00    +0.024 C 
ATOM     17  C   UNL     1      -2.716  -5.199  -1.157  0.00  0.00    +0.102 C 
ENDBRANCH  10  17
ENDBRANCH   5  13
ENDBRANCH   1   5
BRANCH   3  18
ATOM     18  C   UNL     1       2.520  -4.666   0.911  0.00  0.00    +0.100 C 
ATOM     19  C   UNL     1       3.880  -4.065   1.272  0.00  0.00    +0.033 C 
BRANCH  18  20
ATOM     20  C   UNL     1       1.586  -4.538   2.086  0.00  0.00    -0.027 A 
ATOM     21  C   UNL     1       0.946  -3.338   2.333  0.00  0.00    +0.007 A 
ATOM     22  C   UNL     1       0.089  -3.221   3.412  0.00  0.00    +0.029 A 
ATOM     23  C   UNL     1      -0.128  -4.304   4.243  0.00  0.00    +0.105 A 
ATOM     24  C   UNL     1       0.511  -5.504   3.995  0.00  0.00    +0.029 A 
ATOM     25  C   UNL     1       1.365  -5.623   2.914  0.00  0.00    +0.007 A 
BRANCH  23  26
ATOM     26  S   UNL     1      -1.220  -4.154   5.618  0.00  0.00    +0.058 S 
ATOM     27  O   UNL     1      -0.830  -5.149   6.556  0.00  0.00    -0.153 OA
ATOM     28  O   UNL     1      -1.269  -2.773   5.949  0.00  0.00    -0.153 OA
BRANCH  26  29
ATOM     29  N   UNL     1      -2.733  -4.569   5.090  0.00  0.00    -0.193 NA
ATOM     30  C   UNL     1      -3.004  -5.939   4.645  0.00  0.00    +0.127 C 
ATOM     31  H   UNL     1      -3.441  -3.905   5.074  0.00  0.00    +0.148 HD
ENDBRANCH  26  29
ENDBRANCH  23  26
ENDBRANCH  18  20
ENDBRANCH   3  18
TORSDOF 7
