REMARK  Name = ZINC19984043
REMARK  7 active torsions:
REMARK  status: ('A' for Active; 'I' for Inactive)
REMARK    1  A    between atoms: C_1  and  C_2
REMARK    2  A    between atoms: C_5  and  N_8
REMARK    3  A    between atoms: C_9  and  C_11
REMARK    4  A    between atoms: C_11  and  C_13
REMARK    5  A    between atoms: C_11  and  N_14
REMARK    6  A    between atoms: C_17  and  C_27
REMARK    7  A    between atoms: C_22  and  C_26
REMARK                            x       y       z     vdW  Elec       q    Type
REMARK                         _______ _______ _______ _____ _____    ______ ____
ROOT
ATOM      1  C   UNL     1       2.425  -4.236  -0.258  0.00  0.00    +0.164 C 
ATOM      2  C   UNL     1       1.643  -4.655  -1.504  0.00  0.00    +0.038 C 
ENDROOT
BRANCH   1   3
ATOM      3  N   UNL     1       3.809  -4.703  -0.371  0.00  0.00    -0.253 N 
ATOM      4  C   UNL     1       4.343  -5.583   0.580  0.00  0.00    +0.079 A 
ATOM      5  C   UNL     1       3.515  -6.276   1.448  0.00  0.00    +0.030 A 
ATOM      6  C   UNL     1       4.063  -7.139   2.380  0.00  0.00    -0.048 A 
ATOM      7  C   UNL     1       5.433  -7.312   2.446  0.00  0.00    +0.007 A 
ATOM      8  C   UNL     1       6.266  -6.623   1.583  0.00  0.00    +0.048 A 
ATOM      9  C   UNL     1       5.725  -5.758   0.647  0.00  0.00    +0.143 A 
ATOM     10  O   UNL     1       6.528  -5.074  -0.211  0.00  0.00    -0.478 OA
ATOM     11  C   UNL     1       6.000  -4.811  -1.514  0.00  0.00    +0.256 C 
ATOM     12  C   UNL     1       4.589  -4.295  -1.396  0.00  0.00    +0.261 C 
ATOM     13  O   UNL     1       4.156  -3.514  -2.217  0.00  0.00    -0.271 OA
ATOM     14  C   UNL     1       5.998  -6.104  -2.333  0.00  0.00    +0.062 C 
ATOM     15  C   UNL     1       3.163  -7.893   3.324  0.00  0.00    +0.044 C 
ENDBRANCH   1   3
BRANCH   1  17
ATOM     16  N   UNL     1       1.237  -2.079  -0.020  0.00  0.00    -0.284 N 
ATOM     17  C   UNL     1       2.410  -2.734  -0.137  0.00  0.00    +0.238 C 
ATOM     18  O   UNL     1       3.452  -2.114  -0.144  0.00  0.00    -0.273 OA
ATOM     19  H   UNL     1       0.297  -2.645   0.063  0.00  0.00    +0.155 HD
BRANCH  16  24
ATOM     20  C   UNL     1       1.149   3.593   0.041  0.00  0.00    +0.044 C 
ATOM     21  C   UNL     1       1.172   2.086   0.025  0.00  0.00    -0.050 A 
ATOM     22  C   UNL     1       0.142   1.386  -0.577  0.00  0.00    +0.005 A 
ATOM     23  C   UNL     1       0.161   0.005  -0.594  0.00  0.00    +0.023 A 
ATOM     24  C   UNL     1       1.216  -0.680  -0.005  0.00  0.00    +0.033 A 
ATOM     25  C   UNL     1       2.248   0.025   0.598  0.00  0.00    +0.023 A 
ATOM     26  C   UNL     1       2.224   1.406   0.612  0.00  0.00    +0.005 A 
ENDBRANCH  16  24
ENDBRANCH   1  17
TORSDOF 3
