REMARK  Name = ZINC22838627
REMARK  7 active torsions:
REMARK  status: ('A' for Active; 'I' for Inactive)
REMARK    1  A    between atoms: C_1  and  C_2
REMARK    2  A    between atoms: C_11  and  N_22
REMARK    3  A    between atoms: C_13  and  S_15
REMARK    4  A    between atoms: S_15  and  C_16
REMARK    5  A    between atoms: C_16  and  C_18
REMARK    6  A    between atoms: C_16  and  C_19
REMARK    7  A    between atoms: C_19  and  C_21
REMARK                            x       y       z     vdW  Elec       q    Type
REMARK                         _______ _______ _______ _____ _____    ______ ____
ROOT
ATOM      1  C   UNL     1      -2.073  -6.455  10.287  0.00  0.00    +0.008 C 
ATOM      2  C   UNL     1      -1.826  -5.432   9.176  0.00  0.00    -0.009 C 
ATOM      3  C   UNL     1      -2.824  -5.660   8.037  0.00  0.00    +0.008 C 
ATOM      4  C   UNL     1      -2.432  -4.813   6.826  0.00  0.00    +0.037 C 
ATOM      5  C   UNL     1      -2.259  -3.364   7.272  0.00  0.00    -0.025 A 
ATOM      6  C   UNL     1      -2.082  -3.060   8.573  0.00  0.00    -0.004 A 
ATOM      7  S   UNL     1      -1.929  -1.295   8.620  0.00  0.00    -0.073 S 
ATOM      8  C   UNL     1      -2.104  -0.965   6.886  0.00  0.00    +0.115 A 
ATOM      9  C   UNL     1      -2.277  -2.246   6.325  0.00  0.00    +0.051 A 
ATOM     10  C   UNL     1      -2.446  -2.280   4.913  0.00  0.00    +0.129 A 
ATOM     11  N   UNL     1      -2.430  -1.146   4.233  0.00  0.00    -0.207 NA
ATOM     12  C   UNL     1      -2.262   0.030   4.825  0.00  0.00    +0.192 A 
ATOM     13  N   UNL     1      -2.094   0.121   6.138  0.00  0.00    -0.214 NA
ATOM     14  C   UNL     1      -2.025  -4.013   9.728  0.00  0.00    +0.046 C 
ENDROOT
BRANCH  10  15
ATOM     15  N   UNL     1      -2.625  -3.485   4.258  0.00  0.00    -0.343 N 
ATOM     16  H   UNL     1      -2.755  -3.504   3.166  0.00  0.00    +0.144 HD
ATOM     17  H   UNL     1      -2.637  -4.425   4.830  0.00  0.00    +0.144 HD
ENDBRANCH  10  15
BRANCH  12  18
ATOM     18  S   UNL     1      -2.252   1.497   3.849  0.00  0.00    -0.075 S 
BRANCH  18  19
ATOM     19  C   UNL     1      -2.505   0.782   2.205  0.00  0.00    +0.117 C 
ATOM     20  C   UNL     1      -3.889   0.132   2.139  0.00  0.00    +0.027 C 
BRANCH  19  21
ATOM     21  C   UNL     1      -2.410   1.868   1.165  0.00  0.00    +0.143 C 
ATOM     22  O   UNL     1      -2.645   3.014   1.465  0.00  0.00    -0.297 OA
ATOM     23  C   UNL     1      -2.022   1.524  -0.250  0.00  0.00    +0.087 C 
ENDBRANCH  19  21
ENDBRANCH  18  19
ENDBRANCH  12  18
TORSDOF 4
