REMARK  Name = ZINC49980444
REMARK  5 active torsions:
REMARK  status: ('A' for Active; 'I' for Inactive)
REMARK    1  A    between atoms: C_4  and  O_26
REMARK    2  A    between atoms: C_5  and  N_7
REMARK    3  A    between atoms: N_10  and  C_13
REMARK    4  A    between atoms: C_16  and  N_23
REMARK    5  A    between atoms: C_18  and  C_19
REMARK                            x       y       z     vdW  Elec       q    Type
REMARK                         _______ _______ _______ _____ _____    ______ ____
ROOT
ATOM      1  N   UNL     1       1.178  -2.094  -0.563  0.00  0.00    -0.324 N 
ATOM      2  C   UNL     1       1.372  -2.752   0.736  0.00  0.00    +0.124 C 
ATOM      3  C   UNL     1       0.213  -3.730   0.968  0.00  0.00    +0.124 C 
ATOM      4  N   UNL     1       0.054  -4.564  -0.232  0.00  0.00    -0.326 N 
ATOM      5  C   UNL     1      -0.139  -3.905  -1.531  0.00  0.00    +0.124 C 
ATOM      6  C   UNL     1       1.014  -2.928  -1.762  0.00  0.00    +0.124 C 
ENDROOT
BRANCH   1  11
ATOM      7  C   UNL     1      -0.091   1.358  -0.622  0.00  0.00    +0.002 A 
ATOM      8  C   UNL     1       1.077   2.065  -0.842  0.00  0.00    +0.004 A 
ATOM      9  C   UNL     1       2.281   1.397  -0.970  0.00  0.00    +0.047 A 
ATOM     10  C   UNL     1       2.320   0.016  -0.878  0.00  0.00    +0.138 A 
ATOM     11  C   UNL     1       1.144  -0.698  -0.656  0.00  0.00    +0.072 A 
ATOM     12  C   UNL     1      -0.060  -0.021  -0.529  0.00  0.00    +0.027 A 
BRANCH  10  13
ATOM     13  O   UNL     1       3.504  -0.642  -1.004  0.00  0.00    -0.505 OA
ATOM     14  H   UNL     1       3.973  -0.771  -0.169  0.00  0.00    +0.292 HD
ENDBRANCH  10  13
ENDBRANCH   1  11
BRANCH   4  15
ATOM     15  C   UNL     1       0.088  -5.957  -0.139  0.00  0.00    +0.042 A 
ATOM     16  C   UNL     1       1.296  -6.633  -0.253  0.00  0.00    +0.026 A 
ATOM     17  C   UNL     1       1.326  -8.011  -0.160  0.00  0.00    +0.034 A 
ATOM     18  C   UNL     1       0.154  -8.717   0.047  0.00  0.00    +0.127 A 
ATOM     19  C   UNL     1      -1.049  -8.047   0.161  0.00  0.00    +0.047 A 
ATOM     20  C   UNL     1      -1.085  -6.669   0.075  0.00  0.00    +0.078 A 
BRANCH  20  21
ATOM     21  C   UNL     1      -2.397  -5.939   0.205  0.00  0.00    +0.419 C 
ATOM     22  F   UNL     1      -3.426  -6.863   0.417  0.00  0.00    -0.166 F 
ATOM     23  F   UNL     1      -2.333  -5.055   1.288  0.00  0.00    -0.166 F 
ATOM     24  F   UNL     1      -2.650  -5.220  -0.968  0.00  0.00    -0.166 F 
ENDBRANCH  20  21
BRANCH  18  25
ATOM     25  N   UNL     1       0.190 -10.193   0.146  0.00  0.00    +0.056 N 
ATOM     26  O   UNL     1       1.242 -10.780   0.046  0.00  0.00    -0.126 OA
ATOM     27  O   UNL     1      -0.833 -10.812   0.327  0.00  0.00    -0.126 OA
ENDBRANCH  18  25
ENDBRANCH   4  15
TORSDOF 5
