REMARK  Name = ZINC48734764
REMARK  7 active torsions:
REMARK  status: ('A' for Active; 'I' for Inactive)
REMARK    1  A    between atoms: C_1  and  C_2
REMARK    2  A    between atoms: C_5  and  N_25
REMARK    3  A    between atoms: C_7  and  N_8
REMARK    4  A    between atoms: C_9  and  C_11
REMARK    5  A    between atoms: N_13  and  C_14
REMARK    6  A    between atoms: C_14  and  C_16
REMARK    7  A    between atoms: C_14  and  C_17
REMARK                            x       y       z     vdW  Elec       q    Type
REMARK                         _______ _______ _______ _____ _____    ______ ____
ROOT
ATOM      1  N   UNL     1       0.058   0.021   2.418  0.00  0.00    -0.277 N 
ATOM      2  C   UNL     1      -0.021  -0.668   3.574  0.00  0.00    +0.303 C 
ATOM      3  O   UNL     1       0.014  -1.881   3.561  0.00  0.00    -0.265 OA
ATOM      4  H   UNL     1       0.091   0.990   2.432  0.00  0.00    +0.155 HD
ENDROOT
BRANCH   1  11
ATOM      5  C   UNL     1      -1.231   1.210   0.177  0.00  0.00    +0.045 C 
ATOM      6  C   UNL     1      -0.524  -0.118   0.079  0.00  0.00    -0.029 A 
ATOM      7  C   UNL     1      -0.484  -0.792  -1.125  0.00  0.00    +0.007 A 
ATOM      8  C   UNL     1       0.164  -2.010  -1.216  0.00  0.00    +0.033 A 
ATOM      9  C   UNL     1       0.773  -2.558  -0.101  0.00  0.00    +0.128 A 
ATOM     10  C   UNL     1       0.737  -1.889   1.106  0.00  0.00    +0.056 A 
ATOM     11  C   UNL     1       0.092  -0.662   1.199  0.00  0.00    +0.039 A 
BRANCH   9  12
ATOM     12  N   UNL     1       1.466  -3.862  -0.203  0.00  0.00    +0.056 N 
ATOM     13  O   UNL     1       1.498  -4.449  -1.260  0.00  0.00    -0.126 OA
ATOM     14  O   UNL     1       1.999  -4.341   0.771  0.00  0.00    -0.126 OA
ENDBRANCH   9  12
ENDBRANCH   1  11
BRANCH   2  15
ATOM     15  C   UNL     1      -0.150   0.062   4.870  0.00  0.00    +0.300 C 
ATOM     16  O   UNL     1      -0.185   1.275   4.883  0.00  0.00    -0.265 OA
ATOM     17  N   UNL     1      -0.229  -0.626   6.026  0.00  0.00    -0.301 N 
ATOM     18  H   UNL     1      -0.201  -1.596   6.016  0.00  0.00    +0.150 HD
BRANCH  17  19
ATOM     19  C   UNL     1      -0.356   0.090   7.298  0.00  0.00    +0.102 C 
ATOM     20  C   UNL     1      -1.837   0.304   7.617  0.00  0.00    +0.033 C 
BRANCH  19  21
ATOM     21  C   UNL     1       0.281  -0.721   8.397  0.00  0.00    -0.009 A 
ATOM     22  C   UNL     1       0.377  -2.095   8.276  0.00  0.00    +0.008 A 
ATOM     23  C   UNL     1       0.962  -2.839   9.283  0.00  0.00    +0.020 A 
ATOM     24  C   UNL     1       1.452  -2.209  10.413  0.00  0.00    +0.042 A 
ATOM     25  C   UNL     1       1.357  -0.834  10.535  0.00  0.00    +0.040 A 
ATOM     26  C   UNL     1       0.776  -0.089   9.524  0.00  0.00    +0.047 A 
ATOM     27 CL   UNL     1       0.661   1.636   9.674  0.00  0.00    -0.083 Cl
ATOM     28 CL   UNL     1       2.186  -3.144  11.679  0.00  0.00    -0.083 Cl
ENDBRANCH  19  21
ENDBRANCH  17  19
ENDBRANCH   2  15
TORSDOF 5
