REMARK  Name = ZINC14033606
REMARK  5 active torsions:
REMARK  status: ('A' for Active; 'I' for Inactive)
REMARK    1  A    between atoms: C_1  and  C_2
REMARK    2  A    between atoms: C_2  and  C_3
REMARK    3  A    between atoms: C_2  and  C_4
REMARK    4  A    between atoms: C_13  and  C_15
REMARK    5  A    between atoms: C_15  and  C_16
REMARK                            x       y       z     vdW  Elec       q    Type
REMARK                         _______ _______ _______ _____ _____    ______ ____
ROOT
ATOM      1  C   UNL     1      -4.405   3.427   3.792  0.00  0.00    +0.052 A 
ATOM      2  C   UNL     1      -4.034   2.370   3.012  0.00  0.00    +0.094 A 
ATOM      3  C   UNL     1      -3.429   2.607   1.774  0.00  0.00    +0.255 A 
ATOM      4  O   UNL     1      -3.093   1.669   1.071  0.00  0.00    -0.268 OA
ATOM      5  N   UNL     1      -3.210   3.896   1.352  0.00  0.00    -0.283 N 
ATOM      6  C   UNL     1      -3.612   4.889   2.187  0.00  0.00    +0.172 A 
ATOM      7  N   UNL     1      -4.181   4.662   3.352  0.00  0.00    -0.228 NA
ATOM      8  S   UNL     1      -3.210   6.427   1.385  0.00  0.00    -0.086 S 
ATOM      9  C   UNL     1      -2.465   5.772  -0.154  0.00  0.00    +0.103 C 
ATOM     10  C   UNL     1      -2.590   4.259   0.079  0.00  0.00    +0.112 C 
ENDROOT
BRANCH   1  12
ATOM     11  C   UNL     1      -4.202   3.825   6.231  0.00  0.00    +0.014 C 
ATOM     12  C   UNL     1      -5.059   3.198   5.130  0.00  0.00    +0.032 C 
ATOM     13  C   UNL     1      -6.447   3.842   5.136  0.00  0.00    +0.014 C 
ENDBRANCH   1  12
BRANCH  10  14
ATOM     14  C   UNL     1      -1.191   3.643   0.028  0.00  0.00    +0.122 C 
BRANCH  14  15
ATOM     15  C   UNL     1      -0.632   3.780  -1.365  0.00  0.00    +0.218 C 
ATOM     16  O   UNL     1      -1.326   4.223  -2.256  0.00  0.00    -0.276 OA
ATOM     17  N   UNL     1       0.638   3.410  -1.622  0.00  0.00    -0.301 N 
ATOM     18  C   UNL     1       1.493   2.878  -0.552  0.00  0.00    +0.108 C 
ATOM     19  C   UNL     1       2.067   1.531  -1.004  0.00  0.00    +0.019 C 
ATOM     20  C   UNL     1       2.779   1.709  -2.346  0.00  0.00    +0.003 C 
ATOM     21  C   UNL     1       1.774   2.184  -3.399  0.00  0.00    +0.019 C 
ATOM     22  C   UNL     1       1.197   3.538  -2.974  0.00  0.00    +0.108 C 
ENDBRANCH  14  15
ENDBRANCH  10  14
TORSDOF 3
