REMARK  Name = ZINC67571219
REMARK  3 active torsions:
REMARK  status: ('A' for Active; 'I' for Inactive)
REMARK    1  A    between atoms: C_4  and  N_7
REMARK    2  A    between atoms: C_13  and  C_15
REMARK    3  A    between atoms: C_21  and  C_24
REMARK                            x       y       z     vdW  Elec       q    Type
REMARK                         _______ _______ _______ _____ _____    ______ ____
ROOT
ATOM      1  N   UNL     1       3.620  -0.673  -0.205  0.00  0.00    -0.238 N 
ATOM      2  C   UNL     1       3.788  -1.988   0.089  0.00  0.00    +0.116 A 
ATOM      3  C   UNL     1       5.116  -2.238   0.116  0.00  0.00    +0.065 A 
ATOM      4  C   UNL     1       5.788  -1.038  -0.171  0.00  0.00    +0.148 A 
ATOM      5  N   UNL     1       4.889  -0.102  -0.369  0.00  0.00    -0.151 NA
ATOM      6  N   UNL     1       7.175  -0.870  -0.239  0.00  0.00    -0.261 N 
ATOM      7  C   UNL     1       7.992  -1.919  -0.019  0.00  0.00    +0.304 C 
ATOM      8  O   UNL     1       7.524  -3.009   0.238  0.00  0.00    -0.265 OA
ATOM      9  H   UNL     1       7.548   0.001  -0.445  0.00  0.00    +0.157 HD
ENDROOT
BRANCH   7  10
ATOM     10  C   UNL     1       9.473  -1.740  -0.092  0.00  0.00    +0.302 C 
ATOM     11  O   UNL     1       9.944  -0.630  -0.229  0.00  0.00    -0.265 OA
ATOM     12  N   UNL     1      10.286  -2.811  -0.006  0.00  0.00    -0.289 N 
ATOM     13  C   UNL     1       9.742  -4.179  -0.019  0.00  0.00    +0.136 C 
ATOM     14  C   UNL     1      10.505  -4.993  -1.070  0.00  0.00    +0.179 C 
ATOM     15  O   UNL     1      11.910  -4.871  -0.831  0.00  0.00    -0.369 OA
ATOM     16  C   UNL     1      12.410  -3.538  -0.955  0.00  0.00    +0.166 C 
ATOM     17  C   UNL     1      11.745  -2.649   0.096  0.00  0.00    +0.144 C 
BRANCH  16  18
ATOM     18  C   UNL     1      13.903  -3.539  -0.745  0.00  0.00    -0.015 A 
ATOM     19  C   UNL     1      14.473  -4.417   0.158  0.00  0.00    +0.006 A 
ATOM     20  C   UNL     1      15.841  -4.419   0.352  0.00  0.00    +0.003 A 
ATOM     21  C   UNL     1      16.642  -3.543  -0.358  0.00  0.00    +0.038 A 
ATOM     22  C   UNL     1      16.072  -2.664  -1.263  0.00  0.00    +0.124 A 
ATOM     23  C   UNL     1      14.701  -2.667  -1.460  0.00  0.00    +0.044 A 
ATOM     24  F   UNL     1      16.853  -1.808  -1.957  0.00  0.00    -0.205 F 
ENDBRANCH  16  18
ENDBRANCH   7  10
BRANCH   1  28
ATOM     25  C   UNL     1      -0.027   1.310  -0.574  0.00  0.00    +0.000 A 
ATOM     26  C   UNL     1       1.156   2.001  -0.762  0.00  0.00    +0.002 A 
ATOM     27  C   UNL     1       2.366   1.347  -0.641  0.00  0.00    +0.028 A 
ATOM     28  C   UNL     1       2.394  -0.006  -0.329  0.00  0.00    +0.065 A 
ATOM     29  C   UNL     1       1.204  -0.697  -0.140  0.00  0.00    +0.028 A 
ATOM     30  C   UNL     1      -0.003  -0.037  -0.264  0.00  0.00    +0.002 A 
ENDBRANCH   1  28
TORSDOF 3
