REMARK  Name = ZINC63139204
REMARK  7 active torsions:
REMARK  status: ('A' for Active; 'I' for Inactive)
REMARK    1  A    between atoms: C_1  and  O_2
REMARK    2  A    between atoms: O_2  and  C_3
REMARK    3  A    between atoms: C_6  and  C_9
REMARK    4  A    between atoms: C_9  and  N_10
REMARK    5  A    between atoms: C_30  and  C_32
REMARK    6  A    between atoms: C_32  and  C_33
REMARK    7  A    between atoms: C_33  and  C_34
REMARK                            x       y       z     vdW  Elec       q    Type
REMARK                         _______ _______ _______ _____ _____    ______ ____
ROOT
ATOM      1  N   UNL     1       1.933  -2.914   5.630  0.00  0.00    -0.287 N 
ATOM      2  C   UNL     1       1.552  -1.804   6.487  0.00  0.00    +0.204 C 
ATOM      3  C   UNL     1       0.537  -2.201   7.507  0.00  0.00    +0.234 C 
ATOM      4  O   UNL     1       0.150  -1.348   8.278  0.00  0.00    -0.274 OA
ATOM      5  N   UNL     1       0.024  -3.430   7.631  0.00  0.00    -0.283 N 
ATOM      6  C   UNL     1       0.397  -4.533   6.752  0.00  0.00    +0.167 C 
ATOM      7  C   UNL     1       1.418  -4.138   5.736  0.00  0.00    +0.237 C 
ATOM      8  O   UNL     1       1.805  -4.986   4.961  0.00  0.00    -0.274 OA
ATOM      9  C   UNL     1      -0.852  -5.082   6.039  0.00  0.00    +0.065 C 
ATOM     10  C   UNL     1      -1.919  -5.233   7.095  0.00  0.00    -0.034 C 
ATOM     11  C   UNL     1      -2.696  -6.258   7.420  0.00  0.00    -0.001 A 
ATOM     12  C   UNL     1      -2.884  -7.581   6.803  0.00  0.00    +0.010 A 
ATOM     13  C   UNL     1      -3.764  -8.412   7.422  0.00  0.00    +0.001 A 
ATOM     14  C   UNL     1      -4.468  -8.063   8.579  0.00  0.00    +0.002 A 
ATOM     15  C   UNL     1      -4.364  -6.865   9.208  0.00  0.00    +0.026 A 
ATOM     16  C   UNL     1      -3.475  -5.904   8.646  0.00  0.00    +0.043 A 
ATOM     17  N   UNL     1      -3.203  -4.689   9.022  0.00  0.00    -0.376 N 
ATOM     18  C   UNL     1      -2.273  -4.104   8.056  0.00  0.00    +0.127 C 
ATOM     19  C   UNL     1      -0.962  -3.661   8.711  0.00  0.00    +0.104 C 
ATOM     20  H   UNL     1      -3.557  -4.246   9.809  0.00  0.00    +0.160 HD
ENDROOT
BRANCH   1  21
ATOM     21  C   UNL     1       2.934  -2.673   4.588  0.00  0.00    +0.143 C 
BRANCH  21  25
ATOM     22  C   UNL     1       0.981  -1.429   0.996  0.00  0.00    +0.120 A 
ATOM     23  C   UNL     1       1.386  -0.486   1.929  0.00  0.00    +0.046 A 
ATOM     24  C   UNL     1       2.017  -0.890   3.090  0.00  0.00    +0.009 A 
ATOM     25  C   UNL     1       2.245  -2.234   3.321  0.00  0.00    -0.030 A 
ATOM     26  C   UNL     1       1.843  -3.176   2.393  0.00  0.00    +0.009 A 
ATOM     27  C   UNL     1       1.206  -2.777   1.234  0.00  0.00    +0.046 A 
BRANCH  22  29
ATOM     28  C   UNL     1       0.161   0.370  -0.324  0.00  0.00    +0.277 C 
ATOM     29  O   UNL     1       0.359  -1.034  -0.146  0.00  0.00    -0.495 OA
ENDBRANCH  22  29
ENDBRANCH  21  25
ENDBRANCH   1  21
BRANCH  19  30
ATOM     30  C   UNL     1      -1.186  -2.366   9.496  0.00  0.00    +0.029 C 
BRANCH  30  31
ATOM     31  C   UNL     1      -2.168  -2.626  10.640  0.00  0.00    +0.037 C 
BRANCH  31  32
ATOM     32  C   UNL     1      -2.267  -1.397  11.506  0.00  0.00    -0.047 A 
ATOM     33  C   UNL     1      -1.410  -1.237  12.579  0.00  0.00    +0.003 A 
ATOM     34  C   UNL     1      -1.500  -0.109  13.373  0.00  0.00    +0.000 A 
ATOM     35  C   UNL     1      -2.447   0.859  13.095  0.00  0.00    +0.000 A 
ATOM     36  C   UNL     1      -3.303   0.699  12.021  0.00  0.00    +0.000 A 
ATOM     37  C   UNL     1      -3.210  -0.427  11.224  0.00  0.00    +0.003 A 
ENDBRANCH  31  32
ENDBRANCH  30  31
ENDBRANCH  19  30
TORSDOF 6
