REMARK  Name = ZINC28463206
REMARK  5 active torsions:
REMARK  status: ('A' for Active; 'I' for Inactive)
REMARK    1  A    between atoms: C_1  and  C_2
REMARK    2  A    between atoms: C_10  and  N_15
REMARK    3  A    between atoms: N_15  and  S_16
REMARK    4  A    between atoms: S_16  and  C_19
REMARK    5  A    between atoms: C_23  and  C_25
REMARK                            x       y       z     vdW  Elec       q    Type
REMARK                         _______ _______ _______ _____ _____    ______ ____
ROOT
ATOM      1  C   UNL     1      10.462   1.762  -7.938  0.00  0.00    +0.008 C 
ATOM      2  C   UNL     1       9.235   2.538  -7.454  0.00  0.00    -0.009 C 
ATOM      3  C   UNL     1       9.564   4.033  -7.400  0.00  0.00    +0.011 C 
ATOM      4  C   UNL     1       8.279   4.832  -7.155  0.00  0.00    +0.075 C 
ATOM      5  C   UNL     1       7.556   4.229  -5.972  0.00  0.00    +0.109 A 
ATOM      6  C   UNL     1       7.815   3.001  -5.492  0.00  0.00    +0.002 A 
ATOM      7  C   UNL     1       6.916   2.794  -4.358  0.00  0.00    +0.025 A 
ATOM      8  C   UNL     1       6.697   1.752  -3.458  0.00  0.00    +0.036 A 
ATOM      9  C   UNL     1       5.735   1.888  -2.475  0.00  0.00    +0.049 A 
ATOM     10  C   UNL     1       4.985   3.060  -2.388  0.00  0.00    +0.028 A 
ATOM     11  C   UNL     1       5.199   4.096  -3.270  0.00  0.00    +0.049 A 
ATOM     12  C   UNL     1       6.162   3.978  -4.264  0.00  0.00    +0.136 A 
ATOM     13  O   UNL     1       6.583   4.803  -5.247  0.00  0.00    -0.459 OA
ATOM     14  C   UNL     1       8.845   2.055  -6.051  0.00  0.00    +0.042 C 
ENDROOT
BRANCH   9  15
ATOM     15  N   UNL     1       5.509   0.846  -1.569  0.00  0.00    -0.216 N 
ATOM     16  H   UNL     1       4.608   0.222  -1.661  0.00  0.00    +0.174 HD
BRANCH  15  17
ATOM     17  S   UNL     1       6.599   0.552  -0.357  0.00  0.00    +0.072 S 
ATOM     18  O   UNL     1       7.878   0.477  -0.971  0.00  0.00    -0.150 OA
ATOM     19  O   UNL     1       6.064  -0.510   0.421  0.00  0.00    -0.150 OA
BRANCH  17  20
ATOM     20  C   UNL     1       6.621   1.975   0.681  0.00  0.00    +0.109 A 
ATOM     21  C   UNL     1       7.575   2.958   0.485  0.00  0.00    +0.029 A 
ATOM     22  C   UNL     1       7.600   4.079   1.295  0.00  0.00    +0.003 A 
ATOM     23  C   UNL     1       6.667   4.227   2.301  0.00  0.00    +0.015 A 
ATOM     24  C   UNL     1       5.705   3.237   2.508  0.00  0.00    +0.065 A 
ATOM     25  C   UNL     1       5.687   2.108   1.687  0.00  0.00    +0.044 A 
BRANCH  24  26
ATOM     26  C   UNL     1       4.708   3.386   3.587  0.00  0.00    +0.387 C 
ATOM     27  O   UNL     1       3.869   2.525   3.762  0.00  0.00    -0.241 OA
ATOM     28  O   UNL     1       4.725   4.479   4.375  0.00  0.00    -0.241 OA
ENDBRANCH  24  26
ENDBRANCH  17  20
ENDBRANCH  15  17
ENDBRANCH   9  15
TORSDOF 4
