REMARK  Name = ZINC63140441
REMARK  8 active torsions:
REMARK  status: ('A' for Active; 'I' for Inactive)
REMARK    1  A    between atoms: C_1  and  C_2
REMARK    2  A    between atoms: C_2  and  C_3
REMARK    3  A    between atoms: C_3  and  C_5
REMARK    4  A    between atoms: C_3  and  N_6
REMARK    5  A    between atoms: C_26  and  C_28
REMARK    6  A    between atoms: C_33  and  O_34
REMARK    7  A    between atoms: O_34  and  C_35
REMARK    8  A    between atoms: C_35  and  C_36
REMARK                            x       y       z     vdW  Elec       q    Type
REMARK                         _______ _______ _______ _____ _____    ______ ____
ROOT
ATOM      1  N   UNL     1       2.125  -0.091  -1.209  0.00  0.00    -0.288 N 
ATOM      2  C   UNL     1       3.022  -0.533  -0.126  0.00  0.00    +0.204 C 
ATOM      3  C   UNL     1       4.326  -0.996  -0.741  0.00  0.00    +0.234 C 
ATOM      4  O   UNL     1       4.874  -2.014  -0.376  0.00  0.00    -0.274 OA
ATOM      5  N   UNL     1       4.860  -0.208  -1.732  0.00  0.00    -0.279 N 
ATOM      6  C   UNL     1       4.140   1.017  -2.008  0.00  0.00    +0.167 C 
ATOM      7  C   UNL     1       2.672   0.712  -2.170  0.00  0.00    +0.237 C 
ATOM      8  O   UNL     1       2.018   1.154  -3.091  0.00  0.00    -0.274 OA
ATOM      9  C   UNL     1       4.660   1.923  -3.094  0.00  0.00    +0.065 C 
ATOM     10  C   UNL     1       5.754   1.230  -3.858  0.00  0.00    -0.034 C 
ATOM     11  C   UNL     1       6.042   1.181  -5.151  0.00  0.00    -0.001 A 
ATOM     12  C   UNL     1       5.421   1.825  -6.319  0.00  0.00    +0.010 A 
ATOM     13  C   UNL     1       5.977   1.543  -7.527  0.00  0.00    +0.001 A 
ATOM     14  C   UNL     1       7.076   0.694  -7.688  0.00  0.00    +0.002 A 
ATOM     15  C   UNL     1       7.713   0.062  -6.670  0.00  0.00    +0.026 A 
ATOM     16  C   UNL     1       7.222   0.284  -5.350  0.00  0.00    +0.043 A 
ATOM     17  N   UNL     1       7.639  -0.177  -4.210  0.00  0.00    -0.375 N 
ATOM     18  C   UNL     1       6.803   0.383  -3.141  0.00  0.00    +0.131 C 
ATOM     19  C   UNL     1       6.042  -0.715  -2.413  0.00  0.00    +0.137 C 
ATOM     20  H   UNL     1       8.381  -0.790  -4.086  0.00  0.00    +0.160 HD
ENDROOT
BRANCH  19  21
ATOM     21  C   UNL     1       5.618  -1.729  -3.444  0.00  0.00    +0.017 A 
ATOM     22  C   UNL     1       4.347  -1.676  -3.984  0.00  0.00    +0.009 A 
ATOM     23  C   UNL     1       3.957  -2.607  -4.929  0.00  0.00    +0.001 A 
ATOM     24  C   UNL     1       4.838  -3.592  -5.337  0.00  0.00    +0.004 A 
ATOM     25  C   UNL     1       6.109  -3.649  -4.800  0.00  0.00    +0.046 A 
ATOM     26  C   UNL     1       6.505  -2.713  -3.855  0.00  0.00    +0.125 A 
BRANCH  26  27
ATOM     27  O   UNL     1       7.757  -2.764  -3.330  0.00  0.00    -0.492 OA
BRANCH  27  28
ATOM     28  C   UNL     1       8.616  -3.805  -3.800  0.00  0.00    +0.225 C 
ATOM     29  C   UNL     1       9.973  -3.701  -3.100  0.00  0.00    +0.048 C 
ENDBRANCH  27  28
ENDBRANCH  26  27
ENDBRANCH  19  21
BRANCH   1  30
ATOM     30  C   UNL     1       0.718  -0.497  -1.257  0.00  0.00    +0.073 C 
ATOM     31  C   UNL     1       0.630  -2.023  -1.329  0.00  0.00    +0.028 C 
BRANCH  30  33
ATOM     32  C   UNL     1      -0.019   1.526   0.010  0.00  0.00    +0.005 C 
ATOM     33  C   UNL     1       0.002  -0.004   0.002  0.00  0.00    +0.019 C 
ENDBRANCH  30  33
ENDBRANCH   1  30
TORSDOF 5
