REMARK  Name = ZINC12038623
REMARK  11 active torsions:
REMARK  status: ('A' for Active; 'I' for Inactive)
REMARK    1  A    between atoms: C_1  and  C_2
REMARK    2  A    between atoms: C_5  and  C_9
REMARK    3  A    between atoms: C_6  and  C_8
REMARK    4  A    between atoms: C_9  and  N_57
REMARK    5  A    between atoms: C_11  and  N_20
REMARK    6  A    between atoms: C_14  and  C_16
REMARK    7  A    between atoms: C_16  and  O_18
REMARK    8  A    between atoms: O_18  and  C_19
REMARK    9  A    between atoms: C_21  and  C_23
REMARK   10  A    between atoms: C_27  and  O_29
REMARK   11  A    between atoms: O_29  and  C_30
REMARK                            x       y       z     vdW  Elec       q    Type
REMARK                         _______ _______ _______ _____ _____    ______ ____
ROOT
ATOM      1  C   UNL     1       3.887   8.040   1.536  0.00  0.00    -0.055 C 
ATOM      2  C   UNL     1       3.797   7.433   0.114  0.00  0.00    +0.056 C 
ATOM      3  C   UNL     1       5.082   7.956  -0.568  0.00  0.00    +0.016 C 
ATOM      4  C   UNL     1       5.487   9.203   0.240  0.00  0.00    +0.045 C 
ATOM      5  N   UNL     1       4.462   9.366   1.277  0.00  0.00    +0.392 N 
ATOM      6  H   UNL     1       3.728  10.002   0.943  0.00  0.00    -0.080 HD
ENDROOT
BRANCH   2   7
ATOM      7  N   UNL     1       3.800   5.969   0.173  0.00  0.00    -0.310 N 
ATOM      8  C   UNL     1       2.635   5.295   0.245  0.00  0.00    +0.244 C 
ATOM      9  O   UNL     1       1.582   5.902   0.259  0.00  0.00    -0.270 OA
ATOM     10  H   UNL     1       4.641   5.485   0.162  0.00  0.00    +0.149 HD
BRANCH   8  11
ATOM     11  C   UNL     1       2.639   3.818   0.305  0.00  0.00    +0.040 A 
ATOM     12  C   UNL     1       3.847   3.119   0.289  0.00  0.00    +0.013 A 
ATOM     13  C   UNL     1       3.847   1.740   0.346  0.00  0.00    +0.004 A 
ATOM     14  C   UNL     1       2.652   1.047   0.419  0.00  0.00    +0.045 A 
ATOM     15  C   UNL     1       1.446   1.734   0.437  0.00  0.00    +0.121 A 
ATOM     16  C   UNL     1       1.435   3.117   0.374  0.00  0.00    +0.058 A 
BRANCH  15  17
ATOM     17  O   UNL     1       0.275   1.048   0.509  0.00  0.00    -0.495 OA
ATOM     18  C   UNL     1       0.360  -0.378   0.564  0.00  0.00    +0.277 C 
ENDBRANCH  15  17
ENDBRANCH   8  11
ENDBRANCH   2   7
BRANCH   4  19
ATOM     19  C   UNL     1       5.516  10.411  -0.661  0.00  0.00    +0.293 C 
ATOM     20  O   UNL     1       4.780  11.344  -0.445  0.00  0.00    -0.253 OA
BRANCH  19  21
ATOM     21  O   UNL     1       6.361  10.449  -1.704  0.00  0.00    -0.469 OA
ATOM     22  C   UNL     1       6.335  11.644  -2.530  0.00  0.00    +0.280 C 
ENDBRANCH  19  21
ENDBRANCH   4  19
BRANCH   5  23
ATOM     23  C   UNL     1       5.069   9.928   2.521  0.00  0.00    -0.042 C 
BRANCH  23  28
ATOM     24  C   UNL     1       1.053  10.241   6.664  0.00  0.00    +0.044 C 
ATOM     25  C   UNL     1       2.100  10.159   5.583  0.00  0.00    -0.050 A 
ATOM     26  C   UNL     1       3.072   9.177   5.635  0.00  0.00    +0.003 A 
ATOM     27  C   UNL     1       4.030   9.099   4.642  0.00  0.00    +0.002 A 
ATOM     28  C   UNL     1       4.022  10.009   3.601  0.00  0.00    -0.061 A 
ATOM     29  C   UNL     1       3.050  10.990   3.548  0.00  0.00    -0.049 A 
ATOM     30  C   UNL     1       2.089  11.065   4.540  0.00  0.00    +0.007 A 
ATOM     31  C   UNL     1       3.037  11.979   2.411  0.00  0.00    +0.044 C 
ENDBRANCH  23  28
ENDBRANCH   5  23
TORSDOF 7
