REMARK  Name = ZINC39657670
REMARK  8 active torsions:
REMARK  status: ('A' for Active; 'I' for Inactive)
REMARK    1  A    between atoms: C_1  and  C_2
REMARK    2  A    between atoms: C_6  and  C_15
REMARK    3  A    between atoms: N_17  and  C_18
REMARK    4  A    between atoms: C_18  and  C_19
REMARK    5  A    between atoms: C_24  and  S_25
REMARK    6  A    between atoms: S_25  and  C_26
REMARK    7  A    between atoms: C_31  and  C_32
REMARK    8  A    between atoms: C_32  and  O_33
REMARK                            x       y       z     vdW  Elec       q    Type
REMARK                         _______ _______ _______ _____ _____    ______ ____
ROOT
ATOM      1  C   UNL     1      -3.005  -0.587  -3.092  0.00  0.00    +0.218 C 
ATOM      2  O   UNL     1      -2.508  -0.906  -4.151  0.00  0.00    -0.275 OA
ATOM      3  N   UNL     1      -3.788   0.507  -3.018  0.00  0.00    -0.311 N 
ATOM      4  H   UNL     1      -4.186   0.763  -2.171  0.00  0.00    +0.149 HD
ENDROOT
BRANCH   1  10
ATOM      5  C   UNL     1       0.423  -3.471  -3.920  0.00  0.00    +0.109 C 
ATOM      6  C   UNL     1      -0.836  -4.092  -3.371  0.00  0.00    +0.212 C 
ATOM      7  O   UNL     1      -1.171  -5.200  -3.731  0.00  0.00    -0.276 OA
ATOM      8  N   UNL     1      -1.587  -3.416  -2.479  0.00  0.00    -0.300 N 
ATOM      9  C   UNL     1      -1.346  -2.062  -1.929  0.00  0.00    +0.121 C 
ATOM     10  C   UNL     1      -2.747  -1.413  -1.859  0.00  0.00    +0.100 C 
ATOM     11  C   UNL     1      -3.724  -2.599  -1.790  0.00  0.00    -0.004 C 
ATOM     12  C   UNL     1      -2.846  -3.858  -1.833  0.00  0.00    +0.115 C 
ATOM     13  C   UNL     1      -4.664  -2.578  -2.992  0.00  0.00    -0.010 C 
ATOM     14  C   UNL     1      -5.663  -3.732  -2.873  0.00  0.00    -0.082 C 
ATOM     15  N   UNL     1      -6.427  -3.594  -1.626  0.00  0.00    +0.379 N 
ATOM     16  C   UNL     1      -5.527  -3.708  -0.472  0.00  0.00    -0.082 C 
ATOM     17  C   UNL     1      -4.521  -2.553  -0.490  0.00  0.00    -0.010 C 
ATOM     18  H   UNL     1      -6.880  -2.693  -1.609  0.00  0.00    -0.086 HD
ATOM     19  H   UNL     1      -7.125  -4.320  -1.579  0.00  0.00    -0.086 HD
ENDBRANCH   1  10
BRANCH   3  20
ATOM     20  C   UNL     1      -4.040   1.311  -4.217  0.00  0.00    +0.140 C 
BRANCH  20  21
ATOM     21  C   UNL     1      -4.939   2.468  -3.866  0.00  0.00    -0.017 A 
ATOM     22  C   UNL     1      -6.290   2.402  -4.142  0.00  0.00    +0.006 A 
ATOM     23  C   UNL     1      -7.116   3.464  -3.821  0.00  0.00    +0.000 A 
ATOM     24  C   UNL     1      -6.592   4.596  -3.223  0.00  0.00    +0.001 A 
ATOM     25  C   UNL     1      -5.241   4.669  -2.945  0.00  0.00    +0.015 A 
ATOM     26  C   UNL     1      -4.410   3.602  -3.261  0.00  0.00    +0.017 A 
BRANCH  26  27
ATOM     27  S   UNL     1      -2.687   3.688  -2.901  0.00  0.00    -0.089 S 
BRANCH  27  28
ATOM     28  C   UNL     1      -2.454   5.335  -2.321  0.00  0.00    +0.018 A 
ATOM     29  C   UNL     1      -2.296   5.579  -0.962  0.00  0.00    +0.015 A 
ATOM     30  C   UNL     1      -2.114   6.871  -0.511  0.00  0.00    +0.001 A 
ATOM     31  C   UNL     1      -2.089   7.922  -1.410  0.00  0.00    +0.000 A 
ATOM     32  C   UNL     1      -2.248   7.683  -2.762  0.00  0.00    +0.007 A 
ATOM     33  C   UNL     1      -2.424   6.393  -3.221  0.00  0.00    -0.008 A 
BRANCH  33  34
ATOM     34  C   UNL     1      -2.589   6.132  -4.696  0.00  0.00    +0.192 C 
BRANCH  34  35
ATOM     35  O   UNL     1      -2.521   7.369  -5.409  0.00  0.00    -0.390 OA
ATOM     36  H   UNL     1      -2.620   7.278  -6.366  0.00  0.00    +0.210 HD
ENDBRANCH  34  35
ENDBRANCH  33  34
ENDBRANCH  27  28
ENDBRANCH  26  27
ENDBRANCH  20  21
ENDBRANCH   3  20
TORSDOF 7
