REMARK  Name = ZINC53270896
REMARK  7 active torsions:
REMARK  status: ('A' for Active; 'I' for Inactive)
REMARK    1  A    between atoms: C_1  and  O_2
REMARK    2  A    between atoms: O_2  and  C_3
REMARK    3  A    between atoms: C_8  and  C_9
REMARK    4  A    between atoms: C_9  and  C_14
REMARK    5  A    between atoms: C_14  and  N_15
REMARK    6  A    between atoms: C_16  and  C_18
REMARK    7  A    between atoms: C_18  and  N_19
REMARK                            x       y       z     vdW  Elec       q    Type
REMARK                         _______ _______ _______ _____ _____    ______ ____
ROOT
ATOM      1  N   UNL     1       0.583  -1.183   1.697  0.00  0.00    -0.313 N 
ATOM      2  C   UNL     1       1.219  -0.704   2.784  0.00  0.00    +0.235 C 
ATOM      3  O   UNL     1       1.956  -1.424   3.423  0.00  0.00    -0.274 OA
ATOM      4  H   UNL     1      -0.007  -0.607   1.186  0.00  0.00    +0.149 HD
ENDROOT
BRANCH   1   5
ATOM      5  C   UNL     1       0.781  -2.576   1.288  0.00  0.00    +0.116 C 
BRANCH   5   6
ATOM      6  C   UNL     1      -0.110  -2.885   0.083  0.00  0.00    +0.015 C 
ATOM      7  C   UNL     1      -1.583  -2.602   0.429  0.00  0.00    +0.013 C 
ATOM      8  C   UNL     1      -2.337  -3.939   0.275  0.00  0.00    +0.001 C 
ATOM      9  C   UNL     1      -1.238  -5.017   0.450  0.00  0.00    +0.001 C 
ATOM     10  C   UNL     1      -0.021  -4.385  -0.269  0.00  0.00    +0.013 C 
BRANCH   6  16
ATOM     11  C   UNL     1      -0.422  -2.092  -2.275  0.00  0.00    +0.124 A 
ATOM     12  C   UNL     1      -0.034  -1.319  -3.360  0.00  0.00    +0.046 A 
ATOM     13  C   UNL     1       1.085  -0.514  -3.267  0.00  0.00    +0.004 A 
ATOM     14  C   UNL     1       1.818  -0.479  -2.095  0.00  0.00    +0.001 A 
ATOM     15  C   UNL     1       1.434  -1.249  -1.014  0.00  0.00    +0.008 A 
ATOM     16  C   UNL     1       0.312  -2.051  -1.099  0.00  0.00    +0.002 A 
BRANCH  11  18
ATOM     17  C   UNL     1      -2.231  -2.876  -3.604  0.00  0.00    +0.277 C 
ATOM     18  O   UNL     1      -1.523  -2.884  -2.363  0.00  0.00    -0.495 OA
ENDBRANCH  11  18
ENDBRANCH   6  16
ENDBRANCH   5   6
ENDBRANCH   1   5
BRANCH   2  19
ATOM     19  C   UNL     1       1.015   0.729   3.205  0.00  0.00    +0.244 C 
BRANCH  19  20
ATOM     20  N   UNL     1       1.810   1.003   4.405  0.00  0.00    -0.201 N 
ATOM     21  C   UNL     1       3.078   1.462   4.285  0.00  0.00    +0.278 A 
ATOM     22  O   UNL     1       3.581   1.655   3.193  0.00  0.00    -0.265 OA
ATOM     23  C   UNL     1       3.825   1.718   5.526  0.00  0.00    +0.068 A 
ATOM     24  C   UNL     1       5.136   2.191   5.508  0.00  0.00    +0.015 A 
ATOM     25  C   UNL     1       5.793   2.417   6.697  0.00  0.00    +0.001 A 
ATOM     26  C   UNL     1       5.161   2.176   7.910  0.00  0.00    +0.002 A 
ATOM     27  C   UNL     1       3.867   1.709   7.950  0.00  0.00    +0.030 A 
ATOM     28  C   UNL     1       3.179   1.472   6.757  0.00  0.00    +0.100 A 
ATOM     29  N   UNL     1       1.903   1.012   6.759  0.00  0.00    -0.131 NA
ATOM     30  N   UNL     1       1.256   0.797   5.671  0.00  0.00    -0.062 NA
ENDBRANCH  19  20
ENDBRANCH   2  19
TORSDOF 6
