REMARK  Name = ZINC58186429
REMARK  4 active torsions:
REMARK  status: ('A' for Active; 'I' for Inactive)
REMARK    1  A    between atoms: C_4  and  O_30
REMARK    2  A    between atoms: C_5  and  N_7
REMARK    3  A    between atoms: C_8  and  C_10
REMARK    4  A    between atoms: C_14  and  N_16
REMARK                            x       y       z     vdW  Elec       q    Type
REMARK                         _______ _______ _______ _____ _____    ______ ____
ROOT
ATOM      1  C   UNL     1       0.152  -4.384  -0.319  0.00  0.00    +0.039 A 
ATOM      2  C   UNL     1       1.335  -4.923   0.189  0.00  0.00    +0.013 A 
ATOM      3  C   UNL     1       1.325  -6.164   0.792  0.00  0.00    +0.003 A 
ATOM      4  C   UNL     1       0.145  -6.877   0.896  0.00  0.00    +0.025 A 
ATOM      5  C   UNL     1      -1.038  -6.350   0.394  0.00  0.00    +0.057 A 
ATOM      6  C   UNL     1      -1.039  -5.101  -0.209  0.00  0.00    +0.038 A 
ENDROOT
BRANCH   5   7
ATOM      7  N   UNL     1      -2.229  -7.076   0.502  0.00  0.00    -0.188 N 
ATOM      8  C   UNL     1      -3.332  -6.483   1.004  0.00  0.00    +0.240 C 
ATOM      9  O   UNL     1      -3.290  -5.340   1.407  0.00  0.00    -0.273 OA
ATOM     10  C   UNL     1      -4.627  -7.273   1.054  0.00  0.00    +0.093 C 
ATOM     11  C   UNL     1      -4.550  -8.196   2.276  0.00  0.00    +0.040 C 
ATOM     12  C   UNL     1      -5.564  -9.294   2.188  0.00  0.00    -0.030 C 
ATOM     13  C   UNL     1      -6.163  -9.649   1.098  0.00  0.00    -0.030 C 
ATOM     14  C   UNL     1      -5.935  -8.989  -0.229  0.00  0.00    +0.040 C 
ATOM     15  C   UNL     1      -4.687  -8.122  -0.222  0.00  0.00    +0.092 C 
ATOM     16  C   UNL     1      -3.441  -8.959  -0.312  0.00  0.00    +0.234 C 
ATOM     17  O   UNL     1      -3.486 -10.095  -0.734  0.00  0.00    -0.274 OA
ATOM     18  N   UNL     1      -2.269  -8.414   0.082  0.00  0.00    -0.227 N 
ATOM     19  H   UNL     1      -1.460  -8.948   0.077  0.00  0.00    +0.173 HD
ENDBRANCH   5   7
BRANCH   1  21
ATOM     20  N   UNL     1       1.312  -2.364  -1.072  0.00  0.00    -0.279 N 
ATOM     21  C   UNL     1       0.160  -3.055  -0.966  0.00  0.00    +0.248 C 
ATOM     22  O   UNL     1      -0.873  -2.585  -1.403  0.00  0.00    -0.270 OA
ATOM     23  H   UNL     1       2.143  -2.756  -0.762  0.00  0.00    +0.155 HD
BRANCH  20  28
ATOM     24  C   UNL     1       0.341   0.543  -3.105  0.00  0.00    +0.002 A 
ATOM     25  C   UNL     1       1.304   1.462  -2.731  0.00  0.00    +0.004 A 
ATOM     26  C   UNL     1       2.272   1.117  -1.807  0.00  0.00    +0.047 A 
ATOM     27  C   UNL     1       2.280  -0.153  -1.253  0.00  0.00    +0.138 A 
ATOM     28  C   UNL     1       1.310  -1.079  -1.629  0.00  0.00    +0.076 A 
ATOM     29  C   UNL     1       0.341  -0.725  -2.557  0.00  0.00    +0.027 A 
BRANCH  27  30
ATOM     30  O   UNL     1       3.232  -0.494  -0.344  0.00  0.00    -0.505 OA
ATOM     31  H   UNL     1       2.985  -0.310   0.573  0.00  0.00    +0.292 HD
ENDBRANCH  27  30
ENDBRANCH  20  28
ENDBRANCH   1  21
TORSDOF 4
