REMARK  Name = ZINC38937876
REMARK  7 active torsions:
REMARK  status: ('A' for Active; 'I' for Inactive)
REMARK    1  A    between atoms: C_1  and  C_2
REMARK    2  A    between atoms: C_2  and  C_3
REMARK    3  A    between atoms: C_3  and  O_4
REMARK    4  A    between atoms: O_4  and  C_5
REMARK    5  A    between atoms: C_9  and  C_11
REMARK    6  A    between atoms: N_16  and  C_17
REMARK    7  A    between atoms: N_19  and  C_20
REMARK                            x       y       z     vdW  Elec       q    Type
REMARK                         _______ _______ _______ _____ _____    ______ ____
ROOT
ATOM      1  C   UNL     1      -3.968  -6.102   0.029  0.00  0.00    +0.193 C 
ATOM      2  N   UNL     1      -5.239  -6.588  -0.559  0.00  0.00    -0.289 N 
ATOM      3  N   UNL     1      -5.989  -7.231   0.141  0.00  0.00    -0.153 NA
ATOM      4  C   UNL     1      -5.748  -7.550   1.459  0.00  0.00    +0.203 C 
ATOM      5  N   UNL     1      -6.496  -8.241   2.300  0.00  0.00    -0.136 NA
ATOM      6  S   UNL     1      -4.150  -6.783   1.734  0.00  0.00    -0.056 S 
ATOM      7  H   UNL     1      -5.465  -6.394  -1.482  0.00  0.00    +0.184 HD
ENDROOT
BRANCH   1  12
ATOM      8  C   UNL     1      -2.625  -2.570   0.043  0.00  0.00    +0.121 A 
ATOM      9  C   UNL     1      -3.799  -1.831   0.061  0.00  0.00    +0.045 A 
ATOM     10  C   UNL     1      -5.021  -2.475   0.069  0.00  0.00    +0.004 A 
ATOM     11  C   UNL     1      -5.074  -3.857   0.058  0.00  0.00    +0.007 A 
ATOM     12  C   UNL     1      -3.906  -4.597   0.040  0.00  0.00    -0.010 A 
ATOM     13  C   UNL     1      -2.682  -3.956   0.026  0.00  0.00    +0.052 A 
BRANCH   8  14
ATOM     14  O   UNL     1      -1.423  -1.938   0.035  0.00  0.00    -0.492 OA
BRANCH  14  15
ATOM     15  C   UNL     1      -1.440  -0.509   0.052  0.00  0.00    +0.229 C 
BRANCH  15  17
ATOM     16  C   UNL     1      -0.024   1.549   0.059  0.00  0.00    +0.007 C 
ATOM     17  C   UNL     1      -0.004   0.019   0.040  0.00  0.00    +0.038 C 
ENDBRANCH  15  17
ENDBRANCH  14  15
ENDBRANCH   8  14
ENDBRANCH   1  12
BRANCH   5  18
ATOM     18  C   UNL     1      -6.077  -8.445   3.561  0.00  0.00    +0.330 C 
ATOM     19  O   UNL     1      -5.008  -7.993   3.927  0.00  0.00    -0.250 OA
ATOM     20  N   UNL     1      -6.841  -9.149   4.419  0.00  0.00    -0.266 N 
ATOM     21  H   UNL     1      -7.721  -9.453   4.147  0.00  0.00    +0.156 HD
BRANCH  20  22
ATOM     22  C   UNL     1      -6.364  -9.443   5.702  0.00  0.00    +0.053 A 
ATOM     23  C   UNL     1      -5.560  -8.529   6.370  0.00  0.00    +0.026 A 
ATOM     24  C   UNL     1      -5.090  -8.821   7.636  0.00  0.00    +0.022 A 
ATOM     25  C   UNL     1      -5.421 -10.022   8.239  0.00  0.00    +0.042 A 
ATOM     26  C   UNL     1      -6.222 -10.934   7.575  0.00  0.00    +0.041 A 
ATOM     27  C   UNL     1      -6.700 -10.645   6.311  0.00  0.00    +0.064 A 
ATOM     28 CL   UNL     1      -7.712 -11.787   5.482  0.00  0.00    -0.082 Cl
ATOM     29 CL   UNL     1      -4.829 -10.385   9.830  0.00  0.00    -0.083 Cl
ENDBRANCH  20  22
ENDBRANCH   5  18
TORSDOF 6
