REMARK  Name = ZINC12412696
REMARK  8 active torsions:
REMARK  status: ('A' for Active; 'I' for Inactive)
REMARK    1  A    between atoms: C_1  and  C_2
REMARK    2  A    between atoms: C_2  and  O_3
REMARK    3  A    between atoms: O_3  and  C_4
REMARK    4  A    between atoms: C_4  and  C_6
REMARK    5  A    between atoms: C_7  and  C_25
REMARK    6  A    between atoms: C_9  and  N_24
REMARK    7  A    between atoms: C_10  and  C_22
REMARK    8  A    between atoms: C_13  and  C_21
REMARK                            x       y       z     vdW  Elec       q    Type
REMARK                         _______ _______ _______ _____ _____    ______ ____
ROOT
ATOM      1  C   UNL     1       0.025   1.569   0.024  0.00  0.00    +0.099 C 
ATOM      2  C   UNL     1       1.208   2.199  -0.009  0.00  0.00    +0.116 C 
ATOM      3  O   UNL     1       2.371   1.533  -0.039  0.00  0.00    -0.445 OA
ATOM      4  C   UNL     1       2.409   0.243   0.338  0.00  0.00    +0.199 C 
ATOM      5  C   UNL     1       1.287  -0.518   0.392  0.00  0.00    +0.110 C 
ATOM      6  C   UNL     1      -0.046   0.070   0.030  0.00  0.00    +0.148 C 
ATOM      7  C   UNL     1      -0.501  -0.442  -1.314  0.00  0.00    +0.002 A 
ATOM      8  C   UNL     1       0.026  -0.348  -2.583  0.00  0.00    -0.044 A 
ATOM      9  C   UNL     1      -0.633  -0.934  -3.649  0.00  0.00    +0.004 A 
ATOM     10  C   UNL     1      -1.819  -1.613  -3.436  0.00  0.00    +0.002 A 
ATOM     11  C   UNL     1      -2.349  -1.709  -2.167  0.00  0.00    +0.023 A 
ATOM     12  C   UNL     1      -1.692  -1.122  -1.087  0.00  0.00    +0.039 A 
ATOM     13  N   UNL     1      -2.020  -1.081   0.269  0.00  0.00    -0.284 N 
ATOM     14  C   UNL     1      -1.110  -0.404   0.992  0.00  0.00    +0.238 C 
ATOM     15  O   UNL     1      -1.137  -0.212   2.189  0.00  0.00    -0.274 OA
ATOM     16  C   UNL     1       1.318   0.393  -2.810  0.00  0.00    +0.044 C 
ATOM     17  C   UNL     1       1.231   3.706  -0.012  0.00  0.00    +0.087 C 
ATOM     18  H   UNL     1      -2.812  -1.494   0.646  0.00  0.00    +0.155 HD
ENDROOT
BRANCH   4  19
ATOM     19  N   UNL     1       3.615  -0.319   0.678  0.00  0.00    -0.328 N 
ATOM     20  H   UNL     1       3.657  -1.248   0.952  0.00  0.00    +0.145 HD
ATOM     21  H   UNL     1       4.425   0.214   0.644  0.00  0.00    +0.145 HD
ENDBRANCH   4  19
BRANCH   1  22
ATOM     22  C   UNL     1      -1.172   2.327   0.049  0.00  0.00    +0.340 C 
ATOM     23  O   UNL     1      -1.123   3.538   0.151  0.00  0.00    -0.245 OA
BRANCH  22  24
ATOM     24  O   UNL     1      -2.366   1.706  -0.041  0.00  0.00    -0.462 OA
BRANCH  24  26
ATOM     25  C   UNL     1      -4.781   1.656  -0.123  0.00  0.00    +0.048 C 
ATOM     26  C   UNL     1      -3.531   2.532  -0.010  0.00  0.00    +0.229 C 
ENDBRANCH  24  26
ENDBRANCH  22  24
ENDBRANCH   1  22
BRANCH   5  27
ATOM     27  C   UNL     1       1.375  -1.889   0.796  0.00  0.00    +0.102 C 
ATOM     28  N   UNL     1       1.445  -2.976   1.117  0.00  0.00    -0.191 NA
ENDBRANCH   5  27
TORSDOF 5
