REMARK  Name = ZINC39454561
REMARK  8 active torsions:
REMARK  status: ('A' for Active; 'I' for Inactive)
REMARK    1  A    between atoms: C_1  and  C_2
REMARK    2  A    between atoms: C_5  and  C_30
REMARK    3  A    between atoms: C_12  and  N_15
REMARK    4  A    between atoms: C_16  and  C_18
REMARK    5  A    between atoms: C_18  and  N_19
REMARK    6  A    between atoms: N_19  and  C_20
REMARK    7  A    between atoms: N_19  and  C_21
REMARK    8  A    between atoms: C_21  and  C_22
REMARK                            x       y       z     vdW  Elec       q    Type
REMARK                         _______ _______ _______ _____ _____    ______ ____
ROOT
ATOM      1  N   UNL     1       0.508  -2.860   0.932  0.00  0.00    -0.288 N 
ATOM      2  C   UNL     1       0.737  -3.634   2.011  0.00  0.00    +0.199 C 
ATOM      3  O   UNL     1       1.657  -3.375   2.758  0.00  0.00    -0.278 OA
ATOM      4  H   UNL     1      -0.228  -3.067   0.334  0.00  0.00    +0.151 HD
ENDROOT
BRANCH   1  15
ATOM      5  C   UNL     1      -0.019   1.526   0.010  0.00  0.00    +0.043 C 
ATOM      6  C   UNL     1       0.002  -0.004   0.002  0.00  0.00    +0.150 C 
ATOM      7  C   UNL     1       0.727  -0.507  -1.220  0.00  0.00    +0.016 A 
ATOM      8  C   UNL     1       0.712  -0.148  -2.573  0.00  0.00    +0.065 A 
ATOM      9  N   UNL     1       1.470  -0.784  -3.427  0.00  0.00    -0.176 NA
ATOM     10  N   UNL     1       2.248  -1.745  -3.080  0.00  0.00    -0.243 N 
ATOM     11  C   UNL     1       2.332  -2.164  -1.800  0.00  0.00    +0.272 A 
ATOM     12  O   UNL     1       3.079  -3.079  -1.495  0.00  0.00    -0.266 OA
ATOM     13  C   UNL     1       1.546  -1.527  -0.825  0.00  0.00    +0.072 A 
ATOM     14  H   UNL     1       2.789  -2.182  -3.757  0.00  0.00    +0.192 HD
ATOM     15  C   UNL     1       1.370  -1.707   0.661  0.00  0.00    +0.243 C 
ATOM     16  O   UNL     1       0.745  -0.497   1.134  0.00  0.00    -0.347 OA
ATOM     17  C   UNL     1      -0.179   0.972  -3.046  0.00  0.00    +0.068 C 
ENDBRANCH   1  15
BRANCH   2  18
ATOM     18  C   UNL     1      -0.149  -4.820   2.290  0.00  0.00    +0.019 C 
BRANCH  18  19
ATOM     19  N   UNL     1       0.305  -5.494   3.514  0.00  0.00    +0.386 N 
ATOM     20  C   UNL     1       0.125  -4.596   4.662  0.00  0.00    -0.095 C 
ATOM     21  H   UNL     1       1.281  -5.733   3.423  0.00  0.00    -0.081 HD
BRANCH  19  22
ATOM     22  C   UNL     1      -0.482  -6.717   3.720  0.00  0.00    -0.043 C 
BRANCH  22  23
ATOM     23  C   UNL     1       0.063  -7.472   4.905  0.00  0.00    -0.062 A 
ATOM     24  C   UNL     1       1.060  -8.413   4.725  0.00  0.00    +0.003 A 
ATOM     25  C   UNL     1       1.561  -9.107   5.810  0.00  0.00    +0.021 A 
ATOM     26  C   UNL     1       1.066  -8.858   7.078  0.00  0.00    +0.059 A 
ATOM     27  C   UNL     1       0.069  -7.915   7.258  0.00  0.00    +0.059 A 
ATOM     28  C   UNL     1      -0.428  -7.218   6.171  0.00  0.00    +0.023 A 
ATOM     29 CL   UNL     1      -0.554  -7.602   8.848  0.00  0.00    -0.082 Cl
ATOM     30 CL   UNL     1       1.694  -9.729   8.442  0.00  0.00    -0.082 Cl
ENDBRANCH  22  23
ENDBRANCH  19  22
ENDBRANCH  18  19
ENDBRANCH   2  18
TORSDOF 5
