REMARK  Name = ZINC22931347
REMARK  6 active torsions:
REMARK  status: ('A' for Active; 'I' for Inactive)
REMARK    1  A    between atoms: C_1  and  O_2
REMARK    2  A    between atoms: O_2  and  C_3
REMARK    3  A    between atoms: C_6  and  N_9
REMARK    4  A    between atoms: C_13  and  N_17
REMARK    5  A    between atoms: N_20  and  C_23
REMARK    6  A    between atoms: C_23  and  C_24
REMARK                            x       y       z     vdW  Elec       q    Type
REMARK                         _______ _______ _______ _____ _____    ______ ____
ROOT
ATOM      1  N   UNL     1       2.460  -2.459  -4.303  0.00  0.00    -0.209 N 
ATOM      2  C   UNL     1       2.943  -1.775  -5.348  0.00  0.00    +0.228 C 
ATOM      3  O   UNL     1       2.904  -0.570  -5.478  0.00  0.00    -0.275 OA
ATOM      4  C   UNL     1       3.546  -2.744  -6.341  0.00  0.00    +0.125 C 
ATOM      5  C   UNL     1       3.325  -4.121  -5.682  0.00  0.00    +0.153 C 
ATOM      6  C   UNL     1       2.626  -3.785  -4.383  0.00  0.00    +0.244 C 
ATOM      7  O   UNL     1       2.271  -4.588  -3.548  0.00  0.00    -0.273 OA
ENDROOT
BRANCH   1  11
ATOM      8  C   UNL     1       0.607  -0.607  -1.056  0.00  0.00    +0.120 A 
ATOM      9  C   UNL     1       1.832  -1.237  -0.889  0.00  0.00    +0.047 A 
ATOM     10  C   UNL     1       2.445  -1.850  -1.963  0.00  0.00    +0.027 A 
ATOM     11  C   UNL     1       1.837  -1.836  -3.210  0.00  0.00    +0.044 A 
ATOM     12  C   UNL     1       0.612  -1.205  -3.377  0.00  0.00    +0.027 A 
ATOM     13  C   UNL     1      -0.004  -0.597  -2.301  0.00  0.00    +0.047 A 
BRANCH   8  15
ATOM     14  C   UNL     1       0.689  -0.052   1.255  0.00  0.00    +0.277 C 
ATOM     15  O   UNL     1       0.003  -0.003   0.002  0.00  0.00    -0.495 OA
ENDBRANCH   8  15
ENDBRANCH   1  11
BRANCH   5  16
ATOM     16  N   UNL     1       4.612  -4.780  -5.420  0.00  0.00    -0.289 NA
ATOM     17  C   UNL     1       5.401  -4.905  -6.653  0.00  0.00    +0.100 C 
ATOM     18  C   UNL     1       6.762  -5.522  -6.324  0.00  0.00    +0.100 C 
ATOM     19  N   UNL     1       6.562  -6.836  -5.696  0.00  0.00    -0.295 NA
ATOM     20  C   UNL     1       5.773  -6.712  -4.462  0.00  0.00    +0.100 C 
ATOM     21  C   UNL     1       4.412  -6.094  -4.791  0.00  0.00    +0.100 C 
BRANCH  19  22
ATOM     22  C   UNL     1       7.848  -7.495  -5.433  0.00  0.00    +0.127 C 
BRANCH  22  23
ATOM     23  C   UNL     1       7.605  -8.924  -5.022  0.00  0.00    +0.005 A 
ATOM     24  C   UNL     1       7.526 -10.033  -5.796  0.00  0.00    +0.014 A 
ATOM     25  C   UNL     1       7.293 -11.256  -5.194  0.00  0.00    +0.028 A 
ATOM     26  C   UNL     1       7.152 -11.309  -3.846  0.00  0.00    +0.078 A 
ATOM     27  S   UNL     1       7.356  -9.596  -3.386  0.00  0.00    -0.080 S 
ATOM     28 CL   UNL     1       6.856 -12.685  -2.831  0.00  0.00    -0.076 Cl
ENDBRANCH  22  23
ENDBRANCH  19  22
ENDBRANCH   5  16
TORSDOF 5
