REMARK  Name = ZINC34145306
REMARK  7 active torsions:
REMARK  status: ('A' for Active; 'I' for Inactive)
REMARK    1  A    between atoms: C_1  and  C_2
REMARK    2  A    between atoms: C_2  and  C_3
REMARK    3  A    between atoms: C_3  and  C_5
REMARK    4  A    between atoms: C_3  and  N_6
REMARK    5  A    between atoms: C_10  and  C_11
REMARK    6  A    between atoms: N_17  and  C_22
REMARK    7  A    between atoms: N_20  and  C_21
REMARK                            x       y       z     vdW  Elec       q    Type
REMARK                         _______ _______ _______ _____ _____    ______ ____
ROOT
ATOM      1  N   UNL     1      -0.376   0.810  -2.064  0.00  0.00    -0.226 N 
ATOM      2  C   UNL     1       0.289   1.285  -3.105  0.00  0.00    +0.260 C 
ATOM      3  O   UNL     1       1.445   1.653  -3.011  0.00  0.00    -0.269 OA
ATOM      4  C   UNL     1      -0.443   1.345  -4.386  0.00  0.00    +0.080 C 
ATOM      5  C   UNL     1      -0.024   1.778  -5.602  0.00  0.00    +0.028 C 
ATOM      6  S   UNL     1      -2.032   0.690  -3.895  0.00  0.00    -0.026 S 
ATOM      7  C   UNL     1      -1.655   0.399  -2.174  0.00  0.00    +0.286 C 
ATOM      8  O   UNL     1      -2.378  -0.059  -1.309  0.00  0.00    -0.262 OA
ENDROOT
BRANCH   5   9
ATOM      9  C   UNL     1      -0.982   1.901  -6.707  0.00  0.00    -0.022 A 
ATOM     10  C   UNL     1      -2.359   1.918  -6.445  0.00  0.00    +0.010 A 
ATOM     11  C   UNL     1      -3.254   2.032  -7.471  0.00  0.00    +0.028 A 
ATOM     12  C   UNL     1      -2.805   2.133  -8.782  0.00  0.00    +0.070 A 
ATOM     13  C   UNL     1      -1.434   2.117  -9.058  0.00  0.00    +0.070 A 
ATOM     14  C   UNL     1      -0.522   2.008  -8.025  0.00  0.00    +0.036 A 
ATOM     15  N   UNL     1      -1.301   2.233 -10.441  0.00  0.00    -0.295 N 
ATOM     16  C   UNL     1      -2.533   2.315 -10.978  0.00  0.00    +0.330 A 
ATOM     17  O   UNL     1      -2.773   2.424 -12.166  0.00  0.00    -0.246 OA
ATOM     18  N   UNL     1      -3.459   2.257 -10.003  0.00  0.00    -0.295 N 
ATOM     19  C   UNL     1      -4.910   2.314 -10.195  0.00  0.00    +0.154 C 
ATOM     20  C   UNL     1      -0.038   2.261 -11.182  0.00  0.00    +0.154 C 
ENDBRANCH   5   9
BRANCH   1  21
ATOM     21  C   UNL     1       0.295   0.724  -0.765  0.00  0.00    +0.082 C 
ATOM     22  C   UNL     1       0.324  -0.733  -0.301  0.00  0.00    +0.028 C 
BRANCH  21  24
ATOM     23  C   UNL     1      -0.386   3.046  -0.141  0.00  0.00    +0.006 C 
ATOM     24  C   UNL     1      -0.465   1.571   0.258  0.00  0.00    +0.019 C 
ENDBRANCH  21  24
ENDBRANCH   1  21
TORSDOF 3
