REMARK  Name = ZINC20262924
REMARK  5 active torsions:
REMARK  status: ('A' for Active; 'I' for Inactive)
REMARK    1  A    between atoms: C_1  and  C_2
REMARK    2  A    between atoms: N_7  and  S_9
REMARK    3  A    between atoms: S_9  and  C_12
REMARK    4  A    between atoms: C_15  and  N_19
REMARK    5  A    between atoms: C_16  and  N_18
REMARK                            x       y       z     vdW  Elec       q    Type
REMARK                         _______ _______ _______ _____ _____    ______ ____
ROOT
ATOM      1  C   UNL     1      -1.142   1.632   0.040  0.00  0.00    +0.107 A 
ATOM      2  C   UNL     1       0.127   1.085  -0.002  0.00  0.00    +0.030 A 
ATOM      3  C   UNL     1       1.238   1.908  -0.032  0.00  0.00    +0.027 A 
ATOM      4  C   UNL     1       1.081   3.286  -0.015  0.00  0.00    +0.051 A 
ATOM      5  C   UNL     1      -0.199   3.837   0.033  0.00  0.00    +0.048 A 
ATOM      6  C   UNL     1      -1.308   3.004   0.063  0.00  0.00    +0.053 A 
ENDROOT
BRANCH   4   7
ATOM      7  N   UNL     1       2.204   4.121  -0.045  0.00  0.00    -0.328 N 
ATOM      8  C   UNL     1       3.459   3.326  -0.017  0.00  0.00    +0.105 C 
ATOM      9  C   UNL     1       4.516   4.312  -0.576  0.00  0.00    +0.020 C 
ATOM     10  C   UNL     1       3.735   5.070  -1.674  0.00  0.00    +0.020 C 
ATOM     11  C   UNL     1       2.250   4.902  -1.300  0.00  0.00    +0.105 C 
ENDBRANCH   4   7
BRANCH   1  12
ATOM     12  S   UNL     1      -2.552   0.576   0.071  0.00  0.00    +0.061 S 
ATOM     13  O   UNL     1      -3.639   1.335  -0.442  0.00  0.00    -0.153 OA
ATOM     14  O   UNL     1      -2.148  -0.659  -0.504  0.00  0.00    -0.153 OA
BRANCH  12  20
ATOM     15  C   UNL     1      -5.797   1.151   3.931  0.00  0.00    +0.009 C 
ATOM     16  C   UNL     1      -4.914   0.280   3.036  0.00  0.00    +0.002 C 
ATOM     17  C   UNL     1      -4.275  -0.830   3.874  0.00  0.00    +0.006 C 
ATOM     18  C   UNL     1      -3.418  -1.722   2.974  0.00  0.00    +0.017 C 
ATOM     19  C   UNL     1      -2.303  -0.887   2.346  0.00  0.00    +0.109 C 
ATOM     20  N   UNL     1      -2.899   0.268   1.661  0.00  0.00    -0.176 NA
ATOM     21  C   UNL     1      -3.812   1.141   2.411  0.00  0.00    +0.112 C 
ENDBRANCH  12  20
ENDBRANCH   1  12
BRANCH   5  22
ATOM     22  N   UNL     1      -0.365   5.227   0.050  0.00  0.00    -0.356 N 
ATOM     23  H   UNL     1      -1.375   5.660   0.088  0.00  0.00    +0.142 HD
ATOM     24  H   UNL     1       0.516   5.886   0.026  0.00  0.00    +0.142 HD
ENDBRANCH   5  22
TORSDOF 4
