REMARK  Name = ZINC39470451
REMARK  7 active torsions:
REMARK  status: ('A' for Active; 'I' for Inactive)
REMARK    1  A    between atoms: C_4  and  N_7
REMARK    2  A    between atoms: C_10  and  S_13
REMARK    3  A    between atoms: S_13  and  C_14
REMARK    4  A    between atoms: C_14  and  C_15
REMARK    5  A    between atoms: N_17  and  C_18
REMARK    6  A    between atoms: C_18  and  C_19
REMARK    7  A    between atoms: C_19  and  C_20
REMARK                            x       y       z     vdW  Elec       q    Type
REMARK                         _______ _______ _______ _____ _____    ______ ____
ROOT
ATOM      1  C   UNL     1       5.494  -2.821   4.098  0.00  0.00    +0.223 C 
ATOM      2  O   UNL     1       6.086  -3.880   4.097  0.00  0.00    -0.275 OA
ATOM      3  N   UNL     1       5.158  -2.238   5.265  0.00  0.00    -0.314 N 
ATOM      4  H   UNL     1       4.684  -1.392   5.266  0.00  0.00    +0.149 HD
ENDROOT
BRANCH   1   5
ATOM      5  C   UNL     1       5.135  -2.158   2.793  0.00  0.00    +0.168 C 
BRANCH   5   6
ATOM      6  S   UNL     1       5.719  -3.181   1.414  0.00  0.00    -0.110 S 
BRANCH   6  10
ATOM      7  N   UNL     1       3.621  -0.650  -0.036  0.00  0.00    -0.225 N 
ATOM      8  C   UNL     1       4.848  -0.053  -0.040  0.00  0.00    +0.176 C 
ATOM      9  N   UNL     1       5.810  -0.910  -0.054  0.00  0.00    -0.353 N 
ATOM     10  C   UNL     1       5.215  -2.255  -0.063  0.00  0.00    +0.226 C 
ATOM     11  N   UNL     1       3.758  -2.011  -0.045  0.00  0.00    -0.203 NA
ATOM     12  H   UNL     1       3.316  -2.414  -0.858  0.00  0.00    +0.148 HD
ATOM     13  H   UNL     1       6.758  -0.705  -0.060  0.00  0.00    +0.163 HD
BRANCH   7  17
ATOM     14  C   UNL     1      -0.017   1.379   0.010  0.00  0.00    +0.000 A 
ATOM     15  C   UNL     1       1.170   2.089   0.002  0.00  0.00    +0.002 A 
ATOM     16  C   UNL     1       2.377   1.420  -0.013  0.00  0.00    +0.025 A 
ATOM     17  C   UNL     1       2.400   0.031  -0.021  0.00  0.00    +0.051 A 
ATOM     18  C   UNL     1       1.206  -0.680  -0.013  0.00  0.00    +0.025 A 
ATOM     19  C   UNL     1       0.002  -0.004   0.002  0.00  0.00    +0.002 A 
ENDBRANCH   7  17
ENDBRANCH   6  10
ENDBRANCH   5   6
ENDBRANCH   1   5
BRANCH   3  20
ATOM     20  C   UNL     1       5.507  -2.883   6.534  0.00  0.00    +0.109 C 
BRANCH  20  21
ATOM     21  C   UNL     1       5.014  -2.021   7.697  0.00  0.00    +0.056 C 
BRANCH  21  22
ATOM     22  C   UNL     1       5.373  -2.684   9.002  0.00  0.00    -0.021 A 
ATOM     23  C   UNL     1       6.648  -2.573   9.714  0.00  0.00    +0.003 A 
ATOM     24  C   UNL     1       7.842  -1.893   9.466  0.00  0.00    +0.010 A 
ATOM     25  C   UNL     1       8.877  -1.995  10.352  0.00  0.00    +0.001 A 
ATOM     26  C   UNL     1       8.753  -2.771  11.496  0.00  0.00    +0.002 A 
ATOM     27  C   UNL     1       7.583  -3.451  11.760  0.00  0.00    +0.026 A 
ATOM     28  C   UNL     1       6.516  -3.360  10.873  0.00  0.00    +0.047 A 
ATOM     29  N   UNL     1       5.251  -3.903  10.853  0.00  0.00    -0.360 N 
ATOM     30  C   UNL     1       4.583  -3.485   9.734  0.00  0.00    +0.087 A 
ATOM     31  H   UNL     1       4.886  -4.491  11.533  0.00  0.00    +0.165 HD
ENDBRANCH  21  22
ENDBRANCH  20  21
ENDBRANCH   3  20
TORSDOF 7
