REMARK  Name = ZINC40166808
REMARK  1 active torsions:
REMARK  status: ('A' for Active; 'I' for Inactive)
REMARK    1  A    between atoms: C_6  and  N_11
REMARK                            x       y       z     vdW  Elec       q    Type
REMARK                         _______ _______ _______ _____ _____    ______ ____
ROOT
ATOM      1  N   UNL     1       4.910  -2.667  -0.058  0.00  0.00    -0.249 N 
ATOM      2  C   UNL     1       5.080  -4.126   0.032  0.00  0.00    +0.126 C 
ATOM      3  C   UNL     1       4.450  -4.628   1.349  0.00  0.00    +0.190 C 
ATOM      4  S   UNL     1       5.714  -5.845   1.918  0.00  0.00    -0.027 S 
ATOM      5  O   UNL     1       5.518  -7.079   1.240  0.00  0.00    -0.174 OA
ATOM      6  O   UNL     1       5.784  -5.823   3.337  0.00  0.00    -0.174 OA
ATOM      7  C   UNL     1       7.194  -4.993   1.219  0.00  0.00    +0.190 C 
ATOM      8  C   UNL     1       6.598  -4.327  -0.030  0.00  0.00    +0.118 C 
ATOM      9  N   UNL     1       7.134  -2.962  -0.149  0.00  0.00    -0.293 N 
ATOM     10  C   UNL     1       6.115  -2.092  -0.162  0.00  0.00    +0.307 C 
ATOM     11  O   UNL     1       6.271  -0.889  -0.257  0.00  0.00    -0.252 OA
ATOM     12  H   UNL     1       8.074  -2.730  -0.211  0.00  0.00    +0.151 HD
ENDROOT
BRANCH   1  18
ATOM     13  C   UNL     1      -0.016   1.357   0.028  0.00  0.00    +0.001 A 
ATOM     14  C   UNL     1       1.169   2.090   0.041  0.00  0.00    +0.001 A 
ATOM     15  C   UNL     1       2.378   1.467   0.027  0.00  0.00    +0.008 A 
ATOM     16  C   UNL     1       2.437   0.063  -0.001  0.00  0.00    -0.016 A 
ATOM     17  C   UNL     1       3.668  -0.613  -0.016  0.00  0.00    +0.032 A 
ATOM     18  C   UNL     1       3.685  -1.990  -0.043  0.00  0.00    +0.039 A 
ATOM     19  C   UNL     1       2.490  -2.719  -0.055  0.00  0.00    +0.024 A 
ATOM     20  C   UNL     1       1.287  -2.088  -0.042  0.00  0.00    +0.010 A 
ATOM     21  C   UNL     1       1.232  -0.683  -0.014  0.00  0.00    -0.018 A 
ATOM     22  C   UNL     1       0.002  -0.004   0.001  0.00  0.00    +0.008 A 
ENDBRANCH   1  18
TORSDOF 1
