REMARK  Name = ZINC05818644
REMARK  5 active torsions:
REMARK  status: ('A' for Active; 'I' for Inactive)
REMARK    1  A    between atoms: C_1  and  C_2
REMARK    2  A    between atoms: C_6  and  C_7
REMARK    3  A    between atoms: C_10  and  C_21
REMARK    4  A    between atoms: C_16  and  N_20
REMARK    5  A    between atoms: C_17  and  C_18
REMARK                            x       y       z     vdW  Elec       q    Type
REMARK                         _______ _______ _______ _____ _____    ______ ____
ROOT
ATOM      1  C   UNL     1       0.030  -0.179   2.581  0.00  0.00    +0.109 C 
ATOM      2  C   UNL     1       1.264  -0.665   3.295  0.00  0.00    +0.059 A 
ATOM      3  C   UNL     1       2.586  -0.272   3.134  0.00  0.00    +0.173 A 
ATOM      4  N   UNL     1       3.322  -0.967   3.968  0.00  0.00    -0.167 NA
ATOM      5  N   UNL     1       2.482  -1.830   4.689  0.00  0.00    -0.246 N 
ATOM      6  H   UNL     1       2.760  -2.458   5.373  0.00  0.00    +0.192 HD
ATOM      7  C   UNL     1       1.224  -1.630   4.263  0.00  0.00    +0.223 A 
ATOM      8  O   UNL     1       0.070  -2.222   4.660  0.00  0.00    -0.423 OA
ATOM      9  C   UNL     1      -1.089  -1.651   4.275  0.00  0.00    +0.200 C 
ATOM     10  C   UNL     1      -1.179  -0.698   3.320  0.00  0.00    +0.099 C 
ENDROOT
BRANCH   1  16
ATOM     11  C   UNL     1      -0.018   1.503   0.010  0.00  0.00    +0.044 C 
ATOM     12  C   UNL     1       0.002  -0.004   0.002  0.00  0.00    -0.039 A 
ATOM     13  C   UNL     1       0.006  -0.699  -1.193  0.00  0.00    +0.011 A 
ATOM     14  C   UNL     1       0.024  -2.054  -1.165  0.00  0.00    +0.046 A 
ATOM     15  S   UNL     1       0.037  -2.387   0.589  0.00  0.00    -0.100 S 
ATOM     16  C   UNL     1       0.023  -0.698   1.166  0.00  0.00    +0.005 A 
ENDBRANCH   1  16
BRANCH   3  17
ATOM     17  C   UNL     1       3.087   0.771   2.169  0.00  0.00    +0.436 C 
ATOM     18  F   UNL     1       3.078   2.025   2.791  0.00  0.00    -0.164 F 
ATOM     19  F   UNL     1       4.392   0.455   1.776  0.00  0.00    -0.164 F 
ATOM     20  F   UNL     1       2.256   0.803   1.043  0.00  0.00    -0.164 F 
ENDBRANCH   3  17
BRANCH   9  21
ATOM     21  N   UNL     1      -2.247  -2.062   4.887  0.00  0.00    -0.328 N 
ATOM     22  H   UNL     1      -2.215  -2.744   5.576  0.00  0.00    +0.145 HD
ATOM     23  H   UNL     1      -3.096  -1.670   4.632  0.00  0.00    +0.145 HD
ENDBRANCH   9  21
BRANCH  10  24
ATOM     24  C   UNL     1      -2.467  -0.161   2.998  0.00  0.00    +0.101 C 
ATOM     25  N   UNL     1      -3.488   0.265   2.743  0.00  0.00    -0.191 NA
ENDBRANCH  10  24
TORSDOF 4
