REMARK  Name = ZINC01366214
REMARK  8 active torsions:
REMARK  status: ('A' for Active; 'I' for Inactive)
REMARK    1  A    between atoms: C_1  and  C_2
REMARK    2  A    between atoms: C_2  and  O_3
REMARK    3  A    between atoms: O_3  and  C_4
REMARK    4  A    between atoms: C_4  and  C_6
REMARK    5  A    between atoms: C_6  and  C_8
REMARK    6  A    between atoms: C_6  and  S_9
REMARK    7  A    between atoms: S_9  and  C_10
REMARK    8  A    between atoms: N_20  and  C_21
REMARK                            x       y       z     vdW  Elec       q    Type
REMARK                         _______ _______ _______ _____ _____    ______ ____
ROOT
ATOM      1  C   UNL     1       5.250   1.319  -0.040  0.00  0.00    +0.212 A 
ATOM      2  N   UNL     1       4.673   2.513  -0.029  0.00  0.00    -0.201 NA
ATOM      3  C   UNL     1       3.346   2.594  -0.016  0.00  0.00    +0.165 A 
ATOM      4  C   UNL     1       2.602   1.396  -0.015  0.00  0.00    +0.138 A 
ATOM      5  C   UNL     1       1.183   1.791   0.000  0.00  0.00    +0.030 A 
ATOM      6  C   UNL     1      -0.013   1.076   0.008  0.00  0.00    +0.027 A 
ATOM      7  C   UNL     1      -1.215   1.751   0.017  0.00  0.00    +0.019 A 
ATOM      8  C   UNL     1      -1.236   3.138   0.028  0.00  0.00    +0.017 A 
ATOM      9  C   UNL     1      -0.060   3.857   0.022  0.00  0.00    +0.027 A 
ATOM     10  C   UNL     1       1.162   3.194   0.008  0.00  0.00    +0.053 A 
ATOM     11  N   UNL     1       2.470   3.651  -0.002  0.00  0.00    -0.327 N 
ATOM     12  C   UNL     1       2.863   5.063   0.001  0.00  0.00    +0.151 C 
ATOM     13 BR   UNL     1      -2.840   0.783   0.020  0.00  0.00    -0.050 Br
ATOM     14  N   UNL     1       3.239   0.235  -0.027  0.00  0.00    -0.143 NA
ATOM     15  N   UNL     1       4.527   0.203  -0.039  0.00  0.00    -0.122 NA
ENDROOT
BRANCH   1  16
ATOM     16  S   UNL     1       7.009   1.208  -0.057  0.00  0.00    -0.070 S 
BRANCH  16  17
ATOM     17  C   UNL     1       7.211  -0.590  -0.067  0.00  0.00    +0.160 C 
ATOM     18  C   UNL     1       6.650  -1.159  -1.372  0.00  0.00    +0.031 C 
BRANCH  17  19
ATOM     19  C   UNL     1       8.674  -0.932   0.042  0.00  0.00    +0.320 C 
ATOM     20  O   UNL     1       9.510  -0.106  -0.240  0.00  0.00    -0.250 OA
BRANCH  19  21
ATOM     21  O   UNL     1       9.050  -2.154   0.452  0.00  0.00    -0.464 OA
BRANCH  21  23
ATOM     22  C   UNL     1      10.708  -3.846   1.016  0.00  0.00    +0.048 C 
ATOM     23  C   UNL     1      10.476  -2.413   0.533  0.00  0.00    +0.229 C 
ENDBRANCH  21  23
ENDBRANCH  19  21
ENDBRANCH  17  19
ENDBRANCH  16  17
ENDBRANCH   1  16
TORSDOF 5
