REMARK  Name = ZINC15297753
REMARK  6 active torsions:
REMARK  status: ('A' for Active; 'I' for Inactive)
REMARK    1  A    between atoms: C_1  and  C_2
REMARK    2  A    between atoms: C_7  and  N_12
REMARK    3  A    between atoms: C_9  and  C_11
REMARK    4  A    between atoms: C_13  and  C_15
REMARK    5  A    between atoms: C_15  and  N_16
REMARK    6  A    between atoms: C_19  and  C_22
REMARK                            x       y       z     vdW  Elec       q    Type
REMARK                         _______ _______ _______ _____ _____    ______ ____
ROOT
ATOM      1  N   UNL     1       3.338  -5.571   3.355  0.00  0.00    +0.385 N 
ATOM      2  C   UNL     1       4.345  -5.490   2.290  0.00  0.00    -0.077 C 
ATOM      3  C   UNL     1       4.853  -6.894   1.956  0.00  0.00    -0.006 C 
ATOM      4  C   UNL     1       5.479  -7.516   3.208  0.00  0.00    +0.072 C 
ATOM      5  C   UNL     1       4.442  -7.526   4.334  0.00  0.00    -0.006 C 
ATOM      6  C   UNL     1       3.949  -6.099   4.580  0.00  0.00    -0.077 C 
ATOM      7  H   UNL     1       2.590  -6.182   3.063  0.00  0.00    -0.081 HD
ENDROOT
BRANCH   4   8
ATOM      8  C   UNL     1       5.911  -8.928   2.907  0.00  0.00    +0.219 C 
ATOM      9  O   UNL     1       5.260  -9.612   2.146  0.00  0.00    -0.275 OA
ATOM     10  N   UNL     1       7.021  -9.430   3.483  0.00  0.00    -0.297 N 
ATOM     11  C   UNL     1       7.759  -8.665   4.501  0.00  0.00    +0.136 C 
ATOM     12  C   UNL     1       7.982  -9.570   5.718  0.00  0.00    +0.179 C 
ATOM     13  O   UNL     1       8.578 -10.796   5.290  0.00  0.00    -0.377 OA
ATOM     14  C   UNL     1       7.765 -11.563   4.398  0.00  0.00    +0.179 C 
ATOM     15  C   UNL     1       7.528 -10.763   3.117  0.00  0.00    +0.136 C 
ENDBRANCH   4   8
BRANCH   1  16
ATOM     16  C   UNL     1       2.797  -4.230   3.618  0.00  0.00    +0.019 C 
BRANCH  16  18
ATOM     17  N   UNL     1       1.479  -2.522   2.409  0.00  0.00    -0.314 N 
ATOM     18  C   UNL     1       2.062  -3.737   2.398  0.00  0.00    +0.197 C 
ATOM     19  O   UNL     1       1.995  -4.433   1.408  0.00  0.00    -0.278 OA
ATOM     20  H   UNL     1       1.533  -1.965   3.201  0.00  0.00    +0.149 HD
BRANCH  17  26
ATOM     21  C   UNL     1      -0.019   1.518  -0.016  0.00  0.00    +0.008 C 
ATOM     22  C   UNL     1      -0.001  -0.011  -0.015  0.00  0.00    -0.009 C 
ATOM     23  C   UNL     1      -1.437  -0.539   0.007  0.00  0.00    +0.003 C 
ATOM     24  C   UNL     1      -1.418  -2.068   0.007  0.00  0.00    +0.002 C 
ATOM     25  C   UNL     1      -0.672  -2.569   1.246  0.00  0.00    +0.022 C 
ATOM     26  C   UNL     1       0.764  -2.042   1.223  0.00  0.00    +0.076 C 
ATOM     27  C   UNL     1       0.746  -0.512   1.223  0.00  0.00    +0.009 C 
ATOM     28  C   UNL     1       0.038  -0.010   2.483  0.00  0.00    +0.009 C 
ENDBRANCH  17  26
ENDBRANCH  16  18
ENDBRANCH   1  16
TORSDOF 4
