REMARK  Name = ZINC20745567
REMARK  9 active torsions:
REMARK  status: ('A' for Active; 'I' for Inactive)
REMARK    1  A    between atoms: C_1  and  O_2
REMARK    2  A    between atoms: O_2  and  C_3
REMARK    3  A    between atoms: C_3  and  C_5
REMARK    4  A    between atoms: C_5  and  C_7
REMARK    5  A    between atoms: C_5  and  N_11
REMARK    6  A    between atoms: C_7  and  C_8
REMARK    7  A    between atoms: C_8  and  S_9
REMARK    8  A    between atoms: S_9  and  C_10
REMARK    9  A    between atoms: C_23  and  C_25
REMARK                            x       y       z     vdW  Elec       q    Type
REMARK                         _______ _______ _______ _____ _____    ______ ____
ROOT
ATOM      1  N   UNL     1       3.523  -2.265   1.119  0.00  0.00    -0.286 N 
ATOM      2  C   UNL     1       2.793  -2.579   2.207  0.00  0.00    +0.304 C 
ATOM      3  O   UNL     1       1.588  -2.418   2.198  0.00  0.00    -0.253 OA
ATOM      4  N   UNL     1       3.399  -3.071   3.306  0.00  0.00    -0.273 N 
ATOM      5  C   UNL     1       2.610  -3.527   4.460  0.00  0.00    +0.116 C 
ATOM      6  C   UNL     1       2.922  -2.632   5.667  0.00  0.00    +0.074 C 
ATOM      7  C   UNL     1       4.413  -2.438   5.753  0.00  0.00    +0.040 A 
ATOM      8  C   UNL     1       5.281  -2.667   4.745  0.00  0.00    +0.062 A 
ATOM      9  N   UNL     1       6.510  -2.383   5.182  0.00  0.00    -0.348 N 
ATOM     10  C   UNL     1       6.441  -1.988   6.426  0.00  0.00    +0.171 A 
ATOM     11  N   UNL     1       5.146  -2.011   6.819  0.00  0.00    -0.349 N 
ATOM     12  H   UNL     1       4.805  -1.768   7.694  0.00  0.00    +0.166 HD
ATOM     13  C   UNL     1       4.867  -3.170   3.378  0.00  0.00    +0.159 C 
ATOM     14  H   UNL     1       4.491  -2.328   1.149  0.00  0.00    +0.151 HD
ATOM     15  H   UNL     1       7.324  -2.457   4.659  0.00  0.00    +0.167 HD
ENDROOT
BRANCH  13  16
ATOM     16  C   UNL     1       5.293  -4.605   3.205  0.00  0.00    +0.014 A 
ATOM     17  C   UNL     1       5.669  -5.352   4.306  0.00  0.00    +0.010 A 
ATOM     18  C   UNL     1       6.060  -6.668   4.148  0.00  0.00    +0.020 A 
ATOM     19  C   UNL     1       6.075  -7.240   2.888  0.00  0.00    +0.044 A 
ATOM     20  C   UNL     1       5.699  -6.495   1.786  0.00  0.00    +0.058 A 
ATOM     21  C   UNL     1       5.303  -5.177   1.944  0.00  0.00    +0.130 A 
ATOM     22  F   UNL     1       4.931  -4.449   0.869  0.00  0.00    -0.205 F 
ATOM     23 CL   UNL     1       6.567  -8.893   2.691  0.00  0.00    -0.083 Cl
ENDBRANCH  13  16
BRANCH   1  24
ATOM     24  C   UNL     1       2.856  -1.829  -0.111  0.00  0.00    +0.184 C 
BRANCH  24  25
ATOM     25  C   UNL     1       2.443  -3.036  -0.913  0.00  0.00    +0.327 C 
ATOM     26  O   UNL     1       2.682  -4.147  -0.501  0.00  0.00    -0.249 OA
BRANCH  25  28
ATOM     27  C   UNL     1       1.448  -4.066  -2.794  0.00  0.00    +0.280 C 
ATOM     28  O   UNL     1       1.810  -2.878  -2.086  0.00  0.00    -0.467 OA
ENDBRANCH  25  28
ENDBRANCH  24  25
BRANCH  24  29
ATOM     29  C   UNL     1       3.817  -0.972  -0.936  0.00  0.00    +0.044 C 
BRANCH  29  30
ATOM     30  C   UNL     1       4.138   0.314  -0.172  0.00  0.00    +0.071 C 
BRANCH  30  31
ATOM     31  S   UNL     1       5.278   1.330  -1.151  0.00  0.00    -0.164 S 
ATOM     32  C   UNL     1       5.555   2.797  -0.120  0.00  0.00    +0.084 C 
ENDBRANCH  30  31
ENDBRANCH  29  30
ENDBRANCH  24  29
ENDBRANCH   1  24
TORSDOF 7
