REMARK  Name = ZINC08327340
REMARK  6 active torsions:
REMARK  status: ('A' for Active; 'I' for Inactive)
REMARK    1  A    between atoms: C_1  and  O_2
REMARK    2  A    between atoms: O_2  and  C_3
REMARK    3  A    between atoms: C_6  and  C_10
REMARK    4  A    between atoms: C_10  and  N_57
REMARK    5  A    between atoms: C_16  and  C_18
REMARK    6  A    between atoms: C_18  and  N_19
REMARK                            x       y       z     vdW  Elec       q    Type
REMARK                         _______ _______ _______ _____ _____    ______ ____
ROOT
ATOM      1  C   UNL     1      -4.653   3.043   3.227  0.00  0.00    -0.059 C 
ATOM      2  C   UNL     1      -3.176   3.425   3.082  0.00  0.00    +0.089 C 
ATOM      3  N   UNL     1      -2.756   3.151   1.700  0.00  0.00    -0.304 N 
ATOM      4  C   UNL     1      -3.570   3.698   0.604  0.00  0.00    +0.089 C 
ATOM      5  C   UNL     1      -5.034   3.300   0.846  0.00  0.00    -0.059 C 
ATOM      6  C   UNL     1      -1.651   2.422   1.444  0.00  0.00    +0.233 C 
ATOM      7  O   UNL     1      -0.989   1.983   2.360  0.00  0.00    -0.274 OA
ATOM      8  N   UNL     1      -5.432   3.760   2.195  0.00  0.00    +0.384 N 
ATOM      9  H   UNL     1      -5.242   4.766   2.273  0.00  0.00    -0.081 HD
ENDROOT
BRANCH   8  10
ATOM     10  C   UNL     1      -6.877   3.528   2.401  0.00  0.00    -0.043 C 
BRANCH  10  14
ATOM     11  C   UNL     1      -9.027   4.956  -1.006  0.00  0.00    +0.155 A 
ATOM     12  C   UNL     1      -8.756   5.809   0.053  0.00  0.00    +0.049 A 
ATOM     13  C   UNL     1      -8.065   5.343   1.155  0.00  0.00    +0.005 A 
ATOM     14  C   UNL     1      -7.634   4.031   1.199  0.00  0.00    -0.061 A 
ATOM     15  C   UNL     1      -7.902   3.177   0.145  0.00  0.00    +0.044 A 
ATOM     16  C   UNL     1      -8.598   3.636  -0.959  0.00  0.00    +0.165 A 
ATOM     17  F   UNL     1      -8.859   2.802  -1.989  0.00  0.00    -0.202 F 
BRANCH  11  19
ATOM     18  C   UNL     1     -10.121   6.780  -2.070  0.00  0.00    +0.277 C 
ATOM     19  O   UNL     1      -9.711   5.411  -2.090  0.00  0.00    -0.492 OA
ENDBRANCH  11  19
ENDBRANCH  10  14
ENDBRANCH   8  10
BRANCH   6  20
ATOM     20  C   UNL     1      -1.239   2.153   0.020  0.00  0.00    +0.213 C 
BRANCH  20  21
ATOM     21  N   UNL     1      -0.016   1.346   0.009  0.00  0.00    -0.215 N 
ATOM     22  C   UNL     1       0.002  -0.004   0.002  0.00  0.00    +0.247 C 
ATOM     23  O   UNL     1      -0.952  -0.753   0.007  0.00  0.00    -0.273 OA
ATOM     24  C   UNL     1       1.461  -0.382  -0.014  0.00  0.00    +0.113 C 
ATOM     25  C   UNL     1       1.804  -1.205  -1.263  0.00  0.00    +0.035 C 
ATOM     26  C   UNL     1       2.878  -2.208  -0.767  0.00  0.00    +0.003 C 
ATOM     27  C   UNL     1       2.390  -2.558   0.661  0.00  0.00    +0.003 C 
ATOM     28  C   UNL     1       1.831  -1.226   1.208  0.00  0.00    +0.035 C 
ATOM     29  N   UNL     1       2.171   0.899  -0.014  0.00  0.00    -0.285 N 
ATOM     30  C   UNL     1       1.222   1.856   0.000  0.00  0.00    +0.310 C 
ATOM     31  O   UNL     1       1.463   3.047   0.004  0.00  0.00    -0.252 OA
ATOM     32  H   UNL     1       3.132   1.032  -0.022  0.00  0.00    +0.151 HD
ENDBRANCH  20  21
ENDBRANCH   6  20
TORSDOF 5
