REMARK  Name = ZINC29501062
REMARK  3 active torsions:
REMARK  status: ('A' for Active; 'I' for Inactive)
REMARK    1  A    between atoms: C_1  and  C_2
REMARK    2  A    between atoms: N_5  and  C_9
REMARK    3  A    between atoms: C_9  and  N_10
REMARK                            x       y       z     vdW  Elec       q    Type
REMARK                         _______ _______ _______ _____ _____    ______ ____
ROOT
ATOM      1  N   UNL     1       3.394   2.363  -0.018  0.00  0.00    -0.261 N 
ATOM      2  C   UNL     1       2.388   1.397  -0.013  0.00  0.00    +0.092 A 
ATOM      3  C   UNL     1       2.400   0.011  -0.021  0.00  0.00    +0.031 A 
ATOM      4  C   UNL     1       1.207  -0.686  -0.013  0.00  0.00    +0.017 A 
ATOM      5  C   UNL     1       0.002  -0.004   0.002  0.00  0.00    +0.021 A 
ATOM      6  C   UNL     1      -0.017   1.378   0.010  0.00  0.00    +0.063 A 
ATOM      7  C   UNL     1       1.175   2.085   0.002  0.00  0.00    +0.158 A 
ATOM      8  O   UNL     1       1.464   3.410   0.006  0.00  0.00    -0.407 OA
ATOM      9  C   UNL     1       2.796   3.571  -0.005  0.00  0.00    +0.422 A 
ATOM     10  O   UNL     1       3.375   4.641  -0.005  0.00  0.00    -0.223 OA
ATOM     11 BR   UNL     1      -1.625  -0.968   0.012  0.00  0.00    -0.050 Br
ENDROOT
BRANCH   1  12
ATOM     12  C   UNL     1       4.838   2.111  -0.033  0.00  0.00    +0.216 C 
BRANCH  12  16
ATOM     13  C   UNL     1       8.282   0.373  -3.089  0.00  0.00    +0.039 C 
ATOM     14  C   UNL     1       6.958   1.133  -2.989  0.00  0.00    +0.129 C 
ATOM     15  C   UNL     1       6.538   1.237  -1.520  0.00  0.00    +0.117 C 
ATOM     16  N   UNL     1       5.307   2.034  -1.423  0.00  0.00    -0.280 NA
ATOM     17  C   UNL     1       5.509   3.377  -1.985  0.00  0.00    +0.114 C 
ATOM     18  C   UNL     1       5.939   3.251  -3.449  0.00  0.00    +0.175 C 
ATOM     19  O   UNL     1       7.120   2.448  -3.527  0.00  0.00    -0.374 OA
ENDBRANCH  12  16
ENDBRANCH   1  12
TORSDOF 2
