REMARK  Name = ZINC28058033
REMARK  6 active torsions:
REMARK  status: ('A' for Active; 'I' for Inactive)
REMARK    1  A    between atoms: C_1  and  O_2
REMARK    2  A    between atoms: O_2  and  C_3
REMARK    3  A    between atoms: C_8  and  C_9
REMARK    4  A    between atoms: C_20  and  C_22
REMARK    5  A    between atoms: C_25  and  S_28
REMARK    6  A    between atoms: S_28  and  C_29
REMARK                            x       y       z     vdW  Elec       q    Type
REMARK                         _______ _______ _______ _____ _____    ______ ____
ROOT
ATOM      1  C   UNL     1       0.684   3.742   0.035  0.00  0.00    +0.177 C 
ATOM      2  C   UNL     1       0.241   4.206   1.401  0.00  0.00    +0.026 C 
ATOM      3  C   UNL     1      -0.915   4.842   1.599  0.00  0.00    +0.050 C 
ATOM      4  C   UNL     1      -1.261   5.266   2.977  0.00  0.00    +0.038 A 
ATOM      5  C   UNL     1      -2.559   5.618   3.325  0.00  0.00    +0.013 A 
ATOM      6  C   UNL     1      -2.833   6.011   4.621  0.00  0.00    +0.001 A 
ATOM      7  C   UNL     1      -1.823   6.054   5.567  0.00  0.00    +0.004 A 
ATOM      8  C   UNL     1      -0.528   5.705   5.228  0.00  0.00    +0.046 A 
ATOM      9  C   UNL     1      -0.240   5.309   3.936  0.00  0.00    +0.131 A 
ATOM     10  O   UNL     1       1.017   4.956   3.564  0.00  0.00    -0.479 OA
ATOM     11  C   UNL     1       1.139   3.925   2.584  0.00  0.00    +0.234 C 
ATOM     12  N   UNL     1      -1.802   5.125   0.553  0.00  0.00    -0.282 N 
ATOM     13  C   UNL     1      -1.324   4.982  -0.739  0.00  0.00    +0.240 A 
ATOM     14  N   UNL     1      -0.154   4.340  -0.994  0.00  0.00    -0.201 N 
ATOM     15  N   UNL     1       0.009   4.399  -2.377  0.00  0.00    -0.042 NA
ATOM     16  N   UNL     1      -1.020   5.032  -2.843  0.00  0.00    -0.021 NA
ATOM     17  N   UNL     1      -1.808   5.376  -1.882  0.00  0.00    -0.092 NA
ATOM     18  H   UNL     1      -2.830   5.447   0.775  0.00  0.00    +0.155 HD
ENDROOT
BRANCH   1  24
ATOM     19  C   UNL     1       1.705   1.476  -0.297  0.00  0.00    +0.126 A 
ATOM     20  C   UNL     1       1.602   0.094  -0.368  0.00  0.00    +0.046 A 
ATOM     21  C   UNL     1       0.377  -0.516  -0.184  0.00  0.00    +0.004 A 
ATOM     22  C   UNL     1      -0.747   0.248   0.070  0.00  0.00    +0.001 A 
ATOM     23  C   UNL     1      -0.647   1.625   0.141  0.00  0.00    +0.009 A 
ATOM     24  C   UNL     1       0.576   2.241  -0.042  0.00  0.00    +0.023 A 
BRANCH  19  26
ATOM     25  C   UNL     1       4.028   1.229  -0.735  0.00  0.00    +0.277 C 
ATOM     26  O   UNL     1       2.909   2.079  -0.476  0.00  0.00    -0.495 OA
ENDBRANCH  19  26
ENDBRANCH   1  24
BRANCH  11  27
ATOM     27  C   UNL     1       0.751   2.606   3.201  0.00  0.00    -0.003 A 
ATOM     28  C   UNL     1       1.554   1.496   3.018  0.00  0.00    +0.008 A 
ATOM     29  C   UNL     1       1.203   0.287   3.586  0.00  0.00    +0.015 A 
ATOM     30  C   UNL     1       0.036   0.184   4.334  0.00  0.00    +0.008 A 
ATOM     31  C   UNL     1      -0.771   1.302   4.512  0.00  0.00    +0.015 A 
ATOM     32  C   UNL     1      -0.411   2.509   3.945  0.00  0.00    +0.008 A 
BRANCH  30  33
ATOM     33  S   UNL     1      -0.418  -1.358   5.054  0.00  0.00    -0.129 S 
ATOM     34  C   UNL     1       0.913  -2.485   4.557  0.00  0.00    +0.090 C 
ENDBRANCH  30  33
ENDBRANCH  11  27
TORSDOF 4
