REMARK  Name = ZINC03464252
REMARK  5 active torsions:
REMARK  status: ('A' for Active; 'I' for Inactive)
REMARK    1  A    between atoms: C_1  and  C_2
REMARK    2  A    between atoms: C_2  and  C_3
REMARK    3  A    between atoms: C_3  and  C_13
REMARK    4  A    between atoms: N_6  and  C_10
REMARK    5  A    between atoms: C_10  and  C_11
REMARK                            x       y       z     vdW  Elec       q    Type
REMARK                         _______ _______ _______ _____ _____    ______ ____
ROOT
ATOM      1  C   UNL     1      -2.514   0.979   0.019  0.00  0.00    +0.138 C 
ATOM      2  C   UNL     1      -2.929   0.637   1.436  0.00  0.00    +0.252 C 
ATOM      3  O   UNL     1      -3.189   1.414   2.330  0.00  0.00    -0.272 OA
ATOM      4  N   UNL     1      -2.951  -0.709   1.495  0.00  0.00    -0.210 N 
ATOM      5  C   UNL     1      -2.611  -1.260   0.324  0.00  0.00    +0.310 C 
ATOM      6  O   UNL     1      -2.559  -2.458   0.131  0.00  0.00    -0.252 OA
ATOM      7  N   UNL     1      -2.333  -0.337  -0.619  0.00  0.00    -0.281 N 
ATOM      8  H   UNL     1      -2.068  -0.504  -1.537  0.00  0.00    +0.152 HD
ENDROOT
BRANCH   1   9
ATOM      9  C   UNL     1      -1.219   1.750   0.017  0.00  0.00    -0.015 A 
ATOM     10  C   UNL     1      -0.013   1.076   0.008  0.00  0.00    +0.007 A 
ATOM     11  C   UNL     1       1.175   1.783   0.000  0.00  0.00    +0.020 A 
ATOM     12  C   UNL     1       1.156   3.166   0.008  0.00  0.00    +0.041 A 
ATOM     13  C   UNL     1      -0.052   3.841   0.023  0.00  0.00    +0.020 A 
ATOM     14  C   UNL     1      -1.239   3.133   0.031  0.00  0.00    +0.007 A 
ATOM     15 CL   UNL     1       2.647   4.055  -0.002  0.00  0.00    -0.084 Cl
ENDBRANCH   1   9
BRANCH   1  17
ATOM     16  C   UNL     1      -4.915   0.970  -0.672  0.00  0.00    +0.007 C 
ATOM     17  C   UNL     1      -3.613   1.774  -0.688  0.00  0.00    +0.037 C 
ENDBRANCH   1  17
BRANCH   4  18
ATOM     18  C   UNL     1      -3.305  -1.474   2.693  0.00  0.00    +0.236 C 
BRANCH  18  19
ATOM     19  C   UNL     1      -4.755  -1.726   2.703  0.00  0.00    +0.082 C 
ATOM     20  N   UNL     1      -5.875  -1.920   2.712  0.00  0.00    -0.195 NA
ENDBRANCH  18  19
ENDBRANCH   4  18
TORSDOF 4
