REMARK  Name = ZINC08967140
REMARK  6 active torsions:
REMARK  status: ('A' for Active; 'I' for Inactive)
REMARK    1  A    between atoms: C_1  and  O_2
REMARK    2  A    between atoms: O_2  and  C_3
REMARK    3  A    between atoms: C_6  and  O_26
REMARK    4  A    between atoms: N_15  and  S_18
REMARK    5  A    between atoms: S_18  and  C_21
REMARK    6  A    between atoms: O_26  and  C_27
REMARK                            x       y       z     vdW  Elec       q    Type
REMARK                         _______ _______ _______ _____ _____    ______ ____
ROOT
ATOM      1  C   UNL     1       1.104   3.578  -8.158  0.00  0.00    +0.147 A 
ATOM      2  C   UNL     1       0.620   3.447  -9.438  0.00  0.00    +0.051 A 
ATOM      3  C   UNL     1       0.593   2.216 -10.079  0.00  0.00    +0.050 A 
ATOM      4  C   UNL     1       1.063   1.094  -9.414  0.00  0.00    +0.136 A 
ATOM      5  C   UNL     1       1.550   1.217  -8.132  0.00  0.00    +0.086 A 
ATOM      6  C   UNL     1       1.593   2.451  -7.449  0.00  0.00    +0.125 A 
ATOM      7  N   UNL     1       2.092   2.409  -6.193  0.00  0.00    -0.221 NA
ATOM      8  C   UNL     1       2.522   1.297  -5.642  0.00  0.00    +0.162 A 
ATOM      9  S   UNL     1       2.231   0.096  -6.934  0.00  0.00    -0.048 S 
ATOM     10  N   UNL     1       3.057   1.103  -4.384  0.00  0.00    -0.307 N 
ATOM     11  C   UNL     1       3.119   2.367  -3.638  0.00  0.00    +0.124 C 
ATOM     12  C   UNL     1       3.880   2.146  -2.326  0.00  0.00    +0.128 C 
ATOM     13  N   UNL     1       3.251   1.029  -1.605  0.00  0.00    -0.173 NA
ATOM     14  C   UNL     1       3.034  -0.233  -2.329  0.00  0.00    +0.128 C 
ATOM     15  C   UNL     1       2.302   0.084  -3.642  0.00  0.00    +0.124 C 
ENDROOT
BRANCH  13  16
ATOM     16  S   UNL     1       2.805   1.186  -0.018  0.00  0.00    +0.067 S 
ATOM     17  O   UNL     1       3.612   2.219   0.531  0.00  0.00    -0.152 OA
ATOM     18  O   UNL     1       2.773  -0.126   0.527  0.00  0.00    -0.152 OA
BRANCH  16  19
ATOM     19  C   UNL     1       1.146   1.780   0.001  0.00  0.00    +0.143 A 
ATOM     20  C   UNL     1      -0.013   1.076   0.008  0.00  0.00    +0.036 A 
ATOM     21  C   UNL     1      -1.213   1.761   0.017  0.00  0.00    +0.010 A 
ATOM     22  C   UNL     1      -1.196   3.116   0.030  0.00  0.00    +0.047 A 
ATOM     23  S   UNL     1       0.555   3.464   0.015  0.00  0.00    -0.077 S 
ENDBRANCH  16  19
ENDBRANCH  13  16
BRANCH   1  25
ATOM     24  C   UNL     1       0.607   5.897  -8.330  0.00  0.00    +0.277 C 
ATOM     25  O   UNL     1       1.113   4.802  -7.565  0.00  0.00    -0.493 OA
ENDBRANCH   1  25
BRANCH   4  26
ATOM     26  O   UNL     1       1.045  -0.121 -10.026  0.00  0.00    -0.494 OA
ATOM     27  C   UNL     1       0.526  -0.171 -11.356  0.00  0.00    +0.277 C 
ENDBRANCH   4  26
TORSDOF 4
