REMARK  Name = ZINC39584618
REMARK  8 active torsions:
REMARK  status: ('A' for Active; 'I' for Inactive)
REMARK    1  A    between atoms: C_1  and  C_2
REMARK    2  A    between atoms: C_2  and  N_3
REMARK    3  A    between atoms: C_14  and  C_16
REMARK    4  A    between atoms: N_17  and  N_18
REMARK    5  A    between atoms: C_19  and  C_21
REMARK    6  A    between atoms: C_24  and  C_27
REMARK    7  A    between atoms: C_30  and  O_33
REMARK    8  A    between atoms: O_33  and  C_34
REMARK                            x       y       z     vdW  Elec       q    Type
REMARK                         _______ _______ _______ _____ _____    ______ ____
ROOT
ATOM      1  C   UNL     1      -5.047  -1.831  -4.026  0.00  0.00    +0.138 C 
ATOM      2  N   UNL     1      -4.766  -1.716  -5.288  0.00  0.00    -0.188 NA
ENDROOT
BRANCH   1  14
ATOM      3  N   UNL     1      -1.372  -0.511   0.012  0.00  0.00    -0.340 N 
ATOM      4  C   UNL     1      -2.105  -0.785   1.154  0.00  0.00    +0.050 A 
ATOM      5  C   UNL     1      -1.804  -0.678   2.508  0.00  0.00    +0.026 A 
ATOM      6  C   UNL     1      -2.744  -1.028   3.454  0.00  0.00    +0.002 A 
ATOM      7  C   UNL     1      -3.994  -1.488   3.069  0.00  0.00    +0.001 A 
ATOM      8  C   UNL     1      -4.310  -1.601   1.732  0.00  0.00    +0.010 A 
ATOM      9  C   UNL     1      -3.370  -1.251   0.767  0.00  0.00    +0.008 A 
ATOM     10  C   UNL     1      -3.382  -1.250  -0.708  0.00  0.00    +0.008 A 
ATOM     11  C   UNL     1      -2.124  -0.778  -1.117  0.00  0.00    +0.050 A 
ATOM     12  C   UNL     1      -1.842  -0.662  -2.476  0.00  0.00    +0.027 A 
ATOM     13  C   UNL     1      -2.781  -1.000  -3.407  0.00  0.00    +0.011 A 
ATOM     14  C   UNL     1      -4.040  -1.468  -3.011  0.00  0.00    -0.005 A 
ATOM     15  C   UNL     1      -4.337  -1.600  -1.655  0.00  0.00    +0.020 A 
BRANCH   3  17
ATOM     16  C   UNL     1      -0.019   1.526   0.010  0.00  0.00    +0.027 C 
ATOM     17  C   UNL     1       0.002  -0.004   0.002  0.00  0.00    +0.119 C 
ENDBRANCH   3  17
ENDBRANCH   1  14
BRANCH   2  18
ATOM     18  N   UNL     1      -5.722  -2.060  -6.252  0.00  0.00    -0.205 N 
ATOM     19  C   UNL     1      -5.431  -1.941  -7.563  0.00  0.00    +0.263 C 
ATOM     20  O   UNL     1      -4.340  -1.536  -7.907  0.00  0.00    -0.271 OA
ATOM     21  H   UNL     1      -6.594  -2.384  -5.977  0.00  0.00    +0.177 HD
BRANCH  19  22
ATOM     22  C   UNL     1      -6.459  -2.311  -8.600  0.00  0.00    +0.240 C 
ATOM     23  C   UNL     1      -6.460  -3.810  -8.843  0.00  0.00    +0.041 C 
ATOM     24  C   UNL     1      -6.127  -3.926 -10.143  0.00  0.00    +0.092 C 
ATOM     25  N   UNL     1      -5.932  -2.699 -10.694  0.00  0.00    -0.153 NA
ATOM     26  N   UNL     1      -6.096  -1.754  -9.914  0.00  0.00    -0.170 NA
BRANCH  24  27
ATOM     27  C   UNL     1      -5.993  -5.211 -10.871  0.00  0.00    +0.002 A 
ATOM     28  C   UNL     1      -6.222  -6.416 -10.209  0.00  0.00    +0.013 A 
ATOM     29  C   UNL     1      -6.097  -7.610 -10.888  0.00  0.00    +0.046 A 
ATOM     30  C   UNL     1      -5.743  -7.612 -12.231  0.00  0.00    +0.120 A 
ATOM     31  C   UNL     1      -5.513  -6.414 -12.893  0.00  0.00    +0.046 A 
ATOM     32  C   UNL     1      -5.643  -5.217 -12.220  0.00  0.00    +0.013 A 
BRANCH  30  33
ATOM     33  O   UNL     1      -5.619  -8.790 -12.897  0.00  0.00    -0.495 OA
ATOM     34  C   UNL     1      -5.252  -8.719 -14.276  0.00  0.00    +0.277 C 
ENDBRANCH  30  33
ENDBRANCH  24  27
ENDBRANCH  19  22
ENDBRANCH   2  18
TORSDOF 6
