REMARK  Name = ZINC66824978
REMARK  6 active torsions:
REMARK  status: ('A' for Active; 'I' for Inactive)
REMARK    1  A    between atoms: C_1  and  C_2
REMARK    2  A    between atoms: C_2  and  C_3
REMARK    3  A    between atoms: C_2  and  C_4
REMARK    4  A    between atoms: C_2  and  C_5
REMARK    5  A    between atoms: N_10  and  C_12
REMARK    6  A    between atoms: C_12  and  C_13
REMARK                            x       y       z     vdW  Elec       q    Type
REMARK                         _______ _______ _______ _____ _____    ______ ____
ROOT
ATOM      1  C   UNL     1       2.304   1.046  -4.072  0.00  0.00    +0.204 C 
ENDROOT
BRANCH   1   2
ATOM      2  C   UNL     1       3.754   1.318  -3.761  0.00  0.00    +0.081 A 
ATOM      3  C   UNL     1       4.812   0.755  -4.384  0.00  0.00    +0.118 A 
ATOM      4  N   UNL     1       5.941   1.268  -3.806  0.00  0.00    -0.304 N 
ATOM      5  C   UNL     1       7.272   1.060  -4.033  0.00  0.00    +0.112 A 
ATOM      6  C   UNL     1       8.204   1.709  -3.304  0.00  0.00    +0.059 A 
ATOM      7  C   UNL     1       7.815   2.611  -2.298  0.00  0.00    +0.045 A 
ATOM      8  C   UNL     1       6.493   2.829  -2.062  0.00  0.00    +0.085 A 
ATOM      9  C   UNL     1       5.532   2.142  -2.833  0.00  0.00    +0.156 A 
ATOM     10  N   UNL     1       4.206   2.160  -2.829  0.00  0.00    -0.229 NA
ATOM     11 CL   UNL     1       5.994   3.939  -0.825  0.00  0.00    -0.080 Cl
ATOM     12 CL   UNL     1       9.890   1.429  -3.608  0.00  0.00    -0.082 Cl
ENDBRANCH   1   2
BRANCH   1  18
ATOM     13  C   UNL     1       0.707  -0.490  -1.238  0.00  0.00    +0.067 A 
ATOM     14  C   UNL     1       0.845  -1.869  -1.467  0.00  0.00    +0.031 A 
ATOM     15  C   UNL     1       1.489  -2.277  -2.600  0.00  0.00    +0.073 A 
ATOM     16  C   UNL     1       1.978  -1.282  -3.474  0.00  0.00    +0.268 A 
ATOM     17  O   UNL     1       2.561  -1.594  -4.500  0.00  0.00    -0.266 OA
ATOM     18  N   UNL     1       1.795   0.016  -3.163  0.00  0.00    -0.223 N 
ATOM     19  N   UNL     1       1.181   0.373  -2.093  0.00  0.00    -0.172 NA
BRANCH  13  21
ATOM     20  C   UNL     1      -0.019   1.526   0.010  0.00  0.00    +0.017 C 
ATOM     21  C   UNL     1       0.002  -0.004   0.002  0.00  0.00    +0.006 C 
ATOM     22  C   UNL     1       0.742  -0.511   1.242  0.00  0.00    +0.017 C 
ATOM     23  C   UNL     1      -1.433  -0.534   0.013  0.00  0.00    +0.017 C 
ENDBRANCH  13  21
ENDBRANCH   1  18
TORSDOF 3
