REMARK  Name = ZINC15444077
REMARK  5 active torsions:
REMARK  status: ('A' for Active; 'I' for Inactive)
REMARK    1  A    between atoms: C_1  and  C_2
REMARK    2  A    between atoms: C_5  and  N_8
REMARK    3  A    between atoms: N_8  and  N_9
REMARK    4  A    between atoms: C_10  and  C_11
REMARK    5  A    between atoms: C_11  and  C_13
REMARK                            x       y       z     vdW  Elec       q    Type
REMARK                         _______ _______ _______ _____ _____    ______ ____
ROOT
ATOM      1  N   UNL     1       0.237  -4.177  -0.013  0.00  0.00    -0.237 N 
ATOM      2  H   UNL     1       0.233  -4.656  -0.857  0.00  0.00    +0.174 HD
ENDROOT
BRANCH   1   7
ATOM      3  C   UNL     1       0.565   1.484   0.028  0.00  0.00    +0.044 C 
ATOM      4  C   UNL     1       0.478  -0.021   0.017  0.00  0.00    -0.050 A 
ATOM      5  C   UNL     1       0.473  -0.703  -1.186  0.00  0.00    +0.005 A 
ATOM      6  C   UNL     1       0.393  -2.081  -1.200  0.00  0.00    +0.025 A 
ATOM      7  C   UNL     1       0.318  -2.784  -0.003  0.00  0.00    +0.048 A 
ATOM      8  C   UNL     1       0.323  -2.095   1.204  0.00  0.00    +0.025 A 
ATOM      9  C   UNL     1       0.408  -0.717   1.210  0.00  0.00    +0.005 A 
ENDBRANCH   1   7
BRANCH   1  10
ATOM     10  N   UNL     1       0.167  -4.827   1.099  0.00  0.00    -0.172 NA
ATOM     11  C   UNL     1      -0.008  -6.123   1.088  0.00  0.00    +0.166 C 
ATOM     12 BR   UNL     1      -0.265  -7.055   2.713  0.00  0.00    -0.023 Br
BRANCH  11  13
ATOM     13  C   UNL     1      -0.006  -6.824  -0.134  0.00  0.00    +0.187 C 
ATOM     14  O   UNL     1       1.042  -7.034  -0.712  0.00  0.00    -0.290 OA
ATOM     15  C   UNL     1      -1.303  -7.316  -0.724  0.00  0.00    +0.094 C 
ENDBRANCH  11  13
ENDBRANCH   1  10
TORSDOF 3
