REMARK  Name = ZINC09075126
REMARK  5 active torsions:
REMARK  status: ('A' for Active; 'I' for Inactive)
REMARK    1  A    between atoms: C_6  and  N_7
REMARK    2  A    between atoms: C_8  and  C_10
REMARK    3  A    between atoms: C_10  and  O_11
REMARK    4  A    between atoms: O_11  and  C_12
REMARK    5  A    between atoms: C_12  and  C_14
REMARK                            x       y       z     vdW  Elec       q    Type
REMARK                         _______ _______ _______ _____ _____    ______ ____
ROOT
ATOM      1  C   UNL     1       3.707  -0.636  -0.041  0.00  0.00    +0.340 C 
ATOM      2  O   UNL     1       3.738  -1.851  -0.043  0.00  0.00    -0.245 OA
ENDROOT
BRANCH   1   3
ATOM      3  C   UNL     1       2.412   0.068  -0.022  0.00  0.00    +0.061 A 
ATOM      4  C   UNL     1       2.378   1.466  -0.020  0.00  0.00    +0.016 A 
ATOM      5  C   UNL     1       1.166   2.121  -0.004  0.00  0.00    +0.017 A 
ATOM      6  C   UNL     1      -0.017   1.394   0.010  0.00  0.00    +0.030 A 
ATOM      7  C   UNL     1       0.002  -0.005   0.012  0.00  0.00    +0.048 A 
ATOM      8  C   UNL     1       1.221  -0.663  -0.005  0.00  0.00    +0.039 A 
ATOM      9  N   UNL     1      -1.175  -0.749   0.038  0.00  0.00    -0.284 N 
ATOM     10  C   UNL     1      -2.380  -0.329  -0.339  0.00  0.00    +0.227 C 
ATOM     11  O   UNL     1      -3.307  -1.108  -0.266  0.00  0.00    -0.275 OA
ATOM     12  C   UNL     1      -2.656   1.058  -0.851  0.00  0.00    +0.170 C 
ATOM     13  S   UNL     1      -1.572   2.230   0.018  0.00  0.00    -0.114 S 
ATOM     14  H   UNL     1      -1.110  -1.661   0.361  0.00  0.00    +0.155 HD
ENDBRANCH   1   3
BRANCH   1  15
ATOM     15  O   UNL     1       4.856   0.068  -0.056  0.00  0.00    -0.452 OA
BRANCH  15  16
ATOM     16  C   UNL     1       6.093  -0.692  -0.075  0.00  0.00    +0.328 C 
BRANCH  16  18
ATOM     17  N   UNL     1       8.523  -0.226  -0.108  0.00  0.00    -0.283 N 
ATOM     18  C   UNL     1       7.264   0.257  -0.090  0.00  0.00    +0.255 C 
ATOM     19  O   UNL     1       7.075   1.455  -0.086  0.00  0.00    -0.272 OA
ATOM     20  H   UNL     1       8.676  -1.182  -0.044  0.00  0.00    +0.155 HD
BRANCH  17  26
ATOM     21  C   UNL     1      10.739   0.271  -0.930  0.00  0.00    +0.024 A 
ATOM     22  C   UNL     1      11.806   1.141  -1.044  0.00  0.00    +0.017 A 
ATOM     23  C   UNL     1      11.752   2.385  -0.443  0.00  0.00    +0.018 A 
ATOM     24  C   UNL     1      10.628   2.765   0.270  0.00  0.00    +0.017 A 
ATOM     25  C   UNL     1       9.556   1.901   0.382  0.00  0.00    +0.024 A 
ATOM     26  C   UNL     1       9.607   0.651  -0.221  0.00  0.00    +0.034 A 
ATOM     27 BR   UNL     1      13.218   3.571  -0.595  0.00  0.00    -0.050 Br
ENDBRANCH  17  26
ENDBRANCH  16  18
ENDBRANCH  15  16
ENDBRANCH   1  15
TORSDOF 5
