REMARK  Name = ZINC64452615
REMARK  6 active torsions:
REMARK  status: ('A' for Active; 'I' for Inactive)
REMARK    1  A    between atoms: C_1  and  C_2
REMARK    2  A    between atoms: C_3  and  S_16
REMARK    3  A    between atoms: C_5  and  C_7
REMARK    4  A    between atoms: C_10  and  C_12
REMARK    5  A    between atoms: S_16  and  N_19
REMARK    6  A    between atoms: N_22  and  C_25
REMARK                            x       y       z     vdW  Elec       q    Type
REMARK                         _______ _______ _______ _____ _____    ______ ____
ROOT
ATOM      1  S   UNL     1      -2.691  -0.223   0.250  0.00  0.00    +0.062 S 
ATOM      2  O   UNL     1      -2.852   0.682  -0.834  0.00  0.00    -0.153 OA
ATOM      3  O   UNL     1      -3.562  -1.327   0.457  0.00  0.00    -0.153 OA
ENDROOT
BRANCH   1   4
ATOM      4  N   UNL     1      -2.739   0.683   1.635  0.00  0.00    -0.180 NA
ATOM      5  C   UNL     1      -2.978   0.054   2.943  0.00  0.00    +0.091 C 
ATOM      6  C   UNL     1      -1.895   0.531   3.917  0.00  0.00    -0.061 C 
ATOM      7  N   UNL     1      -1.876   1.999   3.945  0.00  0.00    +0.383 N 
ATOM      8  C   UNL     1      -1.482   2.519   2.629  0.00  0.00    -0.061 C 
ATOM      9  C   UNL     1      -2.539   2.140   1.593  0.00  0.00    +0.091 C 
ATOM     10  H   UNL     1      -2.796   2.342   4.179  0.00  0.00    -0.081 HD
BRANCH   7  11
ATOM     11  C   UNL     1      -0.915   2.455   4.958  0.00  0.00    -0.068 C 
ATOM     12  C   UNL     1      -1.330   1.923   6.331  0.00  0.00    -0.015 C 
ATOM     13  C   UNL     1      -0.329   2.398   7.386  0.00  0.00    -0.002 C 
ATOM     14  C   UNL     1      -0.307   3.928   7.417  0.00  0.00    -0.000 C 
ATOM     15  C   UNL     1       0.108   4.459   6.043  0.00  0.00    -0.002 C 
ATOM     16  C   UNL     1      -0.893   3.985   4.988  0.00  0.00    -0.015 C 
ENDBRANCH   7  11
ENDBRANCH   1   4
BRANCH   1  19
ATOM     17  C   UNL     1      -0.022   1.422  -0.341  0.00  0.00    +0.053 C 
ATOM     18  C   UNL     1      -0.010  -0.071  -0.138  0.00  0.00    +0.014 A 
ATOM     19  C   UNL     1      -1.063  -0.885   0.117  0.00  0.00    +0.116 A 
ATOM     20  C   UNL     1      -0.845  -2.233   0.271  0.00  0.00    +0.046 A 
ATOM     21  C   UNL     1       0.476  -2.647   0.146  0.00  0.00    +0.038 A 
ATOM     22  S   UNL     1       1.312  -1.107  -0.184  0.00  0.00    -0.090 S 
BRANCH  21  23
ATOM     23  C   UNL     1       1.017  -3.952   0.251  0.00  0.00    +0.083 C 
ATOM     24  N   UNL     1       0.364  -5.062   0.486  0.00  0.00    -0.153 NA
ATOM     25  N   UNL     1       1.207  -6.168   0.524  0.00  0.00    -0.149 NA
ATOM     26  C   UNL     1       2.445  -5.854   0.319  0.00  0.00    +0.149 C 
ATOM     27  C   UNL     1       2.472  -4.354   0.106  0.00  0.00    +0.120 C 
BRANCH  26  28
ATOM     28  C   UNL     1       3.623  -6.793   0.290  0.00  0.00    +0.432 C 
ATOM     29  F   UNL     1       3.184  -8.100   0.523  0.00  0.00    -0.165 F 
ATOM     30  F   UNL     1       4.243  -6.726  -0.963  0.00  0.00    -0.165 F 
ATOM     31  F   UNL     1       4.538  -6.424   1.282  0.00  0.00    -0.165 F 
ENDBRANCH  26  28
ENDBRANCH  21  23
ENDBRANCH   1  19
TORSDOF 5
