REMARK  Name = ZINC13613012
REMARK  6 active torsions:
REMARK  status: ('A' for Active; 'I' for Inactive)
REMARK    1  A    between atoms: C_1  and  C_2
REMARK    2  A    between atoms: C_12  and  C_14
REMARK    3  A    between atoms: C_14  and  N_15
REMARK    4  A    between atoms: N_15  and  C_16
REMARK    5  A    between atoms: N_15  and  S_25
REMARK    6  A    between atoms: S_25  and  C_28
REMARK                            x       y       z     vdW  Elec       q    Type
REMARK                         _______ _______ _______ _____ _____    ______ ____
ROOT
ATOM      1  N   UNL     1       3.227   1.316   4.181  0.00  0.00    -0.197 N 
ENDROOT
BRANCH   1   2
ATOM      2  C   UNL     1       4.259   0.621   3.544  0.00  0.00    +0.071 A 
ATOM      3  C   UNL     1       4.557   0.884   2.214  0.00  0.00    +0.047 A 
ATOM      4  C   UNL     1       5.581   0.199   1.587  0.00  0.00    +0.061 A 
ATOM      5  C   UNL     1       6.303  -0.757   2.283  0.00  0.00    +0.061 A 
ATOM      6  C   UNL     1       6.004  -1.025   3.607  0.00  0.00    +0.043 A 
ATOM      7  C   UNL     1       4.985  -0.339   4.239  0.00  0.00    +0.065 A 
ATOM      8 CL   UNL     1       4.611  -0.676   5.901  0.00  0.00    -0.082 Cl
ATOM      9 CL   UNL     1       7.585  -1.620   1.492  0.00  0.00    -0.082 Cl
ATOM     10 CL   UNL     1       5.959   0.532  -0.074  0.00  0.00    -0.082 Cl
ENDBRANCH   1   2
BRANCH   1  11
ATOM     11  S   UNL     1       3.567   2.666   5.077  0.00  0.00    +0.043 S 
ATOM     12  O   UNL     1       4.716   3.230   4.460  0.00  0.00    -0.155 OA
ATOM     13  O   UNL     1       2.344   3.387   5.126  0.00  0.00    -0.155 OA
ATOM     14  C   UNL     1       3.989   2.038   6.726  0.00  0.00    +0.218 C 
ENDBRANCH   1  11
BRANCH   1  15
ATOM     15  C   UNL     1       1.843   0.850   4.056  0.00  0.00    +0.227 C 
BRANCH  15  26
ATOM     16  C   UNL     1      -0.013   1.086   0.008  0.00  0.00    +0.029 C 
ATOM     17  C   UNL     1      -0.729   1.579   1.267  0.00  0.00    +0.083 C 
ATOM     18  C   UNL     1      -2.139   0.973   1.351  0.00  0.00    +0.059 C 
ATOM     19  C   UNL     1      -2.134   0.173   2.634  0.00  0.00    -0.024 A 
ATOM     20  C   UNL     1      -3.121  -0.588   3.231  0.00  0.00    +0.005 A 
ATOM     21  C   UNL     1      -2.870  -1.236   4.426  0.00  0.00    +0.000 A 
ATOM     22  C   UNL     1      -1.628  -1.120   5.024  0.00  0.00    +0.002 A 
ATOM     23  C   UNL     1      -0.641  -0.362   4.432  0.00  0.00    +0.024 A 
ATOM     24  C   UNL     1      -0.887   0.295   3.225  0.00  0.00    +0.040 A 
ATOM     25  N   UNL     1      -0.034   1.104   2.466  0.00  0.00    -0.267 N 
ATOM     26  C   UNL     1       1.239   1.402   2.791  0.00  0.00    +0.239 C 
ATOM     27  O   UNL     1       1.899   2.115   2.065  0.00  0.00    -0.273 OA
ENDBRANCH  15  26
ENDBRANCH   1  15
TORSDOF 4
