REMARK  Name = ZINC16024628
REMARK  7 active torsions:
REMARK  status: ('A' for Active; 'I' for Inactive)
REMARK    1  A    between atoms: C_1  and  C_2
REMARK    2  A    between atoms: C_2  and  C_4
REMARK    3  A    between atoms: C_2  and  O_30
REMARK    4  A    between atoms: N_12  and  C_15
REMARK    5  A    between atoms: C_15  and  C_16
REMARK    6  A    between atoms: C_15  and  C_17
REMARK    7  A    between atoms: C_15  and  C_18
REMARK                            x       y       z     vdW  Elec       q    Type
REMARK                         _______ _______ _______ _____ _____    ______ ____
ROOT
ATOM      1  C   UNL     1       0.718  -0.497  -1.257  0.00  0.00    +0.096 C 
ATOM      2  C   UNL     1       0.785  -2.040  -1.267  0.00  0.00    +0.109 C 
ATOM      3  C   UNL     1       2.174  -2.373  -1.879  0.00  0.00    +0.123 C 
ATOM      4  C   UNL     1       1.827  -3.044  -3.188  0.00  0.00    +0.229 C 
ATOM      5  O   UNL     1       2.629  -3.463  -3.995  0.00  0.00    -0.275 OA
ATOM      6  N   UNL     1       0.496  -3.103  -3.319  0.00  0.00    -0.236 N 
ATOM      7  C   UNL     1      -0.198  -2.571  -2.286  0.00  0.00    +0.228 C 
ATOM      8  O   UNL     1      -1.405  -2.522  -2.187  0.00  0.00    -0.275 OA
ATOM      9  C   UNL     1       2.823  -1.008  -2.134  0.00  0.00    +0.136 C 
ATOM     10  N   UNL     1       2.137  -0.053  -1.253  0.00  0.00    -0.293 NA
ATOM     11  C   UNL     1       4.304  -1.047  -1.882  0.00  0.00    +0.003 A 
ATOM     12  C   UNL     1       5.070  -1.351  -0.779  0.00  0.00    +0.008 A 
ATOM     13  C   UNL     1       6.450  -1.295  -0.857  0.00  0.00    +0.000 A 
ATOM     14  C   UNL     1       7.058  -0.932  -2.045  0.00  0.00    +0.002 A 
ATOM     15  C   UNL     1       6.295  -0.627  -3.153  0.00  0.00    +0.023 A 
ATOM     16  C   UNL     1       4.904  -0.681  -3.083  0.00  0.00    +0.039 A 
ATOM     17  N   UNL     1       3.931  -0.422  -4.050  0.00  0.00    -0.283 N 
ATOM     18  C   UNL     1       2.683  -0.592  -3.573  0.00  0.00    +0.243 C 
ATOM     19  O   UNL     1       1.647  -0.439  -4.184  0.00  0.00    -0.273 OA
ATOM     20  H   UNL     1       2.221   0.892  -1.598  0.00  0.00    +0.124 HD
ATOM     21  H   UNL     1       4.130  -0.151  -4.960  0.00  0.00    +0.155 HD
ENDROOT
BRANCH   6  22
ATOM     22  C   UNL     1      -0.160  -3.702  -4.484  0.00  0.00    +0.036 C 
ATOM     23  C   UNL     1       0.250  -5.171  -4.600  0.00  0.00    +0.031 C 
ATOM     24  C   UNL     1      -1.678  -3.607  -4.319  0.00  0.00    +0.031 C 
ATOM     25  C   UNL     1       0.264  -2.953  -5.749  0.00  0.00    +0.031 C 
ENDBRANCH   6  22
BRANCH   1  27
ATOM     26  C   UNL     1      -0.019   1.526   0.010  0.00  0.00    +0.039 C 
ATOM     27  C   UNL     1       0.002  -0.004   0.002  0.00  0.00    +0.129 C 
BRANCH  27  28
ATOM     28  O   UNL     1       0.693  -0.477   1.160  0.00  0.00    -0.390 OA
ATOM     29  H   UNL     1       0.294  -0.202   1.996  0.00  0.00    +0.210 HD
ENDBRANCH  27  28
ENDBRANCH   1  27
TORSDOF 3
