REMARK  Name = ZINC51814810
REMARK  3 active torsions:
REMARK  status: ('A' for Active; 'I' for Inactive)
REMARK    1  A    between atoms: C_4  and  C_7
REMARK    2  A    between atoms: C_8  and  C_9
REMARK    3  A    between atoms: C_9  and  N_10
REMARK                            x       y       z     vdW  Elec       q    Type
REMARK                         _______ _______ _______ _____ _____    ______ ____
ROOT
ATOM      1  C   UNL     1       5.967  -1.948  -0.067  0.00  0.00    +0.232 C 
ENDROOT
BRANCH   1   2
ATOM      2  N   UNL     1       5.723  -3.393  -0.072  0.00  0.00    -0.256 N 
ATOM      3  C   UNL     1       6.203  -4.276  -0.973  0.00  0.00    +0.127 A 
ATOM      4  C   UNL     1       5.750  -5.504  -0.628  0.00  0.00    +0.086 A 
ATOM      5  C   UNL     1       4.967  -5.366   0.523  0.00  0.00    +0.249 A 
ATOM      6  N   UNL     1       4.954  -4.102   0.860  0.00  0.00    -0.145 NA
ATOM      7  N   UNL     1       4.276  -6.462   1.240  0.00  0.00    +0.078 N 
ATOM      8  O   UNL     1       4.364  -7.598   0.836  0.00  0.00    -0.125 OA
ATOM      9  O   UNL     1       3.624  -6.221   2.229  0.00  0.00    -0.125 OA
ATOM     10 BR   UNL     1       6.112  -7.121  -1.540  0.00  0.00    -0.045 Br
ENDBRANCH   1   2
BRANCH   1  12
ATOM     11  C   UNL     1       3.655  -0.662  -0.037  0.00  0.00    -0.064 C 
ATOM     12  C   UNL     1       4.681  -1.233  -0.050  0.00  0.00    -0.074 C 
BRANCH  11  16
ATOM     13  C   UNL     1      -0.017   1.379   0.010  0.00  0.00    +0.000 A 
ATOM     14  C   UNL     1       1.168   2.093   0.002  0.00  0.00    +0.001 A 
ATOM     15  C   UNL     1       2.377   1.429  -0.013  0.00  0.00    +0.017 A 
ATOM     16  C   UNL     1       2.403   0.034  -0.021  0.00  0.00    +0.025 A 
ATOM     17  C   UNL     1       1.204  -0.681  -0.013  0.00  0.00    +0.017 A 
ATOM     18  C   UNL     1       0.002  -0.004   0.002  0.00  0.00    +0.001 A 
ENDBRANCH  11  16
ENDBRANCH   1  12
TORSDOF 3
