REMARK  Name = ZINC16024806
REMARK  7 active torsions:
REMARK  status: ('A' for Active; 'I' for Inactive)
REMARK    1  A    between atoms: C_1  and  C_2
REMARK    2  A    between atoms: C_2  and  C_3
REMARK    3  A    between atoms: C_3  and  C_5
REMARK    4  A    between atoms: C_3  and  N_6
REMARK    5  A    between atoms: C_11  and  C_29
REMARK    6  A    between atoms: C_29  and  C_30
REMARK    7  A    between atoms: C_30  and  C_31
REMARK                            x       y       z     vdW  Elec       q    Type
REMARK                         _______ _______ _______ _____ _____    ______ ____
ROOT
ATOM      1  N   UNL     1       1.989  -0.050  -1.089  0.00  0.00    -0.239 N 
ATOM      2  C   UNL     1       2.851  -0.502  -0.172  0.00  0.00    +0.227 C 
ATOM      3  O   UNL     1       2.614  -1.363   0.649  0.00  0.00    -0.275 OA
ATOM      4  C   UNL     1       4.169   0.226  -0.319  0.00  0.00    +0.107 C 
ATOM      5  C   UNL     1       4.384   1.132   0.912  0.00  0.00    +0.068 C 
ATOM      6  N   UNL     1       4.825   2.437   0.352  0.00  0.00    -0.295 NA
ATOM      7  C   UNL     1       4.009   2.602  -0.865  0.00  0.00    +0.136 C 
ATOM      8  C   UNL     1       3.912   1.195  -1.506  0.00  0.00    +0.122 C 
ATOM      9  C   UNL     1       2.480   0.900  -1.893  0.00  0.00    +0.228 C 
ATOM     10  O   UNL     1       1.871   1.442  -2.790  0.00  0.00    -0.275 OA
ATOM     11  C   UNL     1       4.627   3.592  -1.811  0.00  0.00    +0.004 A 
ATOM     12  C   UNL     1       5.840   3.652  -2.461  0.00  0.00    +0.023 A 
ATOM     13  C   UNL     1       6.129   4.723  -3.290  0.00  0.00    +0.018 A 
ATOM     14  C   UNL     1       5.196   5.730  -3.463  0.00  0.00    +0.017 A 
ATOM     15  C   UNL     1       3.979   5.672  -2.815  0.00  0.00    +0.025 A 
ATOM     16  C   UNL     1       3.681   4.598  -1.979  0.00  0.00    +0.039 A 
ATOM     17  N   UNL     1       2.538   4.317  -1.227  0.00  0.00    -0.283 N 
ATOM     18  C   UNL     1       2.651   3.162  -0.544  0.00  0.00    +0.243 C 
ATOM     19  O   UNL     1       1.819   2.670   0.189  0.00  0.00    -0.273 OA
ATOM     20 BR   UNL     1       7.794   4.809  -4.182  0.00  0.00    -0.050 Br
ATOM     21  H   UNL     1       4.655   3.187   1.006  0.00  0.00    +0.123 HD
ATOM     22  H   UNL     1       1.755   4.888  -1.199  0.00  0.00    +0.155 HD
ENDROOT
BRANCH   1  23
ATOM     23  C   UNL     1       0.619  -0.557  -1.207  0.00  0.00    +0.081 C 
ATOM     24  C   UNL     1      -0.370   0.595  -1.018  0.00  0.00    +0.028 C 
BRANCH  23  26
ATOM     25  C   UNL     1       1.314  -2.413  -2.729  0.00  0.00    +0.006 C 
ATOM     26  C   UNL     1       0.423  -1.177  -2.592  0.00  0.00    +0.019 C 
ENDBRANCH  23  26
ENDBRANCH   1  23
BRANCH   5  27
ATOM     27  C   UNL     1       5.467   0.547   1.821  0.00  0.00    +0.028 C 
BRANCH  27  28
ATOM     28  C   UNL     1       5.577   1.391   3.092  0.00  0.00    +0.097 C 
BRANCH  28  29
ATOM     29  C   UNL     1       6.644   0.815   3.987  0.00  0.00    +0.211 C 
ATOM     30  O   UNL     1       7.256  -0.174   3.643  0.00  0.00    -0.276 OA
ATOM     31  N   UNL     1       6.918   1.398   5.171  0.00  0.00    -0.329 N 
ATOM     32  H   UNL     1       6.428   2.189   5.447  0.00  0.00    +0.145 HD
ATOM     33  H   UNL     1       7.604   1.027   5.747  0.00  0.00    +0.145 HD
ENDBRANCH  28  29
ENDBRANCH  27  28
ENDBRANCH   5  27
TORSDOF 5
