REMARK  Name = ZINC48605151
REMARK  8 active torsions:
REMARK  status: ('A' for Active; 'I' for Inactive)
REMARK    1  A    between atoms: C_1  and  C_2
REMARK    2  A    between atoms: C_2  and  C_25
REMARK    3  A    between atoms: C_4  and  N_10
REMARK    4  A    between atoms: C_6  and  C_8
REMARK    5  A    between atoms: C_6  and  C_9
REMARK    6  A    between atoms: C_11  and  C_13
REMARK    7  A    between atoms: N_15  and  C_16
REMARK    8  A    between atoms: C_19  and  C_23
REMARK                            x       y       z     vdW  Elec       q    Type
REMARK                         _______ _______ _______ _____ _____    ______ ____
ROOT
ATOM      1  N   UNL     1      -3.539  -0.924   1.010  0.00  0.00    -0.305 N 
ATOM      2  C   UNL     1      -4.544  -0.478   1.789  0.00  0.00    +0.300 C 
ATOM      3  O   UNL     1      -4.330   0.373   2.627  0.00  0.00    -0.265 OA
ATOM      4  H   UNL     1      -3.710  -1.605   0.340  0.00  0.00    +0.149 HD
ENDROOT
BRANCH   1   8
ATOM      5  C   UNL     1      -0.007   1.520   0.037  0.00  0.00    -0.010 C 
ATOM      6  C   UNL     1       0.008  -0.012   0.017  0.00  0.00    -0.072 C 
ATOM      7  C   UNL     1      -1.415  -0.540  -0.136  0.00  0.00    +0.009 C 
ATOM      8  C   UNL     1      -2.185  -0.381   1.175  0.00  0.00    +0.071 C 
ATOM      9  C   UNL     1      -1.453  -1.175   2.258  0.00  0.00    +0.009 C 
ATOM     10  C   UNL     1      -0.030  -0.652   2.429  0.00  0.00    -0.072 C 
ATOM     11  N   UNL     1       0.699  -0.548   1.177  0.00  0.00    +0.386 N 
ATOM     12  C   UNL     1       0.725  -1.656   3.331  0.00  0.00    -0.010 C 
ATOM     13  C   UNL     1      -0.056   0.688   3.171  0.00  0.00    -0.010 C 
ATOM     14  C   UNL     1       0.798  -0.442  -1.241  0.00  0.00    -0.010 C 
ATOM     15  H   UNL     1       1.055  -1.479   0.935  0.00  0.00    -0.084 HD
ATOM     16  H   UNL     1       1.538   0.017   1.340  0.00  0.00    -0.084 HD
ENDBRANCH   1   8
BRANCH   2  17
ATOM     17  C   UNL     1      -5.922  -1.030   1.620  0.00  0.00    +0.303 C 
ATOM     18  O   UNL     1      -6.136  -1.881   0.782  0.00  0.00    -0.265 OA
ATOM     19  N   UNL     1      -6.927  -0.583   2.399  0.00  0.00    -0.278 N 
ATOM     20  H   UNL     1      -6.744   0.047   3.113  0.00  0.00    +0.155 HD
BRANCH  19  21
ATOM     21  C   UNL     1      -8.229  -1.028   2.179  0.00  0.00    +0.035 A 
ATOM     22  C   UNL     1      -8.456  -2.337   1.765  0.00  0.00    +0.024 A 
ATOM     23  C   UNL     1      -9.740  -2.780   1.546  0.00  0.00    +0.022 A 
ATOM     24  C   UNL     1     -10.820  -1.913   1.740  0.00  0.00    +0.070 A 
ATOM     25  C   UNL     1     -10.589  -0.597   2.157  0.00  0.00    +0.060 A 
ATOM     26  C   UNL     1      -9.300  -0.163   2.379  0.00  0.00    +0.044 A 
ATOM     27 CL   UNL     1     -11.925   0.484   2.400  0.00  0.00    -0.082 Cl
BRANCH  24  28
ATOM     28  C   UNL     1     -12.158  -2.370   1.513  0.00  0.00    +0.101 C 
ATOM     29  N   UNL     1     -13.219  -2.733   1.333  0.00  0.00    -0.191 NA
ENDBRANCH  24  28
ENDBRANCH  19  21
ENDBRANCH   2  17
TORSDOF 4
