REMARK  Name = ZINC67156411
REMARK  5 active torsions:
REMARK  status: ('A' for Active; 'I' for Inactive)
REMARK    1  A    between atoms: C_1  and  N_2
REMARK    2  A    between atoms: C_3  and  C_18
REMARK    3  A    between atoms: C_4  and  C_7
REMARK    4  A    between atoms: N_9  and  C_10
REMARK    5  A    between atoms: C_15  and  O_16
REMARK                            x       y       z     vdW  Elec       q    Type
REMARK                         _______ _______ _______ _____ _____    ______ ____
ROOT
ATOM      1  C   UNL     1       0.047  -3.295  -1.523  0.00  0.00    +0.252 C 
ATOM      2  O   UNL     1       0.036  -3.177  -2.733  0.00  0.00    -0.270 OA
ATOM      3  N   UNL     1       0.060  -4.521  -0.964  0.00  0.00    -0.278 N 
ATOM      4  H   UNL     1       0.134  -4.615  -0.002  0.00  0.00    +0.155 HD
ENDROOT
BRANCH   3   5
ATOM      5  C   UNL     1      -0.034  -5.660  -1.774  0.00  0.00    +0.077 A 
ATOM      6  C   UNL     1       0.550  -5.669  -3.033  0.00  0.00    +0.047 A 
ATOM      7  C   UNL     1       0.456  -6.795  -3.830  0.00  0.00    +0.043 A 
ATOM      8  C   UNL     1      -0.221  -7.913  -3.376  0.00  0.00    +0.023 A 
ATOM      9  C   UNL     1      -0.806  -7.910  -2.124  0.00  0.00    +0.049 A 
ATOM     10  C   UNL     1      -0.710  -6.789  -1.316  0.00  0.00    +0.138 A 
ATOM     11 CL   UNL     1       1.187  -6.805  -5.404  0.00  0.00    -0.083 Cl
BRANCH  10  12
ATOM     12  O   UNL     1      -1.280  -6.787  -0.081  0.00  0.00    -0.505 OA
ATOM     13  H   UNL     1      -2.196  -6.478  -0.071  0.00  0.00    +0.292 HD
ENDBRANCH  10  12
ENDBRANCH   3   5
BRANCH   1  17
ATOM     14  C   UNL     1       0.030   1.462   0.007  0.00  0.00    +0.173 C 
ATOM     15  N   UNL     1       0.039  -0.003  -0.000  0.00  0.00    -0.265 N 
ATOM     16  C   UNL     1       0.035  -0.782  -1.094  0.00  0.00    +0.116 A 
ATOM     17  C   UNL     1       0.047  -2.095  -0.666  0.00  0.00    +0.083 A 
ATOM     18  C   UNL     1       0.059  -2.073   0.747  0.00  0.00    +0.148 A 
ATOM     19  N   UNL     1       0.059  -0.827   1.131  0.00  0.00    -0.179 NA
BRANCH  16  20
ATOM     20  C   UNL     1       0.020  -0.311  -2.525  0.00  0.00    +0.390 C 
ATOM     21  F   UNL     1       0.671   0.924  -2.616  0.00  0.00    -0.202 F 
ATOM     22  F   UNL     1       0.678  -1.246  -3.331  0.00  0.00    -0.202 F 
ENDBRANCH  16  20
ENDBRANCH   1  17
TORSDOF 4
