REMARK  Name = ZINC12000158
REMARK  7 active torsions:
REMARK  status: ('A' for Active; 'I' for Inactive)
REMARK    1  A    between atoms: C_1  and  O_2
REMARK    2  A    between atoms: O_2  and  C_3
REMARK    3  A    between atoms: C_6  and  N_10
REMARK    4  A    between atoms: C_23  and  C_24
REMARK    5  A    between atoms: C_23  and  N_55
REMARK    6  A    between atoms: C_24  and  C_25
REMARK    7  A    between atoms: C_25  and  C_26
REMARK                            x       y       z     vdW  Elec       q    Type
REMARK                         _______ _______ _______ _____ _____    ______ ____
ROOT
ATOM      1  N   UNL     1       1.796   3.456   0.607  0.00  0.00    -0.270 N 
ATOM      2  C   UNL     1       1.455   2.159   0.051  0.00  0.00    +0.090 C 
ATOM      3  C   UNL     1      -0.042   1.824   0.126  0.00  0.00    +0.187 C 
ATOM      4  S   UNL     1      -0.017  -0.020   0.172  0.00  0.00    -0.031 S 
ATOM      5  O   UNL     1      -0.595  -0.460   1.393  0.00  0.00    -0.174 OA
ATOM      6  O   UNL     1      -0.518  -0.520  -1.060  0.00  0.00    -0.174 OA
ATOM      7  C   UNL     1       1.809  -0.296   0.237  0.00  0.00    +0.152 C 
ATOM      8  C   UNL     1       2.263   1.075   0.786  0.00  0.00    -0.024 C 
ATOM      9  C   UNL     1       4.057   2.580   1.268  0.00  0.00    +0.020 C 
ATOM     10  C   UNL     1       3.025   3.658   1.116  0.00  0.00    +0.203 C 
ATOM     11  O   UNL     1       3.316   4.780   1.474  0.00  0.00    -0.277 OA
ATOM     12  N   UNL     1       3.675   1.362   0.532  0.00  0.00    +0.390 N 
ATOM     13  H   UNL     1       3.813   1.517  -0.473  0.00  0.00    -0.081 HD
ENDROOT
BRANCH   1  17
ATOM     14  C   UNL     1      -0.990   6.559   0.583  0.00  0.00    +0.138 A 
ATOM     15  C   UNL     1      -0.468   6.086  -0.612  0.00  0.00    +0.049 A 
ATOM     16  C   UNL     1       0.458   5.062  -0.605  0.00  0.00    +0.027 A 
ATOM     17  C   UNL     1       0.860   4.498   0.599  0.00  0.00    +0.038 A 
ATOM     18  C   UNL     1       0.339   4.972   1.795  0.00  0.00    +0.047 A 
ATOM     19  C   UNL     1      -0.584   6.000   1.787  0.00  0.00    +0.084 A 
ATOM     20 CL   UNL     1      -1.236   6.594   3.283  0.00  0.00    -0.080 Cl
BRANCH  14  22
ATOM     21  C   UNL     1      -2.269   8.100  -0.700  0.00  0.00    +0.277 C 
ATOM     22  O   UNL     1      -1.897   7.572   0.575  0.00  0.00    -0.494 OA
ENDBRANCH  14  22
ENDBRANCH   1  17
BRANCH  12  23
ATOM     23  C   UNL     1       4.513   0.218   0.965  0.00  0.00    -0.077 C 
BRANCH  23  24
ATOM     24  C   UNL     1       5.947   0.436   0.478  0.00  0.00    -0.014 C 
BRANCH  24  25
ATOM     25  C   UNL     1       6.818  -0.745   0.912  0.00  0.00    +0.033 C 
BRANCH  25  26
ATOM     26  C   UNL     1       8.230  -0.531   0.433  0.00  0.00    -0.047 A 
ATOM     27  C   UNL     1       8.619  -1.005  -0.806  0.00  0.00    +0.003 A 
ATOM     28  C   UNL     1       9.914  -0.806  -1.248  0.00  0.00    +0.000 A 
ATOM     29  C   UNL     1      10.822  -0.139  -0.447  0.00  0.00    +0.000 A 
ATOM     30  C   UNL     1      10.435   0.331   0.794  0.00  0.00    +0.000 A 
ATOM     31  C   UNL     1       9.139   0.135   1.234  0.00  0.00    +0.003 A 
ENDBRANCH  25  26
ENDBRANCH  24  25
ENDBRANCH  23  24
ENDBRANCH  12  23
TORSDOF 6
