REMARK  Name = ZINC00455186
REMARK  1 active torsions:
REMARK  status: ('A' for Active; 'I' for Inactive)
REMARK    1  A    between atoms: C_4  and  N_7
REMARK                            x       y       z     vdW  Elec       q    Type
REMARK                         _______ _______ _______ _____ _____    ______ ____
ROOT
ATOM      1  N   UNL     1       3.623  -0.651  -0.037  0.00  0.00    -0.255 N 
ATOM      2  C   UNL     1       3.640  -2.002   0.053  0.00  0.00    +0.267 A 
ATOM      3  O   UNL     1       2.608  -2.640   0.147  0.00  0.00    -0.267 OA
ATOM      4  C   UNL     1       4.948  -2.668   0.031  0.00  0.00    +0.067 A 
ATOM      5  C   UNL     1       5.069  -4.055   0.117  0.00  0.00    +0.015 A 
ATOM      6  C   UNL     1       6.309  -4.630   0.092  0.00  0.00    +0.002 A 
ATOM      7  C   UNL     1       7.452  -3.848  -0.018  0.00  0.00    +0.022 A 
ATOM      8  C   UNL     1       7.363  -2.477  -0.104  0.00  0.00    +0.067 A 
ATOM      9  C   UNL     1       6.105  -1.864  -0.081  0.00  0.00    +0.097 A 
ATOM     10  N   UNL     1       5.969  -0.520  -0.164  0.00  0.00    -0.221 NA
ATOM     11  C   UNL     1       4.791   0.052  -0.148  0.00  0.00    +0.188 A 
ATOM     12  S   UNL     1       4.706   1.808  -0.268  0.00  0.00    -0.011 SA
ATOM     13 CL   UNL     1       8.801  -1.514  -0.241  0.00  0.00    -0.081 Cl
ENDROOT
BRANCH   1  17
ATOM     14  C   UNL     1      -0.017   1.378   0.011  0.00  0.00    +0.000 A 
ATOM     15  C   UNL     1       0.524   0.959  -1.191  0.00  0.00    +0.002 A 
ATOM     16  C   UNL     1       1.730   0.286  -1.210  0.00  0.00    +0.026 A 
ATOM     17  C   UNL     1       2.400   0.031  -0.021  0.00  0.00    +0.052 A 
ATOM     18  C   UNL     1       1.854   0.453   1.184  0.00  0.00    +0.026 A 
ATOM     19  C   UNL     1       0.647   1.125   1.197  0.00  0.00    +0.002 A 
ENDBRANCH   1  17
TORSDOF 1
