REMARK  Name = ZINC04490410
REMARK  4 active torsions:
REMARK  status: ('A' for Active; 'I' for Inactive)
REMARK    1  A    between atoms: C_1  and  C_2
REMARK    2  A    between atoms: C_2  and  C_4
REMARK    3  A    between atoms: C_11  and  C_13
REMARK    4  A    between atoms: C_15  and  C_18
REMARK                            x       y       z     vdW  Elec       q    Type
REMARK                         _______ _______ _______ _____ _____    ______ ____
ROOT
ATOM      1  C   UNL     1      -1.482   3.429  -2.561  0.00  0.00    +0.248 A 
ATOM      2  N   UNL     1      -1.153   4.017  -3.684  0.00  0.00    -0.190 NA
ATOM      3  C   UNL     1      -2.305   4.137  -4.382  0.00  0.00    +0.202 A 
ATOM      4  N   UNL     1      -3.258   3.627  -3.645  0.00  0.00    -0.056 NA
ATOM      5  O   UNL     1      -2.801   3.217  -2.599  0.00  0.00    -0.336 OA
ENDROOT
BRANCH   1  13
ATOM      6  C   UNL     1      -1.766   4.874  -0.321  0.00  0.00    +0.234 C 
ATOM      7  O   UNL     1      -2.399   5.047  -1.341  0.00  0.00    -0.274 OA
ATOM      8  N   UNL     1      -0.861   3.878  -0.251  0.00  0.00    -0.289 N 
ATOM      9  C   UNL     1      -0.166   3.584   1.010  0.00  0.00    +0.108 C 
ATOM     10  C   UNL     1      -0.349   2.099   1.339  0.00  0.00    +0.019 C 
ATOM     11  C   UNL     1       0.122   1.256   0.152  0.00  0.00    +0.004 C 
ATOM     12  C   UNL     1      -0.727   1.586  -1.078  0.00  0.00    +0.032 C 
ATOM     13  C   UNL     1      -0.549   3.065  -1.435  0.00  0.00    +0.165 C 
BRANCH   6  15
ATOM     14  C   UNL     1      -3.494   5.987   1.066  0.00  0.00    +0.034 C 
ATOM     15  C   UNL     1      -1.992   5.771   0.868  0.00  0.00    +0.163 C 
ATOM     16 CL   UNL     1      -1.189   7.360   0.583  0.00  0.00    -0.112 Cl
ENDBRANCH   6  15
ENDBRANCH   1  13
BRANCH   3  17
ATOM     17  C   UNL     1      -2.461   4.741  -5.729  0.00  0.00    +0.023 A 
ATOM     18  C   UNL     1      -1.351   5.254  -6.397  0.00  0.00    +0.013 A 
ATOM     19  C   UNL     1      -1.500   5.809  -7.652  0.00  0.00    +0.021 A 
ATOM     20  C   UNL     1      -2.751   5.867  -8.241  0.00  0.00    +0.041 A 
ATOM     21  C   UNL     1      -3.858   5.365  -7.579  0.00  0.00    +0.021 A 
ATOM     22  C   UNL     1      -3.718   4.802  -6.326  0.00  0.00    +0.013 A 
ATOM     23 CL   UNL     1      -2.933   6.573  -9.817  0.00  0.00    -0.084 Cl
ENDBRANCH   3  17
TORSDOF 3
