REMARK  Name = ZINC12586628
REMARK  5 active torsions:
REMARK  status: ('A' for Active; 'I' for Inactive)
REMARK    1  A    between atoms: C_1  and  C_2
REMARK    2  A    between atoms: C_6  and  C_12
REMARK    3  A    between atoms: C_10  and  C_11
REMARK    4  A    between atoms: C_12  and  C_13
REMARK    5  A    between atoms: C_19  and  C_21
REMARK                            x       y       z     vdW  Elec       q    Type
REMARK                         _______ _______ _______ _____ _____    ______ ____
ROOT
ATOM      1  C   UNL     1      -3.019  -0.637  -1.388  0.00  0.00    +0.220 C 
ATOM      2  O   UNL     1      -2.237  -0.661  -2.314  0.00  0.00    -0.275 OA
ATOM      3  N   UNL     1      -4.331  -0.431  -1.620  0.00  0.00    -0.294 N 
ATOM      4  C   UNL     1      -5.388  -0.384  -0.593  0.00  0.00    +0.108 C 
ATOM      5  C   UNL     1      -6.522   0.460  -1.232  0.00  0.00    +0.021 C 
ATOM      6  C   UNL     1      -6.457  -0.005  -2.711  0.00  0.00    +0.029 C 
ATOM      7  C   UNL     1      -4.946  -0.223  -2.939  0.00  0.00    +0.106 C 
ENDROOT
BRANCH   7   8
ATOM      8  C   UNL     1      -4.728  -1.438  -3.804  0.00  0.00    -0.023 A 
ATOM      9  C   UNL     1      -4.831  -2.702  -3.254  0.00  0.00    +0.009 A 
ATOM     10  C   UNL     1      -4.633  -3.822  -4.042  0.00  0.00    +0.050 A 
ATOM     11  C   UNL     1      -4.331  -3.672  -5.384  0.00  0.00    +0.162 A 
ATOM     12  C   UNL     1      -4.227  -2.403  -5.936  0.00  0.00    +0.162 A 
ATOM     13  C   UNL     1      -4.431  -1.284  -5.146  0.00  0.00    +0.055 A 
ATOM     14  O   UNL     1      -3.928  -2.266  -7.261  0.00  0.00    -0.488 OA
ATOM     15  C   UNL     1      -2.609  -2.657  -7.647  0.00  0.00    +0.232 C 
ATOM     16  C   UNL     1      -2.544  -4.155  -7.902  0.00  0.00    +0.082 C 
ATOM     17  C   UNL     1      -2.799  -4.968  -6.643  0.00  0.00    +0.232 C 
ATOM     18  O   UNL     1      -4.134  -4.768  -6.173  0.00  0.00    -0.488 OA
ENDBRANCH   7   8
BRANCH   1  19
ATOM     19  C   UNL     1      -2.526  -0.837   0.022  0.00  0.00    +0.134 C 
BRANCH  19  25
ATOM     20  C   UNL     1       3.662   2.191  -0.021  0.00  0.00    +0.044 C 
ATOM     21  C   UNL     1       2.374   1.409  -0.013  0.00  0.00    -0.044 A 
ATOM     22  C   UNL     1       1.161   2.084   0.002  0.00  0.00    +0.004 A 
ATOM     23  C   UNL     1      -0.017   1.390   0.010  0.00  0.00    +0.012 A 
ATOM     24  C   UNL     1       0.002  -0.004   0.002  0.00  0.00    +0.024 A 
ATOM     25  C   UNL     1      -1.033  -1.045   0.006  0.00  0.00    +0.007 A 
ATOM     26  C   UNL     1      -0.384  -2.217  -0.006  0.00  0.00    +0.200 A 
ATOM     27  O   UNL     1       0.944  -2.011  -0.018  0.00  0.00    -0.462 OA
ATOM     28  C   UNL     1       1.226  -0.693  -0.013  0.00  0.00    +0.138 A 
ATOM     29  C   UNL     1       2.412   0.031  -0.021  0.00  0.00    -0.005 A 
ATOM     30  C   UNL     1       3.736  -0.688  -0.037  0.00  0.00    +0.048 C 
ENDBRANCH  19  25
ENDBRANCH   1  19
TORSDOF 3
