REMARK  Name = ZINC22848938
REMARK  5 active torsions:
REMARK  status: ('A' for Active; 'I' for Inactive)
REMARK    1  A    between atoms: C_6  and  C_7
REMARK    2  A    between atoms: C_9  and  C_12
REMARK    3  A    between atoms: C_12  and  N_13
REMARK    4  A    between atoms: N_16  and  C_19
REMARK    5  A    between atoms: C_19  and  C_20
REMARK                            x       y       z     vdW  Elec       q    Type
REMARK                         _______ _______ _______ _____ _____    ______ ____
ROOT
ATOM      1  N   UNL     1      -3.331  -4.320   1.406  0.00  0.00    -0.291 NA
ATOM      2  C   UNL     1      -4.380  -3.557   2.096  0.00  0.00    +0.100 C 
ATOM      3  C   UNL     1      -4.462  -4.011   3.555  0.00  0.00    +0.100 C 
ATOM      4  N   UNL     1      -4.746  -5.452   3.602  0.00  0.00    -0.294 NA
ATOM      5  C   UNL     1      -3.697  -6.216   2.911  0.00  0.00    +0.100 C 
ATOM      6  C   UNL     1      -3.615  -5.761   1.452  0.00  0.00    +0.100 C 
ENDROOT
BRANCH   1   7
ATOM      7  C   UNL     1      -3.169  -3.860   0.021  0.00  0.00    +0.183 C 
BRANCH   7  10
ATOM      8  C   UNL     1      -1.272  -0.766   0.011  0.00  0.00    +0.202 A 
ATOM      9  N   UNL     1      -1.384  -2.106   0.010  0.00  0.00    -0.190 NA
ATOM     10  C   UNL     1      -2.641  -2.448   0.019  0.00  0.00    +0.242 A 
ATOM     11  O   UNL     1      -3.384  -1.334   0.026  0.00  0.00    -0.336 OA
ATOM     12  N   UNL     1      -2.474  -0.245   0.026  0.00  0.00    -0.056 NA
BRANCH   8  18
ATOM     13  C   UNL     1      -0.017   1.389   0.010  0.00  0.00    +0.013 A 
ATOM     14  C   UNL     1       1.170   2.093   0.002  0.00  0.00    +0.021 A 
ATOM     15  C   UNL     1       2.378   1.417  -0.013  0.00  0.00    +0.041 A 
ATOM     16  C   UNL     1       2.402   0.033  -0.022  0.00  0.00    +0.021 A 
ATOM     17  C   UNL     1       1.221  -0.680  -0.014  0.00  0.00    +0.013 A 
ATOM     18  C   UNL     1       0.002  -0.004   0.002  0.00  0.00    +0.023 A 
ATOM     19 CL   UNL     1       3.868   2.308  -0.024  0.00  0.00    -0.084 Cl
ENDBRANCH   8  18
ENDBRANCH   7  10
ENDBRANCH   1   7
BRANCH   4  20
ATOM     20  C   UNL     1      -4.908  -5.913   4.987  0.00  0.00    +0.137 C 
BRANCH  20  21
ATOM     21  C   UNL     1      -5.436  -7.324   4.989  0.00  0.00    +0.037 A 
ATOM     22  C   UNL     1      -4.673  -8.358   5.489  0.00  0.00    +0.093 A 
ATOM     23  C   UNL     1      -5.180  -9.658   5.482  0.00  0.00    +0.259 A 
ATOM     24  O   UNL     1      -4.509 -10.578   5.924  0.00  0.00    -0.267 OA
ATOM     25  N   UNL     1      -6.428  -9.901   4.982  0.00  0.00    -0.264 N 
ATOM     26  C   UNL     1      -7.061 -11.118   4.907  0.00  0.00    +0.104 A 
ATOM     27  C   UNL     1      -8.287 -11.226   4.395  0.00  0.00    +0.067 A 
ATOM     28  S   UNL     1      -8.652  -9.533   3.959  0.00  0.00    -0.059 S 
ATOM     29  C   UNL     1      -7.117  -8.817   4.506  0.00  0.00    +0.158 A 
ATOM     30  N   UNL     1      -6.649  -7.593   4.513  0.00  0.00    -0.338 N 
ATOM     31  H   UNL     1      -7.195  -6.872   4.163  0.00  0.00    +0.168 HD
ENDBRANCH  20  21
ENDBRANCH   4  20
TORSDOF 5
