REMARK  Name = ZINC37337529
REMARK  2 active torsions:
REMARK  status: ('A' for Active; 'I' for Inactive)
REMARK    1  A    between atoms: C_1  and  C_2
REMARK    2  A    between atoms: C_2  and  C_9
REMARK                            x       y       z     vdW  Elec       q    Type
REMARK                         _______ _______ _______ _____ _____    ______ ____
ROOT
ATOM      1  C   UNL     1       0.673  -0.517  -1.246  0.00  0.00    +0.121 A 
ATOM      2  C   UNL     1       1.935  -0.246  -1.605  0.00  0.00    +0.054 A 
ATOM      3  C   UNL     1       2.159  -0.948  -2.875  0.00  0.00    +0.021 A 
ATOM      4  C   UNL     1       3.242  -1.065  -3.745  0.00  0.00    +0.027 A 
ATOM      5  C   UNL     1       3.116  -1.825  -4.888  0.00  0.00    +0.019 A 
ATOM      6  C   UNL     1       1.920  -2.470  -5.172  0.00  0.00    +0.019 A 
ATOM      7  C   UNL     1       0.843  -2.361  -4.319  0.00  0.00    +0.048 A 
ATOM      8  C   UNL     1       0.949  -1.600  -3.162  0.00  0.00    +0.135 A 
ATOM      9  O   UNL     1       0.094  -1.317  -2.158  0.00  0.00    -0.459 OA
ATOM     10 BR   UNL     1       4.580  -1.990  -6.075  0.00  0.00    -0.050 Br
ENDROOT
BRANCH   1  12
ATOM     11  C   UNL     1      -0.019   1.526   0.010  0.00  0.00    +0.029 C 
ATOM     12  C   UNL     1       0.002  -0.004   0.002  0.00  0.00    +0.110 C 
ATOM     13  C   UNL     1      -1.429  -0.567   0.124  0.00  0.00    +0.120 C 
ATOM     14  C   UNL     1      -1.391  -1.356   1.414  0.00  0.00    +0.221 C 
ATOM     15  O   UNL     1      -2.322  -1.969   1.890  0.00  0.00    -0.275 OA
ATOM     16  N   UNL     1      -0.166  -1.270   1.948  0.00  0.00    -0.256 N 
ATOM     17  C   UNL     1       0.698  -0.534   1.237  0.00  0.00    +0.233 C 
ATOM     18  O   UNL     1       1.854  -0.326   1.535  0.00  0.00    -0.274 OA
ATOM     19  H   UNL     1       0.076  -1.704   2.780  0.00  0.00    +0.157 HD
ENDBRANCH   1  12
TORSDOF 1
