REMARK  Name = ZINC08310427
REMARK  5 active torsions:
REMARK  status: ('A' for Active; 'I' for Inactive)
REMARK    1  A    between atoms: C_1  and  C_2
REMARK    2  A    between atoms: C_7  and  N_8
REMARK    3  A    between atoms: C_9  and  C_11
REMARK    4  A    between atoms: C_11  and  N_53
REMARK    5  A    between atoms: C_15  and  C_17
REMARK                            x       y       z     vdW  Elec       q    Type
REMARK                         _______ _______ _______ _____ _____    ______ ____
ROOT
ATOM      1  C   UNL     1       2.004   6.053  -6.071  0.00  0.00    -0.077 C 
ATOM      2  C   UNL     1       3.280   5.815  -5.235  0.00  0.00    -0.020 C 
ATOM      3  C   UNL     1       2.872   4.777  -4.168  0.00  0.00    -0.013 C 
ATOM      4  C   UNL     1       1.384   4.476  -4.450  0.00  0.00    -0.037 C 
ATOM      5  N   UNL     1       0.922   5.670  -5.167  0.00  0.00    +0.390 N 
ATOM      6  H   UNL     1       0.736   6.429  -4.501  0.00  0.00    -0.080 HD
ENDROOT
BRANCH   4   7
ATOM      7  C   UNL     1       0.633   4.285  -3.158  0.00  0.00    -0.057 A 
ATOM      8  C   UNL     1       0.280   5.383  -2.397  0.00  0.00    +0.006 A 
ATOM      9  C   UNL     1      -0.410   5.215  -1.210  0.00  0.00    +0.049 A 
ATOM     10  C   UNL     1      -0.747   3.941  -0.786  0.00  0.00    +0.162 A 
ATOM     11  C   UNL     1      -0.392   2.838  -1.550  0.00  0.00    +0.162 A 
ATOM     12  C   UNL     1       0.299   3.010  -2.737  0.00  0.00    +0.051 A 
ATOM     13  O   UNL     1      -0.729   1.586  -1.123  0.00  0.00    -0.488 OA
ATOM     14  C   UNL     1      -0.055   1.123   0.049  0.00  0.00    +0.232 C 
ATOM     15  C   UNL     1      -0.755   1.618   1.304  0.00  0.00    +0.082 C 
ATOM     16  C   UNL     1      -0.699   3.132   1.439  0.00  0.00    +0.232 C 
ATOM     17  O   UNL     1      -1.427   3.761   0.383  0.00  0.00    -0.488 OA
ENDBRANCH   4   7
BRANCH   5  18
ATOM     18  C   UNL     1      -0.331   5.368  -5.931  0.00  0.00    +0.020 C 
BRANCH  18  20
ATOM     19  N   UNL     1      -2.075   6.609  -7.171  0.00  0.00    -0.287 N 
ATOM     20  C   UNL     1      -0.943   6.648  -6.439  0.00  0.00    +0.201 C 
ATOM     21  O   UNL     1      -0.418   7.712  -6.191  0.00  0.00    -0.278 OA
ATOM     22  H   UNL     1      -2.450   5.755  -7.438  0.00  0.00    +0.155 HD
BRANCH  19  29
ATOM     23  C   UNL     1      -3.712   6.586  -9.498  0.00  0.00    +0.046 C 
ATOM     24  C   UNL     1      -3.515   7.833  -8.675  0.00  0.00    -0.028 A 
ATOM     25  C   UNL     1      -4.143   9.008  -9.039  0.00  0.00    +0.025 A 
ATOM     26  C   UNL     1      -3.957  10.155  -8.287  0.00  0.00    +0.041 A 
ATOM     27  C   UNL     1      -3.148  10.126  -7.165  0.00  0.00    +0.022 A 
ATOM     28  C   UNL     1      -2.522   8.952  -6.793  0.00  0.00    +0.025 A 
ATOM     29  C   UNL     1      -2.707   7.800  -7.546  0.00  0.00    +0.036 A 
ATOM     30 CL   UNL     1      -4.742  11.632  -8.752  0.00  0.00    -0.084 Cl
ENDBRANCH  19  29
ENDBRANCH  18  20
ENDBRANCH   5  18
TORSDOF 4
