REMARK  Name = ZINC05445921
REMARK  12 active torsions:
REMARK  status: ('A' for Active; 'I' for Inactive)
REMARK    1  A    between atoms: C_1  and  C_2
REMARK    2  A    between atoms: C_4  and  C_10
REMARK    3  A    between atoms: C_7  and  O_8
REMARK    4  A    between atoms: O_8  and  C_9
REMARK    5  A    between atoms: C_10  and  O_30
REMARK    6  A    between atoms: C_12  and  C_23
REMARK    7  A    between atoms: N_14  and  C_19
REMARK    8  A    between atoms: C_19  and  C_20
REMARK    9  A    between atoms: C_20  and  N_56
REMARK   10  A    between atoms: C_21  and  N_56
REMARK   11  A    between atoms: C_22  and  N_56
REMARK   12  A    between atoms: C_26  and  O_29
REMARK                            x       y       z     vdW  Elec       q    Type
REMARK                         _______ _______ _______ _____ _____    ______ ____
ROOT
ATOM      1  C   UNL     1       2.038   0.951   5.514  0.00  0.00    +0.133 C 
ATOM      2  C   UNL     1       1.029   0.917   4.571  0.00  0.00    +0.071 C 
ATOM      3  C   UNL     1       0.530   2.072   3.734  0.00  0.00    +0.144 C 
ATOM      4  N   UNL     1      -0.543   1.543   2.886  0.00  0.00    -0.285 N 
ATOM      5  C   UNL     1      -0.706   0.236   3.153  0.00  0.00    +0.288 C 
ATOM      6  O   UNL     1      -1.521  -0.487   2.618  0.00  0.00    -0.266 OA
ATOM      7  C   UNL     1       0.262  -0.196   4.198  0.00  0.00    +0.249 C 
ATOM      8  O   UNL     1       0.366  -1.321   4.653  0.00  0.00    -0.282 OA
ENDROOT
BRANCH   1  12
ATOM      9  C   UNL     1       4.073   4.386   8.498  0.00  0.00    +0.047 C 
ATOM     10  C   UNL     1       3.827   3.827   7.120  0.00  0.00    -0.008 A 
ATOM     11  C   UNL     1       3.072   2.687   6.965  0.00  0.00    +0.018 A 
ATOM     12  C   UNL     1       2.845   2.169   5.685  0.00  0.00    +0.017 A 
ATOM     13  C   UNL     1       3.392   2.812   4.567  0.00  0.00    +0.015 A 
ATOM     14  C   UNL     1       4.141   3.955   4.732  0.00  0.00    +0.046 A 
ATOM     15  C   UNL     1       4.364   4.465   6.007  0.00  0.00    +0.123 A 
BRANCH  15  16
ATOM     16  O   UNL     1       5.108   5.589   6.164  0.00  0.00    -0.495 OA
ATOM     17  C   UNL     1       5.628   6.194   4.979  0.00  0.00    +0.277 C 
ENDBRANCH  15  16
ENDBRANCH   1  12
BRANCH   3  18
ATOM     18  C   UNL     1      -0.006   3.162   4.625  0.00  0.00    -0.022 A 
ATOM     19  C   UNL     1      -1.195   2.975   5.305  0.00  0.00    +0.009 A 
ATOM     20  C   UNL     1      -1.686   3.971   6.128  0.00  0.00    +0.046 A 
ATOM     21  C   UNL     1      -0.991   5.164   6.261  0.00  0.00    +0.117 A 
ATOM     22  C   UNL     1       0.199   5.351   5.573  0.00  0.00    +0.046 A 
ATOM     23  C   UNL     1       0.689   4.350   4.757  0.00  0.00    +0.009 A 
BRANCH  21  24
ATOM     24  O   UNL     1      -1.474   6.147   7.066  0.00  0.00    -0.507 OA
ATOM     25  H   UNL     1      -2.062   6.769   6.616  0.00  0.00    +0.292 HD
ENDBRANCH  21  24
ENDBRANCH   3  18
BRANCH   1  26
ATOM     26  O   UNL     1       2.284  -0.134   6.279  0.00  0.00    -0.506 OA
ATOM     27  H   UNL     1       1.649  -0.866   6.033  0.00  0.00    +0.292 HD
ENDBRANCH   1  26
BRANCH   4  28
ATOM     28  C   UNL     1      -1.316   2.316   1.911  0.00  0.00    +0.090 C 
BRANCH  28  29
ATOM     29  C   UNL     1      -0.620   2.262   0.550  0.00  0.00    -0.060 C 
BRANCH  29  32
ATOM     30  C   UNL     1      -1.392   4.466  -0.089  0.00  0.00    -0.097 C 
ATOM     31  C   UNL     1      -0.894   2.817  -1.791  0.00  0.00    -0.097 C 
ATOM     32  N   UNL     1      -1.423   3.027  -0.427  0.00  0.00    +0.377 N 
ATOM     33  H   UNL     1      -2.394   2.697  -0.392  0.00  0.00    -0.083 HD
ENDBRANCH  29  32
ENDBRANCH  28  29
ENDBRANCH   4  28
TORSDOF 8
