REMARK  Name = ZINC10457976
REMARK  13 active torsions:
REMARK  status: ('A' for Active; 'I' for Inactive)
REMARK    1  A    between atoms: C_1  and  C_2
REMARK    2  A    between atoms: C_5  and  S_9
REMARK    3  A    between atoms: C_7  and  C_8
REMARK    4  A    between atoms: S_9  and  N_12
REMARK    5  A    between atoms: N_12  and  C_13
REMARK    6  A    between atoms: C_13  and  C_15
REMARK    7  A    between atoms: C_13  and  C_18
REMARK    8  A    between atoms: C_15  and  C_16
REMARK    9  A    between atoms: C_15  and  C_17
REMARK   10  A    between atoms: N_20  and  C_21
REMARK   11  A    between atoms: C_21  and  C_22
REMARK   12  A    between atoms: C_23  and  C_31
REMARK   13  A    between atoms: C_25  and  C_30
REMARK                            x       y       z     vdW  Elec       q    Type
REMARK                         _______ _______ _______ _____ _____    ______ ____
ROOT
ATOM      1  C   UNL     1       0.920  -0.650   1.043  0.00  0.00    +0.165 C 
ENDROOT
BRANCH   1   2
ATOM      2  C   UNL     1       0.271  -2.010   1.062  0.00  0.00    +0.232 C 
ATOM      3  O   UNL     1      -0.732  -2.212   0.411  0.00  0.00    -0.274 OA
ATOM      4  N   UNL     1       0.804  -3.002   1.802  0.00  0.00    -0.310 N 
ATOM      5  H   UNL     1       1.566  -2.823   2.376  0.00  0.00    +0.149 HD
BRANCH   4   6
ATOM      6  C   UNL     1       0.234  -4.350   1.741  0.00  0.00    +0.145 C 
BRANCH   6   7
ATOM      7  C   UNL     1       1.008  -5.264   2.656  0.00  0.00    +0.037 A 
ATOM      8  C   UNL     1       0.577  -5.489   3.930  0.00  0.00    -0.039 A 
ATOM      9  C   UNL     1       1.312  -6.347   4.761  0.00  0.00    +0.024 A 
ATOM     10  C   UNL     1       2.440  -6.934   4.297  0.00  0.00    +0.016 A 
ATOM     11  N   UNL     1       2.869  -6.705   3.030  0.00  0.00    -0.326 N 
ATOM     12  H   UNL     1       3.680  -7.134   2.713  0.00  0.00    +0.169 HD
ATOM     13  C   UNL     1       2.183  -5.890   2.207  0.00  0.00    +0.254 A 
ATOM     14  O   UNL     1       2.582  -5.694   1.070  0.00  0.00    -0.268 OA
ATOM     15  C   UNL     1       3.227  -7.851   5.197  0.00  0.00    +0.063 C 
ATOM     16  C   UNL     1      -0.677  -4.826   4.439  0.00  0.00    +0.044 C 
ENDBRANCH   6   7
ENDBRANCH   4   6
ENDBRANCH   1   2
BRANCH   1  17
ATOM     17  C   UNL     1       2.151  -0.685   0.135  0.00  0.00    +0.010 C 
ATOM     18  C   UNL     1       1.726  -1.069  -1.284  0.00  0.00    +0.009 C 
ATOM     19  C   UNL     1       2.809   0.696   0.114  0.00  0.00    +0.009 C 
ENDBRANCH   1  17
BRANCH   1  20
ATOM     20  N   UNL     1      -0.034   0.340   0.536  0.00  0.00    -0.178 NA
ATOM     21  H   UNL     1      -0.136   0.469  -0.420  0.00  0.00    +0.149 HD
BRANCH  20  22
ATOM     22  S   UNL     1      -0.936   1.238   1.595  0.00  0.00    +0.059 S 
ATOM     23  O   UNL     1      -1.701   2.143   0.810  0.00  0.00    -0.153 OA
ATOM     24  O   UNL     1      -1.535   0.319   2.499  0.00  0.00    -0.153 OA
BRANCH  22  29
ATOM     25  C   UNL     1       2.909   4.582   4.826  0.00  0.00    +0.044 C 
ATOM     26  C   UNL     1       1.948   3.747   4.019  0.00  0.00    -0.047 A 
ATOM     27  C   UNL     1       1.605   2.478   4.450  0.00  0.00    +0.005 A 
ATOM     28  C   UNL     1       0.720   1.714   3.712  0.00  0.00    +0.029 A 
ATOM     29  C   UNL     1       0.187   2.214   2.538  0.00  0.00    +0.106 A 
ATOM     30  C   UNL     1       0.530   3.482   2.109  0.00  0.00    +0.032 A 
ATOM     31  C   UNL     1       1.411   4.249   2.849  0.00  0.00    -0.046 A 
ATOM     32  C   UNL     1       1.784   5.631   2.381  0.00  0.00    +0.044 C 
ENDBRANCH  22  29
ENDBRANCH  20  22
ENDBRANCH   1  20
TORSDOF 7
