REMARK  Name = ZINC58044236
REMARK  13 active torsions:
REMARK  status: ('A' for Active; 'I' for Inactive)
REMARK    1  A    between atoms: C_1  and  C_2
REMARK    2  A    between atoms: C_2  and  C_3
REMARK    3  A    between atoms: C_3  and  C_4
REMARK    4  A    between atoms: C_4  and  N_5
REMARK    5  A    between atoms: N_14  and  C_30
REMARK    6  A    between atoms: C_15  and  C_17
REMARK    7  A    between atoms: C_17  and  N_18
REMARK    8  A    between atoms: N_18  and  C_19
REMARK    9  A    between atoms: N_18  and  C_20
REMARK   10  A    between atoms: C_20  and  C_21
REMARK   11  A    between atoms: C_24  and  C_27
REMARK   12  A    between atoms: C_27  and  C_28
REMARK   13  A    between atoms: C_27  and  C_29
REMARK                            x       y       z     vdW  Elec       q    Type
REMARK                         _______ _______ _______ _____ _____    ______ ____
ROOT
ATOM      1  N   UNL     1       1.425  -2.500  -2.470  0.00  0.00    -0.277 N 
ATOM      2  C   UNL     1       0.704  -2.728  -3.632  0.00  0.00    +0.168 A 
ATOM      3  C   UNL     1       1.377  -3.176  -4.761  0.00  0.00    +0.151 A 
ATOM      4  C   UNL     1       2.772  -3.385  -4.694  0.00  0.00    +0.280 A 
ATOM      5  O   UNL     1       3.384  -3.776  -5.671  0.00  0.00    -0.265 OA
ATOM      6  N   UNL     1       3.418  -3.144  -3.534  0.00  0.00    -0.273 N 
ATOM      7  H   UNL     1       4.376  -3.286  -3.483  0.00  0.00    +0.173 HD
ATOM      8  C   UNL     1       2.755  -2.706  -2.450  0.00  0.00    +0.331 A 
ATOM      9  O   UNL     1       3.372  -2.495  -1.423  0.00  0.00    -0.246 OA
ATOM     10  N   UNL     1       0.423  -3.315  -5.750  0.00  0.00    -0.327 N 
ATOM     11  C   UNL     1      -0.758  -2.960  -5.209  0.00  0.00    +0.096 A 
ATOM     12  N   UNL     1      -0.586  -2.614  -3.958  0.00  0.00    -0.216 NA
ATOM     13  C   UNL     1       0.653  -3.763  -7.125  0.00  0.00    +0.151 C 
ENDROOT
BRANCH   1  14
ATOM     14  C   UNL     1       0.739  -2.027  -1.265  0.00  0.00    +0.128 C 
BRANCH  14  15
ATOM     15  C   UNL     1       0.718  -0.497  -1.257  0.00  0.00    +0.021 C 
BRANCH  15  17
ATOM     16  C   UNL     1      -0.019   1.526   0.010  0.00  0.00    +0.004 C 
ATOM     17  C   UNL     1       0.002  -0.004   0.002  0.00  0.00    -0.002 C 
ENDBRANCH  15  17
ENDBRANCH  14  15
ENDBRANCH   1  14
BRANCH  11  18
ATOM     18  C   UNL     1      -2.079  -2.959  -5.935  0.00  0.00    -0.003 C 
BRANCH  18  19
ATOM     19  N   UNL     1      -2.724  -4.270  -5.779  0.00  0.00    +0.385 N 
ATOM     20  C   UNL     1      -3.057  -4.487  -4.365  0.00  0.00    -0.095 C 
ATOM     21  H   UNL     1      -2.094  -4.993  -6.092  0.00  0.00    -0.081 HD
BRANCH  19  22
ATOM     22  C   UNL     1      -3.952  -4.310  -6.584  0.00  0.00    -0.043 C 
BRANCH  22  23
ATOM     23  C   UNL     1      -4.548  -5.692  -6.523  0.00  0.00    -0.064 A 
ATOM     24  C   UNL     1      -4.177  -6.646  -7.453  0.00  0.00    +0.002 A 
ATOM     25  C   UNL     1      -4.724  -7.915  -7.397  0.00  0.00    +0.004 A 
ATOM     26  C   UNL     1      -5.641  -8.230  -6.411  0.00  0.00    -0.045 A 
ATOM     27  C   UNL     1      -6.011  -7.276  -5.481  0.00  0.00    +0.004 A 
ATOM     28  C   UNL     1      -5.461  -6.009  -5.535  0.00  0.00    +0.002 A 
BRANCH  26  29
ATOM     29  C   UNL     1      -6.237  -9.612  -6.351  0.00  0.00    +0.013 C 
ATOM     30  C   UNL     1      -5.896 -10.257  -5.006  0.00  0.00    +0.012 C 
ATOM     31  C   UNL     1      -7.757  -9.519  -6.501  0.00  0.00    +0.012 C 
ENDBRANCH  26  29
ENDBRANCH  22  23
ENDBRANCH  19  22
ENDBRANCH  18  19
ENDBRANCH  11  18
TORSDOF 8
