REMARK  Name = ZINC39934846
REMARK  7 active torsions:
REMARK  status: ('A' for Active; 'I' for Inactive)
REMARK    1  A    between atoms: C_1  and  C_2
REMARK    2  A    between atoms: C_7  and  C_12
REMARK    3  A    between atoms: C_12  and  C_27
REMARK    4  A    between atoms: C_13  and  C_14
REMARK    5  A    between atoms: C_17  and  O_21
REMARK    6  A    between atoms: O_21  and  C_22
REMARK    7  A    between atoms: C_22  and  C_23
REMARK                            x       y       z     vdW  Elec       q    Type
REMARK                         _______ _______ _______ _____ _____    ______ ____
ROOT
ATOM      1  C   UNL     1      -1.152  -5.096   1.988  0.00  0.00    +0.072 C 
ATOM      2  C   UNL     1      -1.020  -6.294   2.595  0.00  0.00    +0.026 C 
ENDROOT
BRANCH   1   9
ATOM      3  C   UNL     1       0.279   1.381  -0.212  0.00  0.00    +0.044 C 
ATOM      4  C   UNL     1       0.133  -0.119  -0.210  0.00  0.00    -0.048 A 
ATOM      5  C   UNL     1      -0.186  -0.768  -1.416  0.00  0.00    +0.005 A 
ATOM      6  C   UNL     1      -0.336  -2.105  -1.505  0.00  0.00    +0.027 A 
ATOM      7  C   UNL     1      -0.161  -2.935  -0.305  0.00  0.00    +0.060 A 
ATOM      8  N   UNL     1      -0.242  -4.217  -0.097  0.00  0.00    -0.359 N 
ATOM      9  C   UNL     1       0.038  -4.451   1.326  0.00  0.00    +0.216 C 
ATOM     10  N   UNL     1       0.293  -3.132   1.919  0.00  0.00    -0.359 N 
ATOM     11  C   UNL     1       0.178  -2.248   0.971  0.00  0.00    +0.061 A 
ATOM     12  C   UNL     1       0.320  -0.786   0.946  0.00  0.00    +0.030 A 
ATOM     13  H   UNL     1      -0.450  -4.894  -0.759  0.00  0.00    +0.162 HD
ATOM     14  H   UNL     1       0.508  -2.953   2.848  0.00  0.00    +0.162 HD
ENDBRANCH   1   9
BRANCH   2  15
ATOM     15  C   UNL     1      -2.208  -6.998   3.099  0.00  0.00    -0.021 A 
ATOM     16  C   UNL     1      -3.411  -6.945   2.385  0.00  0.00    +0.031 A 
ATOM     17  C   UNL     1      -4.521  -7.607   2.861  0.00  0.00    +0.084 A 
ATOM     18  C   UNL     1      -4.449  -8.328   4.049  0.00  0.00    +0.153 A 
ATOM     19  C   UNL     1      -3.256  -8.384   4.761  0.00  0.00    +0.061 A 
ATOM     20  C   UNL     1      -2.138  -7.730   4.290  0.00  0.00    +0.027 A 
ATOM     21 BR   UNL     1      -3.165  -9.366   6.374  0.00  0.00    -0.046 Br
ATOM     22 CL   UNL     1      -6.014  -7.541   1.978  0.00  0.00    -0.080 Cl
BRANCH  18  23
ATOM     23  O   UNL     1      -5.546  -8.978   4.514  0.00  0.00    -0.478 OA
BRANCH  23  24
ATOM     24  C   UNL     1      -5.731 -10.328   4.084  0.00  0.00    +0.353 C 
BRANCH  24  25
ATOM     25  C   UNL     1      -6.991 -10.883   4.697  0.00  0.00    +0.393 C 
ATOM     26  O   UNL     1      -7.668 -10.186   5.434  0.00  0.00    -0.243 OA
ATOM     27  O   UNL     1      -7.333 -12.028   4.457  0.00  0.00    -0.243 OA
ENDBRANCH  24  25
ENDBRANCH  23  24
ENDBRANCH  18  23
ENDBRANCH   2  15
BRANCH   1  28
ATOM     28  C   UNL     1      -2.424  -4.438   1.972  0.00  0.00    +0.099 C 
ATOM     29  N   UNL     1      -3.433  -3.916   1.960  0.00  0.00    -0.191 NA
ENDBRANCH   1  28
TORSDOF 6
