REMARK  Name = ZINC21090580
REMARK  4 active torsions:
REMARK  status: ('A' for Active; 'I' for Inactive)
REMARK    1  A    between atoms: C_1  and  C_2
REMARK    2  A    between atoms: C_5  and  C_17
REMARK    3  A    between atoms: C_8  and  C_10
REMARK    4  A    between atoms: C_20  and  N_23
REMARK                            x       y       z     vdW  Elec       q    Type
REMARK                         _______ _______ _______ _____ _____    ______ ____
ROOT
ATOM      1  C   UNL     1       3.506  -3.025  -0.050  0.00  0.00    +0.111 C 
ATOM      2  C   UNL     1       4.438  -1.840  -0.052  0.00  0.00    +0.235 C 
ATOM      3  O   UNL     1       5.639  -2.013  -0.065  0.00  0.00    -0.274 OA
ATOM      4  N   UNL     1       3.938  -0.589  -0.040  0.00  0.00    -0.146 N 
ATOM      5  C   UNL     1       4.694   0.676  -0.040  0.00  0.00    +0.319 C 
ATOM      6  O   UNL     1       3.682   1.692  -0.025  0.00  0.00    -0.447 OA
ATOM      7  C   UNL     1       2.478   1.075  -0.016  0.00  0.00    +0.240 C 
ATOM      8  N   UNL     1       2.586  -0.214  -0.019  0.00  0.00    -0.135 NA
ENDROOT
BRANCH   7   9
ATOM      9  C   UNL     1       1.186   1.792   0.000  0.00  0.00    +0.038 A 
ATOM     10  C   UNL     1      -0.013   1.076   0.008  0.00  0.00    +0.014 A 
ATOM     11  C   UNL     1      -1.215   1.750   0.017  0.00  0.00    +0.021 A 
ATOM     12  C   UNL     1      -1.236   3.135   0.031  0.00  0.00    +0.041 A 
ATOM     13  C   UNL     1      -0.050   3.851   0.023  0.00  0.00    +0.021 A 
ATOM     14  C   UNL     1       1.159   3.187   0.008  0.00  0.00    +0.014 A 
ATOM     15 CL   UNL     1      -2.754   3.977   0.051  0.00  0.00    -0.084 Cl
ENDBRANCH   7   9
BRANCH   5  16
ATOM     16  C   UNL     1       5.559   0.773   1.190  0.00  0.00    +0.013 A 
ATOM     17  C   UNL     1       5.197   0.102   2.344  0.00  0.00    +0.011 A 
ATOM     18  C   UNL     1       5.993   0.187   3.471  0.00  0.00    +0.033 A 
ATOM     19  C   UNL     1       7.144   0.953   3.448  0.00  0.00    +0.126 A 
ATOM     20  C   UNL     1       7.502   1.628   2.297  0.00  0.00    +0.033 A 
ATOM     21  C   UNL     1       6.710   1.538   1.168  0.00  0.00    +0.011 A 
BRANCH  19  22
ATOM     22  N   UNL     1       7.992   1.049   4.657  0.00  0.00    +0.056 N 
ATOM     23  O   UNL     1       9.006   1.724   4.638  0.00  0.00    -0.126 OA
ATOM     24  O   UNL     1       7.676   0.454   5.672  0.00  0.00    -0.126 OA
ENDBRANCH  19  22
ENDBRANCH   5  16
TORSDOF 3
