REMARK  Name = ZINC34974554
REMARK  8 active torsions:
REMARK  status: ('A' for Active; 'I' for Inactive)
REMARK    1  A    between atoms: C_1  and  C_2
REMARK    2  A    between atoms: C_9  and  C_11
REMARK    3  A    between atoms: C_14  and  C_16
REMARK    4  A    between atoms: C_16  and  C_18
REMARK    5  A    between atoms: C_16  and  N_21
REMARK    6  A    between atoms: C_18  and  C_19
REMARK    7  A    between atoms: C_18  and  C_20
REMARK    8  A    between atoms: N_24  and  C_25
REMARK                            x       y       z     vdW  Elec       q    Type
REMARK                         _______ _______ _______ _____ _____    ______ ____
ROOT
ATOM      1  C   UNL     1       0.514  -4.143  -1.802  0.00  0.00    +0.163 C 
ENDROOT
BRANCH   1  11
ATOM      2  C   UNL     1      -0.142   1.746  -0.184  0.00  0.00    +0.029 C 
ATOM      3  C   UNL     1      -0.208   0.218  -0.165  0.00  0.00    +0.090 C 
ATOM      4  C   UNL     1       0.694  -0.350  -1.268  0.00  0.00    +0.130 C 
ATOM      5  N   UNL     1       0.821  -1.801  -1.070  0.00  0.00    -0.297 N 
ATOM      6  C   UNL     1       1.297  -2.299   0.228  0.00  0.00    +0.127 C 
ATOM      7  C   UNL     1       0.395  -1.731   1.331  0.00  0.00    +0.127 C 
ATOM      8  N   UNL     1       0.263  -0.280   1.135  0.00  0.00    -0.295 N 
ATOM      9  C   UNL     1       0.574   0.578   2.126  0.00  0.00    +0.219 C 
ATOM     10  O   UNL     1       0.364   1.765   1.990  0.00  0.00    -0.275 OA
ATOM     11  C   UNL     1       0.508  -2.659  -2.061  0.00  0.00    +0.236 C 
ATOM     12  O   UNL     1       0.222  -2.236  -3.161  0.00  0.00    -0.274 OA
BRANCH   9  13
ATOM     13  C   UNL     1       1.183   0.063   3.405  0.00  0.00    +0.075 C 
ATOM     14  C   UNL     1       0.329   0.135   4.673  0.00  0.00    +0.013 C 
ATOM     15  C   UNL     1       1.513   1.087   4.493  0.00  0.00    +0.013 C 
ENDBRANCH   9  13
ENDBRANCH   1  11
BRANCH   1  16
ATOM     16  N   UNL     1      -0.192  -4.830  -2.886  0.00  0.00    -0.288 N 
ATOM     17  C   UNL     1      -0.756  -6.035  -2.666  0.00  0.00    +0.305 C 
ATOM     18  O   UNL     1      -0.678  -6.551  -1.568  0.00  0.00    -0.252 OA
ATOM     19  N   UNL     1      -1.405  -6.667  -3.664  0.00  0.00    -0.267 N 
ATOM     20  H   UNL     1      -0.254  -4.419  -3.763  0.00  0.00    +0.151 HD
ATOM     21  H   UNL     1      -1.407  -6.290  -4.557  0.00  0.00    +0.156 HD
BRANCH  19  22
ATOM     22  C   UNL     1      -2.079  -7.870  -3.409  0.00  0.00    +0.070 A 
ATOM     23  C   UNL     1      -2.641  -8.101  -2.162  0.00  0.00    +0.029 A 
ATOM     24  C   UNL     1      -3.305  -9.287  -1.913  0.00  0.00    +0.040 A 
ATOM     25  C   UNL     1      -3.409 -10.246  -2.907  0.00  0.00    +0.126 A 
ATOM     26  C   UNL     1      -2.849 -10.019  -4.153  0.00  0.00    +0.078 A 
ATOM     27  C   UNL     1      -2.189  -8.831  -4.408  0.00  0.00    +0.147 A 
ATOM     28  F   UNL     1      -1.647  -8.606  -5.625  0.00  0.00    -0.203 F 
ATOM     29  F   UNL     1      -4.059 -11.405  -2.661  0.00  0.00    -0.205 F 
ENDBRANCH  19  22
ENDBRANCH   1  16
BRANCH   1  30
ATOM     30  C   UNL     1       1.959  -4.644  -1.737  0.00  0.00    +0.012 C 
ATOM     31  C   UNL     1       1.965  -6.148  -1.460  0.00  0.00    +0.009 C 
ATOM     32  C   UNL     1       2.655  -4.368  -3.071  0.00  0.00    +0.009 C 
ENDBRANCH   1  30
TORSDOF 5
