REMARK  Name = ZINC47125553
REMARK  5 active torsions:
REMARK  status: ('A' for Active; 'I' for Inactive)
REMARK    1  A    between atoms: C_1  and  C_2
REMARK    2  A    between atoms: N_11  and  C_12
REMARK    3  A    between atoms: C_12  and  C_14
REMARK    4  A    between atoms: C_12  and  C_15
REMARK    5  A    between atoms: C_15  and  C_16
REMARK                            x       y       z     vdW  Elec       q    Type
REMARK                         _______ _______ _______ _____ _____    ______ ____
ROOT
ATOM      1  C   UNL     1      -0.017  -2.182   3.717  0.00  0.00    +0.039 C 
ATOM      2  C   UNL     1      -0.971  -1.786   2.588  0.00  0.00    +0.133 C 
ATOM      3  C   UNL     1      -0.583  -2.530   1.305  0.00  0.00    +0.140 C 
ATOM      4  N   UNL     1      -1.390  -1.995   0.196  0.00  0.00    -0.281 N 
ATOM      5  C   UNL     1      -1.432  -0.536   0.013  0.00  0.00    +0.137 C 
ATOM      6  C   UNL     1      -1.779   0.111   1.359  0.00  0.00    +0.179 C 
ATOM      7  O   UNL     1      -0.884  -0.377   2.361  0.00  0.00    -0.374 OA
ATOM      8  C   UNL     1      -2.069  -2.818  -0.627  0.00  0.00    +0.303 C 
ATOM      9  O   UNL     1      -2.805  -2.356  -1.477  0.00  0.00    -0.253 OA
ATOM     10  N   UNL     1      -1.933  -4.154  -0.507  0.00  0.00    -0.296 N 
ATOM     11  H   UNL     1      -1.404  -4.525   0.216  0.00  0.00    +0.151 HD
ENDROOT
BRANCH  10  12
ATOM     12  C   UNL     1      -2.585  -5.045  -1.469  0.00  0.00    +0.076 C 
ATOM     13  C   UNL     1      -4.029  -5.301  -1.031  0.00  0.00    +0.028 C 
BRANCH  12  14
ATOM     14  C   UNL     1      -1.828  -6.374  -1.528  0.00  0.00    +0.057 C 
BRANCH  14  15
ATOM     15  C   UNL     1      -0.444  -6.139  -2.077  0.00  0.00    -0.046 A 
ATOM     16  C   UNL     1      -0.220  -6.209  -3.439  0.00  0.00    +0.005 A 
ATOM     17  C   UNL     1       1.050  -5.994  -3.942  0.00  0.00    +0.015 A 
ATOM     18  C   UNL     1       2.095  -5.707  -3.083  0.00  0.00    +0.018 A 
ATOM     19  C   UNL     1       1.870  -5.636  -1.720  0.00  0.00    +0.015 A 
ATOM     20  C   UNL     1       0.599  -5.847  -1.218  0.00  0.00    +0.005 A 
ATOM     21 BR   UNL     1       3.831  -5.412  -3.771  0.00  0.00    -0.050 Br
ENDBRANCH  14  15
ENDBRANCH  12  14
ENDBRANCH  10  12
TORSDOF 3
