REMARK  Name = ZINC51105305
REMARK  6 active torsions:
REMARK  status: ('A' for Active; 'I' for Inactive)
REMARK    1  A    between atoms: C_1  and  C_2
REMARK    2  A    between atoms: C_2  and  C_4
REMARK    3  A    between atoms: C_2  and  N_17
REMARK    4  A    between atoms: N_6  and  C_7
REMARK    5  A    between atoms: C_8  and  C_15
REMARK    6  A    between atoms: C_21  and  C_24
REMARK                            x       y       z     vdW  Elec       q    Type
REMARK                         _______ _______ _______ _____ _____    ______ ____
ROOT
ATOM      1  C   UNL     1       0.707  -0.490  -1.238  0.00  0.00    +0.235 C 
ATOM      2  O   UNL     1       0.120  -1.191  -2.034  0.00  0.00    -0.274 OA
ATOM      3  N   UNL     1       1.991  -0.146  -1.462  0.00  0.00    -0.278 N 
ATOM      4  H   UNL     1       2.461   0.415  -0.825  0.00  0.00    +0.155 HD
ENDROOT
BRANCH   3   5
ATOM      5  C   UNL     1       2.641  -0.593  -2.603  0.00  0.00    +0.090 A 
ATOM      6  C   UNL     1       3.944  -0.348  -2.991  0.00  0.00    +0.084 A 
ATOM      7  C   UNL     1       4.392  -0.940  -4.250  0.00  0.00    -0.018 A 
ATOM      8  C   UNL     1       3.450  -1.663  -4.882  0.00  0.00    -0.004 A 
ATOM      9  S   UNL     1       2.026  -1.563  -3.826  0.00  0.00    -0.077 S 
ATOM     10  C   UNL     1       3.961  -2.245  -6.172  0.00  0.00    +0.043 C 
ATOM     11  C   UNL     1       5.238  -1.435  -6.487  0.00  0.00    +0.010 C 
ATOM     12  C   UNL     1       5.673  -0.973  -5.081  0.00  0.00    +0.037 C 
BRANCH   6  13
ATOM     13  C   UNL     1       4.820   0.455  -2.192  0.00  0.00    +0.102 C 
ATOM     14  N   UNL     1       5.515   1.091  -1.557  0.00  0.00    -0.191 NA
ENDBRANCH   6  13
ENDBRANCH   3   5
BRANCH   1  16
ATOM     15  C   UNL     1      -0.019   1.526   0.010  0.00  0.00    +0.034 C 
ATOM     16  C   UNL     1       0.002  -0.004   0.002  0.00  0.00    +0.140 C 
BRANCH  16  17
ATOM     17  N   UNL     1      -1.376  -0.512   0.012  0.00  0.00    -0.287 NA
ATOM     18  C   UNL     1      -2.129  -0.018  -1.150  0.00  0.00    +0.113 C 
ATOM     19  C   UNL     1      -3.537  -0.619  -1.131  0.00  0.00    +0.176 C 
ATOM     20  O   UNL     1      -4.174  -0.289   0.106  0.00  0.00    -0.365 OA
ATOM     21  C   UNL     1      -3.468  -0.756   1.259  0.00  0.00    +0.217 C 
ATOM     22  C   UNL     1      -2.059  -0.157   1.265  0.00  0.00    +0.126 C 
BRANCH  21  23
ATOM     23  C   UNL     1      -4.202  -0.331   2.505  0.00  0.00    +0.241 C 
ATOM     24  O   UNL     1      -5.177   0.385   2.419  0.00  0.00    -0.273 OA
ATOM     25  N   UNL     1      -3.774  -0.746   3.713  0.00  0.00    -0.327 N 
ATOM     26  H   UNL     1      -2.994  -1.318   3.782  0.00  0.00    +0.145 HD
ATOM     27  H   UNL     1      -4.247  -0.472   4.515  0.00  0.00    +0.145 HD
ENDBRANCH  21  23
ENDBRANCH  16  17
ENDBRANCH   1  16
TORSDOF 5
