REMARK  Name = ZINC03035469
REMARK  4 active torsions:
REMARK  status: ('A' for Active; 'I' for Inactive)
REMARK    1  A    between atoms: C_1  and  C_2
REMARK    2  A    between atoms: C_10  and  C_11
REMARK    3  A    between atoms: N_13  and  C_14
REMARK    4  A    between atoms: C_20  and  C_22
REMARK                            x       y       z     vdW  Elec       q    Type
REMARK                         _______ _______ _______ _____ _____    ______ ____
ROOT
ATOM      1  C   UNL     1      -0.261  -2.706   0.811  0.00  0.00    +0.066 C 
ATOM      2  C   UNL     1       0.771  -1.826   1.468  0.00  0.00    +0.047 A 
ATOM      3  C   UNL     1       0.905  -0.524   1.088  0.00  0.00    -0.005 A 
ATOM      4  C   UNL     1       1.863   0.272   1.712  0.00  0.00    +0.049 A 
ATOM      5  N   UNL     1       2.631  -0.244   2.655  0.00  0.00    -0.232 NA
ATOM      6  C   UNL     1       2.508  -1.516   3.030  0.00  0.00    +0.168 A 
ATOM      7  N   UNL     1       1.577  -2.326   2.445  0.00  0.00    -0.218 N 
ATOM      8  N   UNL     1       1.671  -3.593   3.032  0.00  0.00    -0.172 NA
ATOM      9  C   UNL     1       2.613  -3.584   3.938  0.00  0.00    +0.150 A 
ATOM     10  C   UNL     1       3.182  -2.299   3.986  0.00  0.00    +0.100 A 
ATOM     11  C   UNL     1       2.060   1.722   1.356  0.00  0.00    +0.056 C 
ATOM     12  C   UNL     1       1.428   2.030  -0.001  0.00  0.00    +0.006 C 
ATOM     13  C   UNL     1      -0.019   1.524   0.010  0.00  0.00    +0.005 C 
ATOM     14  C   UNL     1       0.002  -0.004   0.002  0.00  0.00    +0.039 C 
ENDROOT
BRANCH  10  15
ATOM     15  C   UNL     1       4.270  -1.859   4.864  0.00  0.00    +0.249 C 
ATOM     16  O   UNL     1       4.673  -0.712   4.806  0.00  0.00    -0.270 OA
ATOM     17  N   UNL     1       4.824  -2.724   5.737  0.00  0.00    -0.308 N 
ATOM     18  H   UNL     1       4.503  -3.638   5.783  0.00  0.00    +0.149 HD
BRANCH  17  19
ATOM     19  C   UNL     1       5.911  -2.284   6.614  0.00  0.00    +0.076 C 
ATOM     20  C   UNL     1       5.323  -1.627   7.865  0.00  0.00    +0.022 C 
ATOM     21  C   UNL     1       4.446  -2.638   8.607  0.00  0.00    +0.002 C 
ATOM     22  C   UNL     1       5.293  -3.845   9.015  0.00  0.00    +0.000 C 
ATOM     23  C   UNL     1       5.881  -4.501   7.764  0.00  0.00    +0.005 C 
ATOM     24  C   UNL     1       6.758  -3.491   7.022  0.00  0.00    +0.006 C 
ATOM     25  C   UNL     1       7.346  -4.147   5.772  0.00  0.00    +0.009 C 
ENDBRANCH  17  19
ENDBRANCH  10  15
TORSDOF 2
