REMARK  Name = ZINC09426424
REMARK  5 active torsions:
REMARK  status: ('A' for Active; 'I' for Inactive)
REMARK    1  A    between atoms: C_1  and  O_2
REMARK    2  A    between atoms: O_2  and  C_3
REMARK    3  A    between atoms: C_6  and  C_12
REMARK    4  A    between atoms: C_8  and  N_9
REMARK    5  A    between atoms: N_14  and  C_15
REMARK                            x       y       z     vdW  Elec       q    Type
REMARK                         _______ _______ _______ _____ _____    ______ ____
ROOT
ATOM      1  C   UNL     1       0.058  -0.002   0.008  0.00  0.00    +0.248 C 
ATOM      2  O   UNL     1       1.139  -0.551  -0.093  0.00  0.00    -0.270 OA
ATOM      3  N   UNL     1      -0.016   1.344   0.009  0.00  0.00    -0.281 N 
ATOM      4  H   UNL     1      -0.882   1.781   0.018  0.00  0.00    +0.155 HD
ENDROOT
BRANCH   3   5
ATOM      5  C   UNL     1       1.155   2.109  -0.007  0.00  0.00    +0.035 A 
ATOM      6  C   UNL     1       1.207   3.316   0.678  0.00  0.00    +0.024 A 
ATOM      7  C   UNL     1       2.366   4.067   0.665  0.00  0.00    +0.018 A 
ATOM      8  C   UNL     1       3.471   3.624  -0.041  0.00  0.00    +0.036 A 
ATOM      9  C   UNL     1       3.420   2.425  -0.730  0.00  0.00    +0.057 A 
ATOM     10  C   UNL     1       2.264   1.666  -0.715  0.00  0.00    +0.044 A 
ATOM     11 CL   UNL     1       4.809   1.873  -1.614  0.00  0.00    -0.082 Cl
ATOM     12 BR   UNL     1       5.053   4.660  -0.062  0.00  0.00    -0.049 Br
ENDBRANCH   3   5
BRANCH   1  16
ATOM     13  C   UNL     1      -3.480  -2.325   0.358  0.00  0.00    +0.150 A 
ATOM     14  C   UNL     1      -3.558  -0.937   0.359  0.00  0.00    +0.049 A 
ATOM     15  C   UNL     1      -2.413  -0.180   0.251  0.00  0.00    +0.017 A 
ATOM     16  C   UNL     1      -1.171  -0.809   0.129  0.00  0.00    +0.039 A 
ATOM     17  C   UNL     1      -1.096  -2.204   0.128  0.00  0.00    +0.049 A 
ATOM     18  C   UNL     1      -2.246  -2.954   0.242  0.00  0.00    +0.168 A 
BRANCH  18  19
ATOM     19  N   UNL     1      -2.168  -4.432   0.240  0.00  0.00    +0.060 N 
ATOM     20  O   UNL     1      -1.087  -4.985   0.139  0.00  0.00    -0.126 OA
ATOM     21  O   UNL     1      -3.184  -5.096   0.341  0.00  0.00    -0.126 OA
ENDBRANCH  18  19
BRANCH  13  23
ATOM     22  C   UNL     1      -5.844  -2.356   0.585  0.00  0.00    +0.277 C 
ATOM     23  O   UNL     1      -4.610  -3.067   0.469  0.00  0.00    -0.493 OA
ENDBRANCH  13  23
ENDBRANCH   1  16
TORSDOF 4
