REMARK  Name = ZINC23541464
REMARK  4 active torsions:
REMARK  status: ('A' for Active; 'I' for Inactive)
REMARK    1  A    between atoms: C_16  and  C_19
REMARK    2  A    between atoms: C_19  and  N_20
REMARK    3  A    between atoms: C_22  and  C_25
REMARK    4  A    between atoms: C_25  and  O_26
REMARK                            x       y       z     vdW  Elec       q    Type
REMARK                         _______ _______ _______ _____ _____    ______ ____
ROOT
ATOM      1  C   UNL     1       0.002  -0.004   0.002  0.00  0.00    +0.022 A 
ATOM      2  C   UNL     1      -0.016   1.357   0.009  0.00  0.00    +0.031 A 
ATOM      3  C   UNL     1       1.194   2.071   0.002  0.00  0.00    +0.089 A 
ATOM      4  C   UNL     1       2.419   1.360  -0.014  0.00  0.00    +0.093 A 
ATOM      5  C   UNL     1       2.400  -0.045  -0.021  0.00  0.00    +0.050 A 
ATOM      6  C   UNL     1       1.208  -0.704  -0.013  0.00  0.00    +0.043 A 
ATOM      7 CL   UNL     1       1.189  -2.440  -0.022  0.00  0.00    -0.083 Cl
ATOM      8  N   UNL     1       3.576   2.033  -0.022  0.00  0.00    -0.229 NA
ATOM      9  C   UNL     1       3.564   3.353  -0.015  0.00  0.00    +0.140 A 
ATOM     10  C   UNL     1       2.345   4.054   0.001  0.00  0.00    +0.155 A 
ATOM     11  N   UNL     1       1.203   3.410   0.008  0.00  0.00    -0.250 NA
ATOM     12  N   UNL     1       4.761   4.053  -0.023  0.00  0.00    -0.314 N 
ATOM     13  C   UNL     1       4.815   4.990  -1.153  0.00  0.00    +0.106 C 
ATOM     14  C   UNL     1       6.080   5.845  -1.048  0.00  0.00    +0.019 C 
ATOM     15  C   UNL     1       7.309   4.932  -1.058  0.00  0.00    +0.008 C 
ATOM     16  C   UNL     1       7.204   3.934   0.099  0.00  0.00    +0.028 C 
ATOM     17  C   UNL     1       5.907   3.135  -0.040  0.00  0.00    +0.112 C 
ENDROOT
BRANCH  16  18
ATOM     18  C   UNL     1       8.399   2.980   0.060  0.00  0.00    +0.150 C 
BRANCH  18  19
ATOM     19  N   UNL     1       8.360   2.101   1.232  0.00  0.00    -0.251 N 
ATOM     20  C   UNL     1       8.370   0.748   1.209  0.00  0.00    +0.136 A 
ATOM     21  C   UNL     1       8.324   0.348   2.501  0.00  0.00    +0.108 A 
ATOM     22  N   UNL     1       8.281   1.461   3.241  0.00  0.00    -0.132 NA
ATOM     23  N   UNL     1       8.303   2.482   2.460  0.00  0.00    -0.065 NA
BRANCH  21  24
ATOM     24  C   UNL     1       8.318  -1.072   3.006  0.00  0.00    +0.214 C 
BRANCH  24  25
ATOM     25  O   UNL     1       8.374  -1.972   1.898  0.00  0.00    -0.389 OA
ATOM     26  H   UNL     1       8.379  -3.058   2.071  0.00  0.00    +0.210 HD
ENDBRANCH  24  25
ENDBRANCH  21  24
ENDBRANCH  18  19
ENDBRANCH  16  18
TORSDOF 4
