REMARK  Name = ZINC39446301
REMARK  10 active torsions:
REMARK  status: ('A' for Active; 'I' for Inactive)
REMARK    1  A    between atoms: C_1  and  C_2
REMARK    2  A    between atoms: C_2  and  C_3
REMARK    3  A    between atoms: C_8  and  C_12
REMARK    4  A    between atoms: C_12  and  C_14
REMARK    5  A    between atoms: C_14  and  O_15
REMARK    6  A    between atoms: O_15  and  C_16
REMARK    7  A    between atoms: C_16  and  C_18
REMARK    8  A    between atoms: C_23  and  C_24
REMARK    9  A    between atoms: N_26  and  C_27
REMARK   10  A    between atoms: N_26  and  C_28
REMARK                            x       y       z     vdW  Elec       q    Type
REMARK                         _______ _______ _______ _____ _____    ______ ____
ROOT
ATOM      1  C   UNL     1      -7.694  -2.144  -5.643  0.00  0.00    +0.340 C 
ATOM      2  O   UNL     1      -7.028  -1.802  -6.599  0.00  0.00    -0.245 OA
ENDROOT
BRANCH   1   3
ATOM      3  C   UNL     1      -9.044  -2.710  -5.847  0.00  0.00    +0.071 A 
ATOM      4  C   UNL     1      -9.765  -3.212  -4.766  0.00  0.00    +0.016 A 
ATOM      5  C   UNL     1     -11.027  -3.739  -4.962  0.00  0.00    +0.001 A 
ATOM      6  C   UNL     1     -11.583  -3.773  -6.229  0.00  0.00    +0.001 A 
ATOM      7  C   UNL     1     -10.883  -3.280  -7.314  0.00  0.00    +0.014 A 
ATOM      8  C   UNL     1      -9.613  -2.739  -7.135  0.00  0.00    +0.051 A 
BRANCH   8   9
ATOM      9  C   UNL     1      -8.862  -2.204  -8.291  0.00  0.00    +0.251 C 
ATOM     10  O   UNL     1      -8.454  -1.059  -8.274  0.00  0.00    -0.270 OA
ATOM     11  N   UNL     1      -8.631  -2.985  -9.365  0.00  0.00    -0.270 N 
ATOM     12  C   UNL     1      -9.233  -4.318  -9.443  0.00  0.00    +0.138 C 
BRANCH  11  13
ATOM     13  C   UNL     1      -7.816  -2.524 -10.403  0.00  0.00    +0.036 A 
ATOM     14  C   UNL     1      -7.105  -1.340 -10.256  0.00  0.00    +0.023 A 
ATOM     15  C   UNL     1      -6.300  -0.887 -11.283  0.00  0.00    +0.002 A 
ATOM     16  C   UNL     1      -6.203  -1.611 -12.457  0.00  0.00    +0.000 A 
ATOM     17  C   UNL     1      -6.910  -2.790 -12.607  0.00  0.00    +0.002 A 
ATOM     18  C   UNL     1      -7.711  -3.251 -11.582  0.00  0.00    +0.023 A 
ENDBRANCH  11  13
ENDBRANCH   8   9
ENDBRANCH   1   3
BRANCH   1  19
ATOM     19  O   UNL     1      -7.202  -2.009  -4.396  0.00  0.00    -0.453 OA
BRANCH  19  20
ATOM     20  C   UNL     1      -5.890  -1.455  -4.273  0.00  0.00    +0.311 C 
BRANCH  20  21
ATOM     21  C   UNL     1      -5.512  -1.381  -2.816  0.00  0.00    +0.199 C 
ATOM     22  O   UNL     1      -6.289  -1.764  -1.966  0.00  0.00    -0.289 OA
BRANCH  21  28
ATOM     23  C   UNL     1      -1.673   0.089   0.022  0.00  0.00    -0.024 A 
ATOM     24  C   UNL     1      -2.270  -0.236   1.188  0.00  0.00    +0.005 A 
ATOM     25  C   UNL     1      -3.560  -0.789   1.234  0.00  0.00    +0.001 A 
ATOM     26  C   UNL     1      -4.285  -1.032   0.119  0.00  0.00    +0.010 A 
ATOM     27  C   UNL     1      -3.755  -0.728  -1.157  0.00  0.00    +0.007 A 
ATOM     28  C   UNL     1      -4.253  -0.865  -2.440  0.00  0.00    +0.027 C 
ATOM     29  C   UNL     1      -3.166  -0.346  -3.356  0.00  0.00    +0.152 C 
ATOM     30  N   UNL     1      -2.065   0.072  -2.482  0.00  0.00    -0.380 N 
ATOM     31  C   UNL     1      -2.396  -0.137  -1.240  0.00  0.00    +0.046 A 
ATOM     32  H   UNL     1      -1.223   0.449  -2.783  0.00  0.00    +0.160 HD
BRANCH  23  34
ATOM     33  C   UNL     1      -0.385   2.207  -0.030  0.00  0.00    +0.009 C 
ATOM     34  C   UNL     1      -0.287   0.681   0.012  0.00  0.00    +0.034 C 
ENDBRANCH  23  34
ENDBRANCH  21  28
ENDBRANCH  20  21
ENDBRANCH  19  20
ENDBRANCH   1  19
TORSDOF 8
