REMARK  Name = ZINC66087646
REMARK  6 active torsions:
REMARK  status: ('A' for Active; 'I' for Inactive)
REMARK    1  A    between atoms: C_1  and  C_2
REMARK    2  A    between atoms: C_3  and  C_15
REMARK    3  A    between atoms: C_6  and  C_13
REMARK    4  A    between atoms: C_7  and  C_11
REMARK    5  A    between atoms: C_15  and  C_17
REMARK    6  A    between atoms: C_15  and  O_22
REMARK                            x       y       z     vdW  Elec       q    Type
REMARK                         _______ _______ _______ _____ _____    ______ ____
ROOT
ATOM      1  C   UNL     1      -0.286   1.800  -0.134  0.00  0.00    +0.086 C 
ATOM      2  C   UNL     1      -0.058   0.329   0.102  0.00  0.00    +0.109 A 
ATOM      3  C   UNL     1      -1.028  -0.583   0.258  0.00  0.00    +0.034 A 
ATOM      4  C   UNL     1      -0.352  -1.869   0.460  0.00  0.00    +0.028 A 
ATOM      5  C   UNL     1      -0.795  -3.173   0.675  0.00  0.00    +0.032 A 
ATOM      6  C   UNL     1       0.129  -4.197   0.832  0.00  0.00    +0.070 A 
ATOM      7  C   UNL     1       1.513  -3.909   0.772  0.00  0.00    +0.073 A 
ATOM      8  C   UNL     1       1.948  -2.607   0.557  0.00  0.00    +0.067 A 
ATOM      9  C   UNL     1       1.025  -1.583   0.400  0.00  0.00    +0.137 A 
ATOM     10  O   UNL     1       1.148  -0.258   0.179  0.00  0.00    -0.460 OA
ENDROOT
BRANCH   7  11
ATOM     11  C   UNL     1       2.469  -4.964   0.934  0.00  0.00    +0.101 C 
ATOM     12  N   UNL     1       3.226  -5.800   1.063  0.00  0.00    -0.191 NA
ENDBRANCH   7  11
BRANCH   6  13
ATOM     13  C   UNL     1      -0.316  -5.539   1.054  0.00  0.00    +0.100 C 
ATOM     14  N   UNL     1      -0.670  -6.604   1.230  0.00  0.00    -0.191 NA
ENDBRANCH   6  13
BRANCH   3  15
ATOM     15  C   UNL     1      -2.515  -0.336   0.233  0.00  0.00    +0.185 C 
BRANCH  15  16
ATOM     16  C   UNL     1      -3.086  -0.841  -1.067  0.00  0.00    +0.023 A 
ATOM     17  C   UNL     1      -3.324  -0.162  -2.215  0.00  0.00    +0.014 A 
ATOM     18  C   UNL     1      -3.859  -0.839  -3.296  0.00  0.00    +0.008 A 
ATOM     19  C   UNL     1      -4.129  -2.162  -3.174  0.00  0.00    +0.045 A 
ATOM     20  S   UNL     1      -3.616  -2.491  -1.496  0.00  0.00    -0.099 S 
ENDBRANCH  15  16
BRANCH  15  21
ATOM     21  O   UNL     1      -3.130  -1.025   1.323  0.00  0.00    -0.382 OA
ATOM     22  H   UNL     1      -3.075  -1.988   1.262  0.00  0.00    +0.211 HD
ENDBRANCH  15  21
ENDBRANCH   3  15
TORSDOF 5
