REMARK  Name = ZINC15987299
REMARK  4 active torsions:
REMARK  status: ('A' for Active; 'I' for Inactive)
REMARK    1  A    between atoms: C_1  and  O_2
REMARK    2  A    between atoms: O_2  and  C_3
REMARK    3  A    between atoms: C_3  and  C_5
REMARK    4  A    between atoms: N_24  and  C_27
REMARK                            x       y       z     vdW  Elec       q    Type
REMARK                         _______ _______ _______ _____ _____    ______ ____
ROOT
ATOM      1  C   UNL     1      -1.548  -2.231   0.095  0.00  0.00    +0.195 C 
ATOM      2  C   UNL     1      -1.143  -2.592  -1.341  0.00  0.00    +0.121 C 
ATOM      3  C   UNL     1      -1.913  -3.916  -1.636  0.00  0.00    +0.115 C 
ATOM      4  C   UNL     1      -3.119  -3.852  -0.692  0.00  0.00    +0.117 C 
ATOM      5  N   UNL     1      -2.800  -2.917   0.392  0.00  0.00    -0.314 N 
ATOM      6  C   UNL     1      -3.576  -2.818   1.539  0.00  0.00    +0.072 C 
ATOM      7  C   UNL     1      -4.159  -3.956   1.967  0.00  0.00    +0.023 C 
ATOM      8  C   UNL     1      -3.928  -5.212   1.225  0.00  0.00    -0.019 A 
ATOM      9  C   UNL     1      -3.420  -5.201  -0.094  0.00  0.00    -0.019 A 
ATOM     10  C   UNL     1      -3.229  -6.358  -0.812  0.00  0.00    +0.006 A 
ATOM     11  C   UNL     1      -3.508  -7.585  -0.234  0.00  0.00    +0.000 A 
ATOM     12  C   UNL     1      -3.979  -7.653   1.065  0.00  0.00    +0.001 A 
ATOM     13  C   UNL     1      -4.203  -6.443   1.822  0.00  0.00    +0.008 A 
ATOM     14  C   UNL     1      -2.380  -3.677  -3.064  0.00  0.00    +0.232 C 
ATOM     15  O   UNL     1      -2.718  -4.534  -3.853  0.00  0.00    -0.274 OA
ATOM     16  N   UNL     1      -2.356  -2.357  -3.300  0.00  0.00    -0.210 N 
ATOM     17  C   UNL     1      -1.761  -1.624  -2.326  0.00  0.00    +0.232 C 
ATOM     18  O   UNL     1      -1.734  -0.414  -2.246  0.00  0.00    -0.274 OA
ENDROOT
BRANCH  16  19
ATOM     19  C   UNL     1      -2.889  -1.780  -4.463  0.00  0.00    +0.044 A 
ATOM     20  C   UNL     1      -2.710  -0.427  -4.712  0.00  0.00    +0.025 A 
ATOM     21  C   UNL     1      -3.236   0.139  -5.858  0.00  0.00    +0.022 A 
ATOM     22  C   UNL     1      -3.941  -0.643  -6.756  0.00  0.00    +0.041 A 
ATOM     23  C   UNL     1      -4.121  -1.993  -6.508  0.00  0.00    +0.022 A 
ATOM     24  C   UNL     1      -3.592  -2.564  -5.368  0.00  0.00    +0.025 A 
ATOM     25 CL   UNL     1      -4.601   0.070  -8.194  0.00  0.00    -0.084 Cl
ENDBRANCH  16  19
BRANCH   1  26
ATOM     26  C   UNL     1      -1.742  -0.741   0.210  0.00  0.00    +0.328 C 
ATOM     27  O   UNL     1      -2.856  -0.273   0.178  0.00  0.00    -0.249 OA
BRANCH  26  29
ATOM     28  C   UNL     1      -0.937   1.468   0.453  0.00  0.00    +0.280 C 
ATOM     29  O   UNL     1      -0.679   0.066   0.349  0.00  0.00    -0.467 OA
ENDBRANCH  26  29
ENDBRANCH   1  26
TORSDOF 3
