REMARK  Name = ZINC63204337
REMARK  8 active torsions:
REMARK  status: ('A' for Active; 'I' for Inactive)
REMARK    1  A    between atoms: C_1  and  C_2
REMARK    2  A    between atoms: C_2  and  C_3
REMARK    3  A    between atoms: C_2  and  C_4
REMARK    4  A    between atoms: C_8  and  N_10
REMARK    5  A    between atoms: N_10  and  C_11
REMARK    6  A    between atoms: C_12  and  C_14
REMARK    7  A    between atoms: N_16  and  C_17
REMARK    8  A    between atoms: C_17  and  C_18
REMARK                            x       y       z     vdW  Elec       q    Type
REMARK                         _______ _______ _______ _____ _____    ______ ____
ROOT
ATOM      1  C   UNL     1      -5.457  -4.044  -2.707  0.00  0.00    +0.300 C 
ATOM      2  O   UNL     1      -4.900  -4.347  -3.741  0.00  0.00    -0.265 OA
ATOM      3  N   UNL     1      -6.656  -4.580  -2.405  0.00  0.00    -0.303 N 
ATOM      4  H   UNL     1      -7.102  -4.337  -1.578  0.00  0.00    +0.149 HD
ENDROOT
BRANCH   1   7
ATOM      5  N   UNL     1      -3.579  -2.604  -2.029  0.00  0.00    -0.267 N 
ATOM      6  C   UNL     1      -2.920  -2.936  -3.294  0.00  0.00    +0.139 C 
ATOM      7  C   UNL     1      -4.815  -3.075  -1.768  0.00  0.00    +0.305 C 
ATOM      8  O   UNL     1      -5.405  -2.714  -0.771  0.00  0.00    -0.265 OA
BRANCH   5  13
ATOM      9  C   UNL     1      -0.959  -0.639  -0.360  0.00  0.00    -0.043 A 
ATOM     10  C   UNL     1      -1.637  -0.202   0.764  0.00  0.00    +0.004 A 
ATOM     11  C   UNL     1      -2.957  -0.560   0.963  0.00  0.00    +0.002 A 
ATOM     12  C   UNL     1      -3.605  -1.357   0.038  0.00  0.00    +0.023 A 
ATOM     13  C   UNL     1      -2.928  -1.798  -1.092  0.00  0.00    +0.037 A 
ATOM     14  C   UNL     1      -1.602  -1.431  -1.290  0.00  0.00    +0.027 A 
BRANCH   9  16
ATOM     15  C   UNL     1       0.588   1.278  -0.638  0.00  0.00    +0.012 C 
ATOM     16  C   UNL     1       0.480  -0.246  -0.572  0.00  0.00    +0.013 C 
ATOM     17  C   UNL     1       1.328  -0.767   0.591  0.00  0.00    +0.012 C 
ENDBRANCH   9  16
ENDBRANCH   5  13
ENDBRANCH   1   7
BRANCH   3  18
ATOM     18  C   UNL     1      -7.287  -5.530  -3.325  0.00  0.00    +0.141 C 
BRANCH  18  19
ATOM     19  C   UNL     1      -8.609  -5.976  -2.758  0.00  0.00    -0.014 A 
ATOM     20  C   UNL     1      -8.677  -7.088  -1.928  0.00  0.00    +0.010 A 
ATOM     21  C   UNL     1      -9.910  -7.465  -1.428  0.00  0.00    +0.042 A 
ATOM     22  C   UNL     1     -11.035  -6.721  -1.772  0.00  0.00    +0.099 A 
ATOM     23  N   UNL     1     -10.929  -5.668  -2.566  0.00  0.00    -0.349 N 
ATOM     24  C   UNL     1      -9.765  -5.282  -3.053  0.00  0.00    +0.089 A 
ATOM     25  N   UNL     1     -12.281  -7.089  -1.277  0.00  0.00    -0.317 N 
ATOM     26  C   UNL     1     -13.498  -6.401  -1.728  0.00  0.00    +0.106 C 
ATOM     27  C   UNL     1     -14.497  -7.446  -2.234  0.00  0.00    +0.019 C 
ATOM     28  C   UNL     1     -14.734  -8.491  -1.141  0.00  0.00    +0.003 C 
ATOM     29  C   UNL     1     -13.417  -9.199  -0.816  0.00  0.00    +0.019 C 
ATOM     30  C   UNL     1     -12.407  -8.177  -0.298  0.00  0.00    +0.106 C 
ATOM     31  H   UNL     1     -11.727  -5.164  -2.793  0.00  0.00    +0.167 HD
ENDBRANCH  18  19
ENDBRANCH   3  18
TORSDOF 5
