REMARK  Name = ZINC48769076
REMARK  1 active torsions:
REMARK  status: ('A' for Active; 'I' for Inactive)
REMARK    1  A    between atoms: C_6  and  N_7
REMARK                            x       y       z     vdW  Elec       q    Type
REMARK                         _______ _______ _______ _____ _____    ______ ____
ROOT
ATOM      1  N   UNL     1      -1.200  -0.722   0.010  0.00  0.00    -0.269 N 
ATOM      2  C   UNL     1      -1.183  -2.065  -0.100  0.00  0.00    +0.307 C 
ATOM      3  O   UNL     1      -0.124  -2.661  -0.113  0.00  0.00    -0.252 OA
ATOM      4  N   UNL     1      -2.342  -2.748  -0.194  0.00  0.00    -0.282 N 
ATOM      5  C   UNL     1      -3.705  -2.176  -0.199  0.00  0.00    +0.113 C 
ATOM      6  C   UNL     1      -4.662  -3.399  -0.351  0.00  0.00    +0.008 C 
ATOM      7  C   UNL     1      -4.573  -4.121   1.031  0.00  0.00    +0.007 C 
ATOM      8  C   UNL     1      -3.124  -4.659   1.083  0.00  0.00    +0.023 C 
ATOM      9  C   UNL     1      -2.496  -4.226  -0.319  0.00  0.00    +0.078 C 
ATOM     10  C   UNL     1      -3.757  -4.325  -1.242  0.00  0.00    +0.027 C 
ATOM     11  H   UNL     1      -2.044  -0.253   0.098  0.00  0.00    +0.156 HD
ENDROOT
BRANCH   1  17
ATOM     12  C   UNL     1       1.072  -0.453  -0.767  0.00  0.00    +0.024 A 
ATOM     13  C   UNL     1       2.256   0.257  -0.779  0.00  0.00    +0.017 A 
ATOM     14  C   UNL     1       2.377   1.416  -0.033  0.00  0.00    +0.018 A 
ATOM     15  C   UNL     1       1.312   1.866   0.728  0.00  0.00    +0.017 A 
ATOM     16  C   UNL     1       0.126   1.159   0.744  0.00  0.00    +0.024 A 
ATOM     17  C   UNL     1       0.002  -0.004  -0.005  0.00  0.00    +0.035 A 
ATOM     18 BR   UNL     1       4.000   2.386  -0.052  0.00  0.00    -0.050 Br
ENDBRANCH   1  17
TORSDOF 1
