REMARK  Name = ZINC30543825
REMARK  10 active torsions:
REMARK  status: ('A' for Active; 'I' for Inactive)
REMARK    1  A    between atoms: C_1  and  C_2
REMARK    2  A    between atoms: C_5  and  S_9
REMARK    3  A    between atoms: C_6  and  C_8
REMARK    4  A    between atoms: S_9  and  N_12
REMARK    5  A    between atoms: N_15  and  C_18
REMARK    6  A    between atoms: C_18  and  C_20
REMARK    7  A    between atoms: C_18  and  C_21
REMARK    8  A    between atoms: N_23  and  C_24
REMARK    9  A    between atoms: C_24  and  C_26
REMARK   10  A    between atoms: C_24  and  C_27
REMARK                            x       y       z     vdW  Elec       q    Type
REMARK                         _______ _______ _______ _____ _____    ______ ____
ROOT
ATOM      1  N   UNL     1      -0.137  -0.215  -6.567  0.00  0.00    -0.180 NA
ATOM      2  C   UNL     1      -1.563   0.139  -6.644  0.00  0.00    +0.091 C 
ATOM      3  C   UNL     1      -1.781   1.451  -5.884  0.00  0.00    -0.060 C 
ATOM      4  N   UNL     1      -1.246   1.319  -4.522  0.00  0.00    +0.389 N 
ATOM      5  C   UNL     1       0.205   1.094  -4.539  0.00  0.00    -0.060 C 
ATOM      6  C   UNL     1       0.504  -0.234  -5.244  0.00  0.00    +0.091 C 
ATOM      7  H   UNL     1      -1.717   0.438  -4.062  0.00  0.00    -0.081 HD
ENDROOT
BRANCH   1   8
ATOM      8  S   UNL     1       0.722  -0.583  -7.934  0.00  0.00    +0.061 S 
ATOM      9  O   UNL     1       1.752  -1.478  -7.537  0.00  0.00    -0.153 OA
ATOM     10  O   UNL     1      -0.230  -0.912  -8.936  0.00  0.00    -0.153 OA
BRANCH   8  15
ATOM     11  C   UNL     1       3.448   4.486  -9.746  0.00  0.00    +0.044 C 
ATOM     12  C   UNL     1       2.767   3.220  -9.293  0.00  0.00    -0.050 A 
ATOM     13  C   UNL     1       3.519   2.166  -8.809  0.00  0.00    +0.005 A 
ATOM     14  C   UNL     1       2.895   1.005  -8.393  0.00  0.00    +0.029 A 
ATOM     15  C   UNL     1       1.518   0.898  -8.462  0.00  0.00    +0.108 A 
ATOM     16  C   UNL     1       0.767   1.950  -8.951  0.00  0.00    -0.024 A 
ATOM     17  C   UNL     1       1.391   3.113  -9.362  0.00  0.00    +0.008 A 
ATOM     18  C   UNL     1      -0.733   1.831  -9.032  0.00  0.00    +0.046 C 
ENDBRANCH   8  15
ENDBRANCH   1   8
BRANCH   4  19
ATOM     19  C   UNL     1      -1.588   2.493  -3.707  0.00  0.00    +0.016 C 
ATOM     20  C   UNL     1      -1.263   3.768  -4.487  0.00  0.00    -0.004 C 
BRANCH  19  21
ATOM     21  C   UNL     1      -3.058   2.466  -3.378  0.00  0.00    +0.200 C 
ATOM     22  O   UNL     1      -3.812   1.769  -4.025  0.00  0.00    -0.278 OA
ATOM     23  N   UNL     1      -3.536   3.215  -2.365  0.00  0.00    -0.310 N 
ATOM     24  H   UNL     1      -2.853   3.846  -1.778  0.00  0.00    +0.149 HD
BRANCH  23  25
ATOM     25  C   UNL     1      -4.966   3.189  -2.045  0.00  0.00    +0.100 C 
ATOM     26  C   UNL     1      -5.259   2.009  -1.116  0.00  0.00    +0.033 C 
BRANCH  25  27
ATOM     27  C   UNL     1      -5.351   4.475  -1.361  0.00  0.00    -0.027 A 
ATOM     28  C   UNL     1      -4.506   5.040  -0.424  0.00  0.00    +0.005 A 
ATOM     29  C   UNL     1      -4.857   6.222   0.200  0.00  0.00    +0.000 A 
ATOM     30  C   UNL     1      -6.059   6.834  -0.105  0.00  0.00    +0.000 A 
ATOM     31  C   UNL     1      -6.906   6.266  -1.038  0.00  0.00    +0.000 A 
ATOM     32  C   UNL     1      -6.553   5.087  -1.666  0.00  0.00    +0.005 A 
ENDBRANCH  25  27
ENDBRANCH  23  25
ENDBRANCH  19  21
ENDBRANCH   4  19
TORSDOF 6
