REMARK  Name = ZINC45496592
REMARK  5 active torsions:
REMARK  status: ('A' for Active; 'I' for Inactive)
REMARK    1  A    between atoms: C_1  and  C_2
REMARK    2  A    between atoms: C_6  and  C_10
REMARK    3  A    between atoms: C_11  and  C_13
REMARK    4  A    between atoms: C_14  and  C_15
REMARK    5  A    between atoms: C_19  and  N_21
REMARK                            x       y       z     vdW  Elec       q    Type
REMARK                         _______ _______ _______ _____ _____    ______ ____
ROOT
ATOM      1  C   UNL     1      -2.264  -2.317  -2.016  0.00  0.00    +0.068 C 
ATOM      2  C   UNL     1      -2.835  -3.156  -2.903  0.00  0.00    +0.013 C 
ENDROOT
BRANCH   1  11
ATOM      3  C   UNL     1       0.859   1.299  -0.315  0.00  0.00    +0.039 C 
ATOM      4  C   UNL     1       0.703  -0.217  -0.184  0.00  0.00    +0.133 C 
ATOM      5  C   UNL     1      -0.777  -0.593  -0.318  0.00  0.00    +0.139 C 
ATOM      6  N   UNL     1      -0.923  -2.023  -0.003  0.00  0.00    -0.291 N 
ATOM      7  C   UNL     1      -0.325  -2.521   1.246  0.00  0.00    +0.099 C 
ATOM      8  C   UNL     1       1.133  -2.051   1.304  0.00  0.00    +0.182 C 
ATOM      9  O   UNL     1       1.182  -0.638   1.096  0.00  0.00    -0.373 OA
ATOM     10  C   UNL     1      -0.376  -4.050   1.268  0.00  0.00    +0.030 C 
ATOM     11  C   UNL     1      -1.586  -2.853  -0.833  0.00  0.00    +0.240 C 
ATOM     12  O   UNL     1      -1.622  -4.046  -0.600  0.00  0.00    -0.271 OA
ENDBRANCH   1  11
BRANCH   2  13
ATOM     13  C   UNL     1      -3.516  -2.618  -4.092  0.00  0.00    -0.023 A 
ATOM     14  C   UNL     1      -3.567  -1.237  -4.308  0.00  0.00    +0.008 A 
ATOM     15  C   UNL     1      -4.206  -0.740  -5.424  0.00  0.00    +0.003 A 
ATOM     16  C   UNL     1      -4.796  -1.605  -6.329  0.00  0.00    +0.033 A 
ATOM     17  C   UNL     1      -4.751  -2.972  -6.122  0.00  0.00    +0.127 A 
ATOM     18  C   UNL     1      -4.110  -3.485  -5.014  0.00  0.00    +0.040 A 
BRANCH  17  19
ATOM     19  N   UNL     1      -5.386  -3.888  -7.096  0.00  0.00    +0.056 N 
ATOM     20  O   UNL     1      -5.945  -3.441  -8.071  0.00  0.00    -0.126 OA
ATOM     21  O   UNL     1      -5.348  -5.083  -6.917  0.00  0.00    -0.126 OA
ENDBRANCH  17  19
ENDBRANCH   2  13
TORSDOF 3
