REMARK  Name = ZINC44713919
REMARK  8 active torsions:
REMARK  status: ('A' for Active; 'I' for Inactive)
REMARK    1  A    between atoms: C_1  and  C_2
REMARK    2  A    between atoms: C_5  and  C_10
REMARK    3  A    between atoms: C_14  and  C_23
REMARK    4  A    between atoms: N_25  and  C_26
REMARK    5  A    between atoms: C_26  and  C_28
REMARK    6  A    between atoms: C_26  and  C_29
REMARK    7  A    between atoms: C_30  and  C_36
REMARK    8  A    between atoms: C_34  and  C_35
REMARK                            x       y       z     vdW  Elec       q    Type
REMARK                         _______ _______ _______ _____ _____    ______ ____
ROOT
ATOM      1  C   UNL     1      -0.014  -4.865   0.087  0.00  0.00    +0.250 C 
ATOM      2  O   UNL     1       0.192  -5.534   1.081  0.00  0.00    -0.270 OA
ATOM      3  N   UNL     1      -0.050  -5.453  -1.125  0.00  0.00    -0.296 N 
ATOM      4  C   UNL     1      -0.182  -4.800  -2.449  0.00  0.00    +0.121 C 
ATOM      5  C   UNL     1       0.767  -5.594  -3.373  0.00  0.00    +0.100 C 
ATOM      6  C   UNL     1       0.904  -6.972  -2.704  0.00  0.00    -0.004 C 
ATOM      7  C   UNL     1       0.041  -6.900  -1.436  0.00  0.00    +0.115 C 
ATOM      8  C   UNL     1       0.388  -8.065  -3.635  0.00  0.00    -0.010 C 
ATOM      9  C   UNL     1       0.588  -9.430  -2.972  0.00  0.00    -0.082 C 
ATOM     10  N   UNL     1       2.013  -9.635  -2.689  0.00  0.00    +0.379 N 
ATOM     11  C   UNL     1       2.480  -8.635  -1.721  0.00  0.00    -0.082 C 
ATOM     12  C   UNL     1       2.360  -7.236  -2.331  0.00  0.00    -0.010 C 
ATOM     13  H   UNL     1       2.150 -10.559  -2.308  0.00  0.00    -0.086 HD
ATOM     14  H   UNL     1       2.541  -9.545  -3.544  0.00  0.00    -0.086 HD
ENDROOT
BRANCH   1  19
ATOM     15  C   UNL     1      -0.846   0.812   0.552  0.00  0.00    +0.047 C 
ATOM     16  C   UNL     1      -0.626  -0.674   0.432  0.00  0.00    -0.012 A 
ATOM     17  C   UNL     1      -1.328  -1.400  -0.516  0.00  0.00    +0.007 A 
ATOM     18  C   UNL     1      -1.134  -2.760  -0.632  0.00  0.00    +0.016 A 
ATOM     19  C   UNL     1      -0.226  -3.409   0.207  0.00  0.00    +0.075 A 
ATOM     20  C   UNL     1       0.481  -2.673   1.163  0.00  0.00    +0.171 A 
ATOM     21  C   UNL     1       0.280  -1.306   1.265  0.00  0.00    +0.162 A 
ATOM     22  F   UNL     1       0.965  -0.590   2.183  0.00  0.00    -0.202 F 
ATOM     23  F   UNL     1       1.361  -3.292   1.980  0.00  0.00    -0.202 F 
ENDBRANCH   1  19
BRANCH   5  24
ATOM     24  C   UNL     1       0.166  -5.732  -4.748  0.00  0.00    +0.219 C 
ATOM     25  O   UNL     1      -1.038  -5.714  -4.888  0.00  0.00    -0.275 OA
ATOM     26  N   UNL     1       0.967  -5.877  -5.822  0.00  0.00    -0.308 N 
ATOM     27  H   UNL     1       1.931  -5.891  -5.710  0.00  0.00    +0.149 HD
BRANCH  26  28
ATOM     28  C   UNL     1       0.383  -6.012  -7.159  0.00  0.00    +0.104 C 
ATOM     29  C   UNL     1      -0.114  -7.445  -7.356  0.00  0.00    +0.033 C 
BRANCH  28  30
ATOM     30  C   UNL     1       1.428  -5.695  -8.198  0.00  0.00    +0.015 A 
ATOM     31  C   UNL     1       1.280  -4.849  -9.243  0.00  0.00    +0.038 A 
ATOM     32  N   UNL     1       2.439  -4.842  -9.935  0.00  0.00    -0.281 N 
ATOM     33  H   UNL     1       2.623  -4.325 -10.735  0.00  0.00    +0.189 HD
ATOM     34  N   UNL     1       3.328  -5.714  -9.293  0.00  0.00    -0.179 NA
ATOM     35  C   UNL     1       2.723  -6.219  -8.249  0.00  0.00    +0.065 A 
ATOM     36  C   UNL     1       3.318  -7.201  -7.272  0.00  0.00    +0.068 C 
ATOM     37  C   UNL     1       0.042  -4.055  -9.576  0.00  0.00    +0.065 C 
ENDBRANCH  28  30
ENDBRANCH  26  28
ENDBRANCH   5  24
TORSDOF 4
