REMARK  Name = ZINC02775032
REMARK  5 active torsions:
REMARK  status: ('A' for Active; 'I' for Inactive)
REMARK    1  A    between atoms: C_1  and  C_2
REMARK    2  A    between atoms: C_7  and  C_10
REMARK    3  A    between atoms: C_11  and  C_13
REMARK    4  A    between atoms: C_19  and  C_25
REMARK    5  A    between atoms: C_21  and  C_22
REMARK                            x       y       z     vdW  Elec       q    Type
REMARK                         _______ _______ _______ _____ _____    ______ ____
ROOT
ATOM      1  C   UNL     1      -2.272   4.398   0.030  0.00  0.00    +0.101 A 
ATOM      2  C   UNL     1      -1.653   5.386  -0.756  0.00  0.00    +0.150 A 
ATOM      3  N   UNL     1      -0.370   5.376  -0.509  0.00  0.00    -0.172 NA
ATOM      4  N   UNL     1      -0.085   4.391   0.443  0.00  0.00    -0.212 N 
ATOM      5  C   UNL     1      -1.257   3.779   0.784  0.00  0.00    +0.168 A 
ATOM      6  N   UNL     1      -1.276   2.788   1.677  0.00  0.00    -0.232 NA
ATOM      7  C   UNL     1      -0.168   2.384   2.259  0.00  0.00    +0.049 A 
ATOM      8  C   UNL     1       1.054   2.986   1.937  0.00  0.00    +0.052 A 
ATOM      9  C   UNL     1       1.081   3.991   1.024  0.00  0.00    +0.112 A 
ENDROOT
BRANCH   1  18
ATOM     10  C   UNL     1      -4.240   6.603   2.679  0.00  0.00    +0.039 C 
ATOM     11  C   UNL     1      -4.849   7.160   1.391  0.00  0.00    +0.133 C 
ATOM     12  C   UNL     1      -4.203   6.475   0.181  0.00  0.00    +0.139 C 
ATOM     13  N   UNL     1      -4.613   5.061   0.175  0.00  0.00    -0.292 N 
ATOM     14  C   UNL     1      -6.048   4.757   0.293  0.00  0.00    +0.139 C 
ATOM     15  C   UNL     1      -6.603   5.526   1.502  0.00  0.00    +0.133 C 
ATOM     16  O   UNL     1      -6.256   6.907   1.380  0.00  0.00    -0.371 OA
ATOM     17  C   UNL     1      -8.126   5.383   1.541  0.00  0.00    +0.039 C 
ATOM     18  C   UNL     1      -3.702   4.075   0.059  0.00  0.00    +0.252 C 
ATOM     19  O   UNL     1      -4.066   2.917  -0.021  0.00  0.00    -0.270 OA
ENDBRANCH   1  18
BRANCH   9  20
ATOM     20  C   UNL     1       2.384   4.655   0.659  0.00  0.00    +0.390 C 
ATOM     21  F   UNL     1       3.429   3.735   0.791  0.00  0.00    -0.202 F 
ATOM     22  F   UNL     1       2.322   5.105  -0.664  0.00  0.00    -0.202 F 
ENDBRANCH   9  20
BRANCH   7  23
ATOM     23  C   UNL     1      -0.213   1.267   3.269  0.00  0.00    +0.038 C 
ATOM     24  C   UNL     1       1.108   0.580   3.623  0.00  0.00    +0.010 C 
ATOM     25  C   UNL     1       0.069  -0.151   2.768  0.00  0.00    +0.010 C 
ENDBRANCH   7  23
TORSDOF 3
