REMARK  Name = ZINC02920764
REMARK  7 active torsions:
REMARK  status: ('A' for Active; 'I' for Inactive)
REMARK    1  A    between atoms: C_1  and  C_2
REMARK    2  A    between atoms: C_2  and  C_3
REMARK    3  A    between atoms: C_3  and  C_4
REMARK    4  A    between atoms: C_4  and  S_5
REMARK    5  A    between atoms: S_5  and  C_6
REMARK    6  A    between atoms: C_19  and  C_22
REMARK    7  A    between atoms: C_23  and  C_24
REMARK                            x       y       z     vdW  Elec       q    Type
REMARK                         _______ _______ _______ _____ _____    ______ ____
ROOT
ATOM      1  C   UNL     1       4.986   3.237  -2.051  0.00  0.00    +0.212 A 
ATOM      2  N   UNL     1       3.693   2.924  -2.016  0.00  0.00    -0.184 NA
ATOM      3  C   UNL     1       3.292   1.916  -1.260  0.00  0.00    +0.248 A 
ATOM      4  C   UNL     1       4.256   1.206  -0.508  0.00  0.00    +0.156 A 
ATOM      5  N   UNL     1       5.527   1.567  -0.590  0.00  0.00    -0.141 NA
ATOM      6  N   UNL     1       5.875   2.554  -1.341  0.00  0.00    -0.122 NA
ATOM      7  C   UNL     1       3.828   0.082   0.350  0.00  0.00    +0.028 A 
ATOM      8  C   UNL     1       4.497  -1.136   0.342  0.00  0.00    +0.012 A 
ATOM      9  C   UNL     1       4.085  -2.151   1.183  0.00  0.00    +0.001 A 
ATOM     10  C   UNL     1       3.010  -1.963   2.034  0.00  0.00    +0.002 A 
ATOM     11  C   UNL     1       2.331  -0.759   2.048  0.00  0.00    +0.024 A 
ATOM     12  C   UNL     1       2.728   0.265   1.208  0.00  0.00    +0.039 A 
ATOM     13  N   UNL     1       2.055   1.491   1.186  0.00  0.00    -0.306 N 
ATOM     14  C   UNL     1       1.282   1.847  -0.000  0.00  0.00    +0.287 C 
ATOM     15  O   UNL     1       1.989   1.553  -1.200  0.00  0.00    -0.449 OA
ATOM     16  H   UNL     1       2.101   2.094   1.944  0.00  0.00    +0.150 HD
ENDROOT
BRANCH  14  17
ATOM     17  C   UNL     1      -0.013   1.076   0.008  0.00  0.00    +0.041 C 
ATOM     18  C   UNL     1      -1.173   1.725   0.017  0.00  0.00    +0.047 C 
BRANCH  18  19
ATOM     19  C   UNL     1      -2.437   0.972   0.019  0.00  0.00    +0.128 A 
ATOM     20  C   UNL     1      -3.688   1.510   0.033  0.00  0.00    +0.049 A 
ATOM     21  C   UNL     1      -4.593   0.431   0.027  0.00  0.00    +0.042 A 
ATOM     22  C   UNL     1      -3.860  -0.700   0.018  0.00  0.00    +0.195 A 
ATOM     23  O   UNL     1      -2.558  -0.370   0.013  0.00  0.00    -0.464 OA
ENDBRANCH  18  19
ENDBRANCH  14  17
BRANCH   1  24
ATOM     24  S   UNL     1       5.525   4.579  -3.057  0.00  0.00    -0.084 S 
BRANCH  24  25
ATOM     25  C   UNL     1       7.302   4.532  -2.716  0.00  0.00    +0.077 C 
BRANCH  25  26
ATOM     26  C   UNL     1       8.002   5.642  -3.504  0.00  0.00    +0.011 C 
BRANCH  26  28
ATOM     27  C   UNL     1      10.204   6.711  -4.003  0.00  0.00    +0.004 C 
ATOM     28  C   UNL     1       9.504   5.602  -3.216  0.00  0.00    -0.003 C 
ENDBRANCH  26  28
ENDBRANCH  25  26
ENDBRANCH  24  25
ENDBRANCH   1  24
TORSDOF 6
