REMARK  Name = ZINC20647799
REMARK  7 active torsions:
REMARK  status: ('A' for Active; 'I' for Inactive)
REMARK    1  A    between atoms: C_1  and  C_2
REMARK    2  A    between atoms: C_2  and  C_30
REMARK    3  A    between atoms: C_6  and  N_22
REMARK    4  A    between atoms: C_8  and  S_12
REMARK    5  A    between atoms: C_9  and  C_10
REMARK    6  A    between atoms: S_12  and  C_13
REMARK    7  A    between atoms: C_13  and  C_14
REMARK                            x       y       z     vdW  Elec       q    Type
REMARK                         _______ _______ _______ _____ _____    ______ ____
ROOT
ATOM      1  C   UNL     1       2.975   4.119   1.127  0.00  0.00    +0.041 C 
ATOM      2  C   UNL     1       2.578   4.128  -0.350  0.00  0.00    +0.068 C 
ATOM      3  C   UNL     1       1.167   3.558  -0.508  0.00  0.00    +0.071 C 
ATOM      4  C   UNL     1       1.187   2.076  -0.245  0.00  0.00    -0.016 A 
ATOM      5  C   UNL     1       2.357   1.357  -0.258  0.00  0.00    +0.023 A 
ATOM      6  C   UNL     1       2.315  -0.019  -0.018  0.00  0.00    +0.128 A 
ATOM      7  N   UNL     1       1.169  -0.637   0.223  0.00  0.00    -0.224 NA
ATOM      8  C   UNL     1       0.018   0.016   0.248  0.00  0.00    +0.117 A 
ATOM      9  C   UNL     1      -0.017   1.403   0.014  0.00  0.00    +0.087 A 
ATOM     10  C   UNL     1       3.684   2.018  -0.521  0.00  0.00    +0.199 C 
ATOM     11  O   UNL     1       3.485   3.309  -1.097  0.00  0.00    -0.369 OA
ATOM     12  C   UNL     1       2.620   5.561  -0.885  0.00  0.00    +0.041 C 
ENDROOT
BRANCH   6  13
ATOM     13  N   UNL     1       3.493  -0.749  -0.031  0.00  0.00    -0.318 N 
ATOM     14  C   UNL     1       4.061  -0.857   1.319  0.00  0.00    +0.087 C 
ATOM     15  C   UNL     1       5.398  -1.599   1.250  0.00  0.00    -0.063 C 
ATOM     16  N   UNL     1       5.186  -2.930   0.663  0.00  0.00    +0.381 N 
ATOM     17  C   UNL     1       4.617  -2.822  -0.688  0.00  0.00    -0.063 C 
ATOM     18  C   UNL     1       3.280  -2.079  -0.618  0.00  0.00    +0.087 C 
ATOM     19  H   UNL     1       6.147  -3.461   0.601  0.00  0.00    -0.086 HD
ATOM     20  H   UNL     1       4.491  -3.503   1.295  0.00  0.00    -0.086 HD
ENDBRANCH   6  13
BRANCH   9  21
ATOM     21  C   UNL     1      -1.260   2.114   0.034  0.00  0.00    +0.102 C 
ATOM     22  N   UNL     1      -2.245   2.678   0.050  0.00  0.00    -0.191 NA
ENDBRANCH   9  21
BRANCH   8  23
ATOM     23  S   UNL     1      -1.478  -0.856   0.575  0.00  0.00    -0.095 S 
BRANCH  23  24
ATOM     24  C   UNL     1      -0.826  -2.531   0.785  0.00  0.00    +0.171 C 
BRANCH  24  25
ATOM     25  C   UNL     1      -1.961  -3.478   1.083  0.00  0.00    +0.226 C 
ATOM     26  O   UNL     1      -3.098  -3.061   1.146  0.00  0.00    -0.275 OA
ATOM     27  N   UNL     1      -1.711  -4.788   1.278  0.00  0.00    -0.296 N 
ATOM     28  C   UNL     1      -0.341  -5.318   1.200  0.00  0.00    +0.136 C 
ATOM     29  C   UNL     1      -0.076  -6.151   2.464  0.00  0.00    +0.179 C 
ATOM     30  O   UNL     1      -1.121  -7.114   2.618  0.00  0.00    -0.377 OA
ATOM     31  C   UNL     1      -2.419  -6.545   2.811  0.00  0.00    +0.179 C 
ATOM     32  C   UNL     1      -2.802  -5.731   1.570  0.00  0.00    +0.136 C 
ENDBRANCH  24  25
ENDBRANCH  23  24
ENDBRANCH   8  23
TORSDOF 5
