REMARK  Name = ZINC49387255
REMARK  8 active torsions:
REMARK  status: ('A' for Active; 'I' for Inactive)
REMARK    1  A    between atoms: C_1  and  C_2
REMARK    2  A    between atoms: C_13  and  C_15
REMARK    3  A    between atoms: C_15  and  N_16
REMARK    4  A    between atoms: N_19  and  C_22
REMARK    5  A    between atoms: C_25  and  O_30
REMARK    6  A    between atoms: C_26  and  O_28
REMARK    7  A    between atoms: O_28  and  C_29
REMARK    8  A    between atoms: O_30  and  C_31
REMARK                            x       y       z     vdW  Elec       q    Type
REMARK                         _______ _______ _______ _____ _____    ______ ____
ROOT
ATOM      1  N   UNL     1       1.554   0.822   4.500  0.00  0.00    -0.275 N 
ATOM      2  C   UNL     1       2.430   1.994   4.641  0.00  0.00    +0.129 C 
ATOM      3  C   UNL     1       1.905   2.697   5.908  0.00  0.00    +0.134 C 
ATOM      4  N   UNL     1       0.789   1.846   6.346  0.00  0.00    -0.254 N 
ATOM      5  C   UNL     1       0.658   0.819   5.496  0.00  0.00    +0.310 C 
ATOM      6  O   UNL     1      -0.194  -0.040   5.619  0.00  0.00    -0.252 OA
ENDROOT
BRANCH   4   7
ATOM      7  C   UNL     1      -0.014   2.075   7.471  0.00  0.00    +0.041 A 
ATOM      8  C   UNL     1      -1.111   1.260   7.720  0.00  0.00    +0.027 A 
ATOM      9  C   UNL     1      -1.903   1.485   8.829  0.00  0.00    +0.051 A 
ATOM     10  C   UNL     1      -1.606   2.524   9.696  0.00  0.00    +0.162 A 
ATOM     11  C   UNL     1      -0.508   3.343   9.450  0.00  0.00    +0.163 A 
ATOM     12  C   UNL     1       0.290   3.114   8.341  0.00  0.00    +0.073 A 
BRANCH  11  13
ATOM     13  O   UNL     1      -0.215   4.363  10.300  0.00  0.00    -0.491 OA
ATOM     14  C   UNL     1       0.926   5.162   9.985  0.00  0.00    +0.277 C 
ENDBRANCH  11  13
BRANCH  10  15
ATOM     15  O   UNL     1      -2.388   2.745  10.787  0.00  0.00    -0.491 OA
ATOM     16  C   UNL     1      -3.499   1.867  10.977  0.00  0.00    +0.277 C 
ENDBRANCH  10  15
ENDBRANCH   4   7
BRANCH   1  17
ATOM     17  C   UNL     1       1.643  -0.181   3.436  0.00  0.00    +0.205 C 
BRANCH  17  29
ATOM     18  C   UNL     1       1.818  -2.259   2.418  0.00  0.00    +0.028 C 
ATOM     19  C   UNL     1       1.578  -1.700   1.015  0.00  0.00    +0.079 C 
ATOM     20  C   UNL     1       0.710  -2.676   0.209  0.00  0.00    +0.027 C 
ATOM     21  C   UNL     1       0.541  -2.132  -1.209  0.00  0.00    +0.039 C 
ATOM     22  C   UNL     1       0.070  -0.702  -1.174  0.00  0.00    -0.023 A 
ATOM     23  C   UNL     1      -0.547  -0.172  -2.295  0.00  0.00    +0.043 A 
ATOM     24  C   UNL     1      -0.989   1.138  -2.294  0.00  0.00    +0.124 A 
ATOM     25  C   UNL     1      -0.815   1.929  -1.171  0.00  0.00    +0.040 A 
ATOM     26  C   UNL     1      -0.202   1.406  -0.050  0.00  0.00    +0.026 A 
ATOM     27  C   UNL     1       0.241   0.088  -0.049  0.00  0.00    +0.040 A 
ATOM     28  N   UNL     1       0.855  -0.424   1.104  0.00  0.00    -0.267 N 
ATOM     29  C   UNL     1       0.783   0.242   2.273  0.00  0.00    +0.237 C 
ATOM     30  O   UNL     1       0.027   1.183   2.389  0.00  0.00    -0.274 OA
ATOM     31  F   UNL     1      -1.590   1.648  -3.392  0.00  0.00    -0.205 F 
ENDBRANCH  17  29
ENDBRANCH   1  17
TORSDOF 5
