REMARK  Name = ZINC09396958
REMARK  6 active torsions:
REMARK  status: ('A' for Active; 'I' for Inactive)
REMARK    1  A    between atoms: C_1  and  C_2
REMARK    2  A    between atoms: C_7  and  S_15
REMARK    3  A    between atoms: C_12  and  C_14
REMARK    4  A    between atoms: S_15  and  N_18
REMARK    5  A    between atoms: C_21  and  C_24
REMARK    6  A    between atoms: N_26  and  C_27
REMARK                            x       y       z     vdW  Elec       q    Type
REMARK                         _______ _______ _______ _____ _____    ______ ____
ROOT
ATOM      1  S   UNL     1       2.902   2.176  -0.342  0.00  0.00    +0.061 S 
ATOM      2  O   UNL     1       3.069   3.318   0.487  0.00  0.00    -0.153 OA
ATOM      3  O   UNL     1       3.606   0.962  -0.118  0.00  0.00    -0.153 OA
ENDROOT
BRANCH   1   9
ATOM      4  C   UNL     1      -4.260   2.238   1.486  0.00  0.00    +0.029 C 
ATOM      5  C   UNL     1      -3.499   2.340   0.162  0.00  0.00    +0.083 C 
ATOM      6  C   UNL     1      -2.303   3.294   0.317  0.00  0.00    +0.059 C 
ATOM      7  C   UNL     1      -1.093   2.438   0.022  0.00  0.00    -0.022 A 
ATOM      8  C   UNL     1       0.253   2.750  -0.004  0.00  0.00    +0.034 A 
ATOM      9  C   UNL     1       1.186   1.776  -0.308  0.00  0.00    +0.106 A 
ATOM     10  C   UNL     1       0.769   0.487  -0.586  0.00  0.00    +0.030 A 
ATOM     11  C   UNL     1      -0.572   0.171  -0.561  0.00  0.00    +0.026 A 
ATOM     12  C   UNL     1      -1.521   1.150  -0.260  0.00  0.00    +0.040 A 
ATOM     13  N   UNL     1      -2.913   1.043  -0.188  0.00  0.00    -0.268 N 
ATOM     14  C   UNL     1      -3.614  -0.087  -0.408  0.00  0.00    +0.217 C 
ATOM     15  O   UNL     1      -3.035  -1.112  -0.702  0.00  0.00    -0.276 OA
ATOM     16  C   UNL     1      -5.116  -0.077  -0.290  0.00  0.00    +0.109 C 
ENDBRANCH   1   9
BRANCH   1  17
ATOM     17  N   UNL     1       3.262   2.655  -1.885  0.00  0.00    -0.177 NA
ATOM     18  C   UNL     1       3.704   1.677  -2.889  0.00  0.00    +0.110 C 
ATOM     19  C   UNL     1       5.023   2.149  -3.498  0.00  0.00    +0.030 C 
ATOM     20  C   UNL     1       4.853   3.571  -4.038  0.00  0.00    +0.077 C 
ATOM     21  C   UNL     1       4.483   4.514  -2.890  0.00  0.00    +0.030 C 
ATOM     22  C   UNL     1       3.153   4.067  -2.276  0.00  0.00    +0.110 C 
BRANCH  20  23
ATOM     23  C   UNL     1       6.144   4.027  -4.666  0.00  0.00    +0.216 C 
ATOM     24  O   UNL     1       6.713   5.009  -4.238  0.00  0.00    -0.276 OA
ATOM     25  N   UNL     1       6.667   3.344  -5.703  0.00  0.00    -0.312 N 
ATOM     26  H   UNL     1       6.212   2.559  -6.045  0.00  0.00    +0.149 HD
BRANCH  25  27
ATOM     27  C   UNL     1       7.923   3.788  -6.314  0.00  0.00    +0.073 C 
ATOM     28  C   UNL     1       7.636   4.835  -7.409  0.00  0.00    +0.022 C 
ATOM     29  C   UNL     1       8.674   4.520  -8.516  0.00  0.00    +0.002 C 
ATOM     30  C   UNL     1       8.730   2.972  -8.502  0.00  0.00    +0.002 C 
ATOM     31  C   UNL     1       8.618   2.603  -7.008  0.00  0.00    +0.022 C 
ENDBRANCH  25  27
ENDBRANCH  20  23
ENDBRANCH   1  17
TORSDOF 4
