REMARK  Name = ZINC66415901
REMARK  7 active torsions:
REMARK  status: ('A' for Active; 'I' for Inactive)
REMARK    1  A    between atoms: C_1  and  C_2
REMARK    2  A    between atoms: C_2  and  N_3
REMARK    3  A    between atoms: N_3  and  C_4
REMARK    4  A    between atoms: C_10  and  C_12
REMARK    5  A    between atoms: C_13  and  C_15
REMARK    6  A    between atoms: C_16  and  C_26
REMARK    7  A    between atoms: N_22  and  C_25
REMARK                            x       y       z     vdW  Elec       q    Type
REMARK                         _______ _______ _______ _____ _____    ______ ____
ROOT
ATOM      1  N   UNL     1      -1.372  -0.511   0.012  0.00  0.00    -0.294 N 
ATOM      2  C   UNL     1      -1.993  -0.751   1.184  0.00  0.00    +0.251 C 
ATOM      3  O   UNL     1      -3.135  -1.172   1.193  0.00  0.00    -0.270 OA
ENDROOT
BRANCH   2   4
ATOM      4  C   UNL     1      -1.291  -0.503   2.454  0.00  0.00    +0.092 A 
ATOM      5  C   UNL     1      -1.278   0.651   3.176  0.00  0.00    +0.117 A 
ATOM      6  O   UNL     1      -0.527   0.486   4.273  0.00  0.00    -0.441 OA
ATOM      7  C   UNL     1      -0.015  -0.754   4.335  0.00  0.00    +0.235 A 
ATOM      8  C   UNL     1      -0.460  -1.452   3.212  0.00  0.00    +0.117 A 
ATOM      9  C   UNL     1      -0.067  -2.796   3.036  0.00  0.00    +0.265 A 
ATOM     10  O   UNL     1      -0.434  -3.436   2.065  0.00  0.00    -0.267 OA
ATOM     11  N   UNL     1       0.731  -3.354   3.976  0.00  0.00    -0.302 N 
ATOM     12  C   UNL     1       1.129  -2.626   5.048  0.00  0.00    +0.205 A 
ATOM     13  N   UNL     1       0.778  -1.383   5.217  0.00  0.00    -0.202 NA
ATOM     14  C   UNL     1       1.165  -4.747   3.835  0.00  0.00    +0.153 C 
ATOM     15  C   UNL     1      -1.997   1.921   2.799  0.00  0.00    +0.087 C 
ENDBRANCH   2   4
BRANCH   1  16
ATOM     16  C   UNL     1      -2.072  -0.758  -1.251  0.00  0.00    +0.079 C 
ATOM     17  C   UNL     1      -2.465  -2.234  -1.336  0.00  0.00    +0.023 C 
ATOM     18  C   UNL     1      -3.196  -2.492  -2.656  0.00  0.00    +0.002 C 
ATOM     19  C   UNL     1      -4.454  -1.624  -2.720  0.00  0.00    +0.000 C 
ATOM     20  C   UNL     1      -4.060  -0.148  -2.635  0.00  0.00    +0.005 C 
ATOM     21  C   UNL     1      -3.330   0.110  -1.315  0.00  0.00    +0.006 C 
ATOM     22  C   UNL     1      -2.936   1.586  -1.230  0.00  0.00    +0.009 C 
ENDBRANCH   1  16
BRANCH   1  24
ATOM     23  C   UNL     1      -0.019   1.526   0.010  0.00  0.00    +0.024 C 
ATOM     24  C   UNL     1       0.002  -0.004   0.002  0.00  0.00    +0.105 C 
ENDBRANCH   1  24
TORSDOF 3
