REMARK  Name = ZINC06828295
REMARK  3 active torsions:
REMARK  status: ('A' for Active; 'I' for Inactive)
REMARK    1  A    between atoms: C_1  and  N_2
REMARK    2  A    between atoms: C_5  and  C_7
REMARK    3  A    between atoms: C_12  and  C_15
REMARK                            x       y       z     vdW  Elec       q    Type
REMARK                         _______ _______ _______ _____ _____    ______ ____
ROOT
ATOM      1  C   UNL     1       1.683  -1.850  -0.024  0.00  0.00    +0.270 C 
ATOM      2  O   UNL     1       2.869  -2.119  -0.037  0.00  0.00    -0.268 OA
ATOM      3  N   UNL     1       0.768  -2.839  -0.021  0.00  0.00    -0.259 N 
ATOM      4  C   UNL     1       1.180  -4.166  -0.032  0.00  0.00    +0.165 A 
ATOM      5  N   UNL     1       0.445  -5.261  -0.026  0.00  0.00    -0.229 NA
ATOM      6  C   UNL     1       1.001  -6.457  -0.043  0.00  0.00    +0.057 A 
ATOM      7  C   UNL     1       2.354  -6.540  -0.056  0.00  0.00    +0.072 A 
ATOM      8  S   UNL     1       2.793  -4.808  -0.051  0.00  0.00    -0.060 S 
ATOM      9  H   UNL     1      -0.178  -2.625  -0.010  0.00  0.00    +0.157 HD
ENDROOT
BRANCH   6  10
ATOM     10  C   UNL     1       0.152  -7.702  -0.041  0.00  0.00    +0.014 C 
ATOM     11  C   UNL     1       0.718  -8.704   0.968  0.00  0.00    +0.016 C 
ATOM     12  C   UNL     1      -0.144  -9.968   0.969  0.00  0.00    -0.010 C 
ATOM     13  C   UNL     1      -1.579  -9.606   1.358  0.00  0.00    +0.007 C 
ATOM     14  C   UNL     1      -2.144  -8.605   0.349  0.00  0.00    -0.010 C 
ATOM     15  C   UNL     1      -1.282  -7.341   0.348  0.00  0.00    +0.016 C 
ATOM     16  C   UNL     1      -2.136  -9.229  -1.048  0.00  0.00    +0.007 C 
ATOM     17  C   UNL     1      -0.701  -9.591  -1.437  0.00  0.00    -0.010 C 
ATOM     18  C   UNL     1      -0.136 -10.592  -0.427  0.00  0.00    +0.007 C 
ATOM     19  C   UNL     1       0.160  -8.326  -1.438  0.00  0.00    +0.016 C 
ENDBRANCH   6  10
BRANCH   1  24
ATOM     20  C   UNL     1      -1.228   2.102   0.019  0.00  0.00    +0.172 C 
ATOM     21  N   UNL     1      -0.015   1.280   0.009  0.00  0.00    -0.274 N 
ATOM     22  C   UNL     1       1.245   1.765  -0.000  0.00  0.00    +0.109 A 
ATOM     23  C   UNL     1       2.083   0.702  -0.014  0.00  0.00    +0.054 A 
ATOM     24  C   UNL     1       1.246  -0.440  -0.012  0.00  0.00    +0.147 A 
ATOM     25  N   UNL     1       0.002  -0.004   0.002  0.00  0.00    -0.167 NA
ENDBRANCH   1  24
TORSDOF 2
