REMARK  Name = ZINC21257988
REMARK  7 active torsions:
REMARK  status: ('A' for Active; 'I' for Inactive)
REMARK    1  A    between atoms: C_1  and  C_2
REMARK    2  A    between atoms: C_2  and  N_3
REMARK    3  A    between atoms: N_3  and  C_4
REMARK    4  A    between atoms: C_4  and  C_5
REMARK    5  A    between atoms: C_11  and  C_13
REMARK    6  A    between atoms: C_13  and  S_14
REMARK    7  A    between atoms: S_14  and  C_15
REMARK                            x       y       z     vdW  Elec       q    Type
REMARK                         _______ _______ _______ _____ _____    ______ ____
ROOT
ATOM      1  C   UNL     1       4.547  -1.862  -3.491  0.00  0.00    +0.173 C 
ENDROOT
BRANCH   1   3
ATOM      2  N   UNL     1       4.242  -0.538  -1.424  0.00  0.00    -0.296 N 
ATOM      3  C   UNL     1       4.084  -1.714  -2.064  0.00  0.00    +0.226 C 
ATOM      4  O   UNL     1       3.570  -2.652  -1.493  0.00  0.00    -0.275 OA
BRANCH   2   6
ATOM      5  C   UNL     1       6.376   0.562  -1.888  0.00  0.00    +0.024 C 
ATOM      6  C   UNL     1       4.863   0.595  -2.114  0.00  0.00    +0.105 C 
ENDBRANCH   2   6
BRANCH   2   7
ATOM      7  C   UNL     1       3.791  -0.394  -0.037  0.00  0.00    +0.150 C 
BRANCH   7   8
ATOM      8  C   UNL     1       2.360   0.076  -0.020  0.00  0.00    +0.008 A 
ATOM      9  C   UNL     1       1.220  -0.657  -0.013  0.00  0.00    +0.014 A 
ATOM     10  C   UNL     1       0.002  -0.004   0.002  0.00  0.00    +0.023 A 
ATOM     11  C   UNL     1      -0.016   1.352   0.009  0.00  0.00    +0.055 A 
ATOM     12  S   UNL     1       1.725   1.745  -0.005  0.00  0.00    -0.085 S 
ATOM     13 BR   UNL     1      -1.501   2.523   0.023  0.00  0.00    -0.043 Br
ENDBRANCH   7   8
ENDBRANCH   2   7
ENDBRANCH   1   3
BRANCH   1  14
ATOM     14  S   UNL     1       4.199  -3.546  -4.067  0.00  0.00    -0.076 S 
BRANCH  14  15
ATOM     15  C   UNL     1       4.791  -3.560  -5.727  0.00  0.00    +0.197 A 
ATOM     16  N   UNL     1       5.341  -2.549  -6.348  0.00  0.00    -0.121 NA
ATOM     17  N   UNL     1       5.674  -2.966  -7.644  0.00  0.00    -0.121 NA
ATOM     18  C   UNL     1       5.308  -4.207  -7.763  0.00  0.00    +0.202 A 
ATOM     19  N   UNL     1       4.745  -4.642  -6.592  0.00  0.00    -0.264 N 
ATOM     20  C   UNL     1       4.287  -5.967  -6.533  0.00  0.00    +0.065 A 
ATOM     21  C   UNL     1       3.684  -6.594  -5.430  0.00  0.00    +0.027 A 
ATOM     22  C   UNL     1       3.279  -7.906  -5.502  0.00  0.00    +0.002 A 
ATOM     23  C   UNL     1       3.449  -8.648  -6.658  0.00  0.00    +0.001 A 
ATOM     24  C   UNL     1       4.039  -8.054  -7.760  0.00  0.00    +0.017 A 
ATOM     25  C   UNL     1       4.445  -6.742  -7.686  0.00  0.00    +0.040 A 
ATOM     26  S   UNL     1       5.223  -5.626  -8.829  0.00  0.00    -0.048 S 
ENDBRANCH  14  15
ENDBRANCH   1  14
TORSDOF 6
