REMARK  Name = ZINC04029247
REMARK  8 active torsions:
REMARK  status: ('A' for Active; 'I' for Inactive)
REMARK    1  A    between atoms: C_1  and  N_51
REMARK    2  A    between atoms: C_6  and  O_25
REMARK    3  A    between atoms: C_9  and  C_10
REMARK    4  A    between atoms: C_10  and  C_12
REMARK    5  A    between atoms: C_13  and  C_14
REMARK    6  A    between atoms: C_19  and  O_20
REMARK    7  A    between atoms: O_20  and  C_21
REMARK    8  A    between atoms: O_25  and  C_26
REMARK                            x       y       z     vdW  Elec       q    Type
REMARK                         _______ _______ _______ _____ _____    ______ ____
ROOT
ATOM      1  C   UNL     1      -1.285  12.030   0.379  0.00  0.00    -0.096 C 
ATOM      2  C   UNL     1      -0.183   9.998  -0.351  0.00  0.00    -0.074 C 
ATOM      3  C   UNL     1       0.020   8.539   0.055  0.00  0.00    +0.018 C 
ATOM      4  C   UNL     1      -1.301   7.814   0.060  0.00  0.00    -0.030 A 
ATOM      5  C   UNL     1      -2.496   8.491   0.064  0.00  0.00    -0.015 A 
ATOM      6  C   UNL     1      -3.698   7.782   0.072  0.00  0.00    +0.167 A 
ATOM      7  C   UNL     1      -3.703   6.393   0.068  0.00  0.00    +0.208 A 
ATOM      8  C   UNL     1      -2.499   5.700   0.055  0.00  0.00    +0.181 A 
ATOM      9  C   UNL     1      -1.293   6.411   0.047  0.00  0.00    +0.071 A 
ATOM     10  O   UNL     1      -2.763   4.363   0.052  0.00  0.00    -0.452 OA
ATOM     11  C   UNL     1      -4.133   4.240   0.477  0.00  0.00    +0.467 C 
ATOM     12  O   UNL     1      -4.727   5.489   0.075  0.00  0.00    -0.449 OA
ATOM     13  C   UNL     1      -2.557   9.996   0.063  0.00  0.00    -0.039 C 
ATOM     14  N   UNL     1      -1.263  10.553   0.490  0.00  0.00    +0.381 N 
ATOM     15  H   UNL     1      -1.093  10.294   1.469  0.00  0.00    -0.082 HD
ENDROOT
BRANCH   9  16
ATOM     16  C   UNL     1      -0.011   5.684   0.031  0.00  0.00    +0.190 C 
ATOM     17  O   UNL     1       1.040   6.301   0.025  0.00  0.00    -0.287 OA
BRANCH  16  18
ATOM     18  C   UNL     1       0.001   4.222   0.024  0.00  0.00    +0.052 C 
ATOM     19  C   UNL     1       1.176   3.555   0.009  0.00  0.00    +0.015 C 
BRANCH  19  20
ATOM     20  C   UNL     1       1.188   2.087   0.002  0.00  0.00    +0.017 A 
ATOM     21  C   UNL     1      -0.017   1.373   0.010  0.00  0.00    +0.011 A 
ATOM     22  C   UNL     1       0.002  -0.004   0.002  0.00  0.00    +0.001 A 
ATOM     23  C   UNL     1       1.208  -0.687  -0.014  0.00  0.00    +0.004 A 
ATOM     24  C   UNL     1       2.404   0.003  -0.021  0.00  0.00    +0.046 A 
ATOM     25  C   UNL     1       2.406   1.389  -0.013  0.00  0.00    +0.127 A 
BRANCH  25  26
ATOM     26  O   UNL     1       3.581   2.069  -0.020  0.00  0.00    -0.495 OA
ATOM     27  C   UNL     1       4.780   1.292  -0.035  0.00  0.00    +0.277 C 
ENDBRANCH  25  26
ENDBRANCH  19  20
ENDBRANCH  16  18
ENDBRANCH   9  16
BRANCH   6  28
ATOM     28  O   UNL     1      -4.876   8.457   0.084  0.00  0.00    -0.491 OA
ATOM     29  C   UNL     1      -5.428   8.776   1.363  0.00  0.00    +0.277 C 
ENDBRANCH   6  28
TORSDOF 5
