REMARK  Name = ZINC41549499
REMARK  6 active torsions:
REMARK  status: ('A' for Active; 'I' for Inactive)
REMARK    1  A    between atoms: C_1  and  C_2
REMARK    2  A    between atoms: C_2  and  C_14
REMARK    3  A    between atoms: N_16  and  C_17
REMARK    4  A    between atoms: C_17  and  C_18
REMARK    5  A    between atoms: N_20  and  C_21
REMARK    6  A    between atoms: N_20  and  C_22
REMARK                            x       y       z     vdW  Elec       q    Type
REMARK                         _______ _______ _______ _____ _____    ______ ____
ROOT
ATOM      1  C   UNL     1      -0.019   1.526   0.010  0.00  0.00    +0.076 C 
ATOM      2  C   UNL     1       0.002  -0.004   0.002  0.00  0.00    +0.257 C 
ATOM      3  C   UNL     1      -1.413  -0.525   0.008  0.00  0.00    +0.270 C 
ATOM      4  O   UNL     1      -2.310   0.144  -0.460  0.00  0.00    -0.271 OA
ATOM      5  N   UNL     1      -1.677  -1.739   0.535  0.00  0.00    -0.279 N 
ATOM      6  C   UNL     1      -0.651  -2.442   1.182  0.00  0.00    +0.077 A 
ATOM      7  C   UNL     1      -0.820  -3.772   1.531  0.00  0.00    +0.047 A 
ATOM      8  C   UNL     1       0.207  -4.455   2.158  0.00  0.00    +0.043 A 
ATOM      9  C   UNL     1       1.401  -3.813   2.436  0.00  0.00    +0.024 A 
ATOM     10  C   UNL     1       1.573  -2.484   2.094  0.00  0.00    +0.049 A 
ATOM     11  C   UNL     1       0.547  -1.793   1.472  0.00  0.00    +0.144 A 
ATOM     12  O   UNL     1       0.694  -0.477   1.160  0.00  0.00    -0.466 OA
ATOM     13 CL   UNL     1      -0.003  -6.121   2.597  0.00  0.00    -0.083 Cl
ATOM     14  H   UNL     1      -2.566  -2.121   0.467  0.00  0.00    +0.155 HD
ENDROOT
BRANCH   2  15
ATOM     15  C   UNL     1       0.709  -0.489  -1.237  0.00  0.00    +0.266 C 
ATOM     16  O   UNL     1       0.070  -0.781  -2.225  0.00  0.00    -0.271 OA
ATOM     17  N   UNL     1       2.053  -0.599  -1.247  0.00  0.00    -0.303 N 
ATOM     18  H   UNL     1       2.564  -0.366  -0.456  0.00  0.00    +0.149 HD
BRANCH  17  19
ATOM     19  C   UNL     1       2.740  -1.071  -2.452  0.00  0.00    +0.200 C 
BRANCH  19  20
ATOM     20  C   UNL     1       4.226  -1.103  -2.202  0.00  0.00    +0.232 C 
ATOM     21  O   UNL     1       4.667  -0.764  -1.124  0.00  0.00    -0.274 OA
ATOM     22  N   UNL     1       5.064  -1.507  -3.177  0.00  0.00    -0.306 N 
ATOM     23  C   UNL     1       6.509  -1.537  -2.934  0.00  0.00    +0.131 C 
ATOM     24  C   UNL     1       4.531  -1.915  -4.479  0.00  0.00    +0.131 C 
ENDBRANCH  19  20
ENDBRANCH  17  19
ENDBRANCH   2  15
TORSDOF 3
