REMARK  Name = ZINC52586818
REMARK  8 active torsions:
REMARK  status: ('A' for Active; 'I' for Inactive)
REMARK    1  A    between atoms: C_1  and  C_2
REMARK    2  A    between atoms: C_7  and  C_9
REMARK    3  A    between atoms: C_7  and  N_27
REMARK    4  A    between atoms: C_9  and  N_10
REMARK    5  A    between atoms: C_21  and  N_22
REMARK    6  A    between atoms: C_23  and  C_25
REMARK    7  A    between atoms: N_27  and  C_28
REMARK    8  A    between atoms: N_27  and  C_29
REMARK                            x       y       z     vdW  Elec       q    Type
REMARK                         _______ _______ _______ _____ _____    ______ ____
ROOT
ATOM      1  N   UNL     1       1.079  -5.628   1.842  0.00  0.00    -0.301 N 
ATOM      2  C   UNL     1       1.814  -6.334   2.724  0.00  0.00    +0.302 C 
ATOM      3  O   UNL     1       2.020  -5.890   3.837  0.00  0.00    -0.253 OA
ATOM      4  N   UNL     1       2.321  -7.532   2.372  0.00  0.00    -0.281 N 
ATOM      5  C   UNL     1       3.025  -8.382   3.347  0.00  0.00    +0.114 C 
ATOM      6  C   UNL     1       2.211  -9.662   3.530  0.00  0.00    +0.056 C 
ATOM      7  C   UNL     1       1.812 -10.238   2.197  0.00  0.00    -0.020 A 
ATOM      8  C   UNL     1       1.788  -9.495   1.039  0.00  0.00    -0.025 A 
ATOM      9  C   UNL     1       1.393 -10.087  -0.154  0.00  0.00    +0.005 A 
ATOM     10  C   UNL     1       1.034 -11.419  -0.195  0.00  0.00    +0.002 A 
ATOM     11  C   UNL     1       1.065 -12.173   0.962  0.00  0.00    +0.023 A 
ATOM     12  C   UNL     1       1.452 -11.586   2.156  0.00  0.00    +0.037 A 
ATOM     13  C   UNL     1       2.187  -8.046   1.005  0.00  0.00    +0.144 C 
ATOM     14  H   UNL     1       0.969  -5.951   0.934  0.00  0.00    +0.150 HD
ENDROOT
BRANCH  12  15
ATOM     15  N   UNL     1       1.482 -12.349   3.329  0.00  0.00    -0.285 N 
ATOM     16  C   UNL     1       1.686 -13.679   3.261  0.00  0.00    +0.214 C 
ATOM     17  O   UNL     1       1.948 -14.200   2.198  0.00  0.00    -0.276 OA
ATOM     18  C   UNL     1       1.589 -14.520   4.508  0.00  0.00    +0.109 C 
ATOM     19  H   UNL     1       1.356 -11.920   4.189  0.00  0.00    +0.155 HD
ENDBRANCH  12  15
BRANCH   1  20
ATOM     20  C   UNL     1       0.447  -4.372   2.254  0.00  0.00    +0.094 C 
BRANCH  20  26
ATOM     21  C   UNL     1      -2.335  -0.519   0.711  0.00  0.00    +0.007 C 
ATOM     22  C   UNL     1      -1.562  -1.761   0.262  0.00  0.00    -0.015 C 
ATOM     23  C   UNL     1      -2.516  -2.730  -0.438  0.00  0.00    +0.003 C 
ATOM     24  C   UNL     1      -1.743  -3.972  -0.887  0.00  0.00    -0.001 C 
ATOM     25  C   UNL     1      -1.125  -4.657   0.333  0.00  0.00    -0.010 C 
ATOM     26  C   UNL     1      -0.171  -3.687   1.034  0.00  0.00    -0.050 C 
ATOM     27  C   UNL     1      -0.944  -2.446   1.482  0.00  0.00    -0.007 C 
BRANCH  26  28
ATOM     28  N   UNL     1       0.895  -3.291   0.103  0.00  0.00    +0.381 N 
ATOM     29  C   UNL     1       1.895  -2.487   0.817  0.00  0.00    -0.096 C 
ATOM     30  C   UNL     1       1.535  -4.492  -0.449  0.00  0.00    -0.096 C 
ATOM     31  H   UNL     1       0.499  -2.745  -0.648  0.00  0.00    -0.082 HD
ENDBRANCH  26  28
ENDBRANCH  20  26
ENDBRANCH   1  20
TORSDOF 4
