REMARK  Name = ZINC23849108
REMARK  6 active torsions:
REMARK  status: ('A' for Active; 'I' for Inactive)
REMARK    1  A    between atoms: C_1  and  C_2
REMARK    2  A    between atoms: C_2  and  C_4
REMARK    3  A    between atoms: C_2  and  N_13
REMARK    4  A    between atoms: N_16  and  C_19
REMARK    5  A    between atoms: C_19  and  N_20
REMARK    6  A    between atoms: N_23  and  C_26
REMARK                            x       y       z     vdW  Elec       q    Type
REMARK                         _______ _______ _______ _____ _____    ______ ____
ROOT
ATOM      1  N   UNL     1      -2.059   1.240  -3.709  0.00  0.00    -0.297 NA
ATOM      2  C   UNL     1      -0.675   1.721  -3.607  0.00  0.00    +0.066 C 
ATOM      3  C   UNL     1       0.004   1.060  -2.404  0.00  0.00    -0.061 C 
ATOM      4  N   UNL     1      -0.751   1.375  -1.184  0.00  0.00    +0.394 N 
ATOM      5  C   UNL     1      -2.136   0.894  -1.287  0.00  0.00    -0.061 C 
ATOM      6  C   UNL     1      -2.815   1.555  -2.489  0.00  0.00    +0.066 C 
ATOM      7  H   UNL     1      -0.779   2.469  -1.075  0.00  0.00    -0.079 HD
ENDROOT
BRANCH   1   9
ATOM      8  C   UNL     1      -4.174   1.312  -4.943  0.00  0.00    +0.031 C 
ATOM      9  C   UNL     1      -2.723   1.794  -4.897  0.00  0.00    +0.109 C 
BRANCH   9  10
ATOM     10  C   UNL     1      -2.001   1.333  -6.137  0.00  0.00    +0.096 A 
ATOM     11  N   UNL     1      -1.629   2.041  -7.166  0.00  0.00    -0.242 NA
ATOM     12  C   UNL     1      -0.984   1.501  -8.222  0.00  0.00    +0.079 A 
ATOM     13  C   UNL     1      -0.522   2.130  -9.399  0.00  0.00    +0.029 A 
ATOM     14  C   UNL     1       0.115   1.414 -10.364  0.00  0.00    +0.002 A 
ATOM     15  C   UNL     1       0.335   0.050 -10.234  0.00  0.00    +0.001 A 
ATOM     16  C   UNL     1      -0.102  -0.603  -9.096  0.00  0.00    +0.017 A 
ATOM     17  C   UNL     1      -0.746   0.112  -8.116  0.00  0.00    +0.039 A 
ATOM     18  S   UNL     1      -1.456  -0.267  -6.533  0.00  0.00    -0.071 S 
ENDBRANCH   9  10
ENDBRANCH   1   9
BRANCH   4  19
ATOM     19  C   UNL     1      -0.088   0.821   0.004  0.00  0.00    +0.072 C 
BRANCH  19  20
ATOM     20  N   UNL     1      -0.728   1.349   1.211  0.00  0.00    -0.257 N 
ATOM     21  C   UNL     1      -0.378   2.470   1.876  0.00  0.00    +0.181 A 
ATOM     22  S   UNL     1       0.895   3.538   1.462  0.00  0.00    -0.011 S 
ATOM     23  N   UNL     1      -1.217   2.596   2.923  0.00  0.00    -0.278 N 
ATOM     24  C   UNL     1      -2.090   1.534   2.909  0.00  0.00    +0.228 A 
ATOM     25  N   UNL     1      -1.812   0.780   1.894  0.00  0.00    -0.161 NA
BRANCH  23  26
ATOM     26  C   UNL     1      -1.199   3.630   3.869  0.00  0.00    +0.050 A 
ATOM     27  C   UNL     1      -0.011   3.977   4.497  0.00  0.00    +0.026 A 
ATOM     28  C   UNL     1       0.005   5.000   5.426  0.00  0.00    +0.002 A 
ATOM     29  C   UNL     1      -1.163   5.670   5.738  0.00  0.00    +0.000 A 
ATOM     30  C   UNL     1      -2.350   5.323   5.118  0.00  0.00    +0.002 A 
ATOM     31  C   UNL     1      -2.371   4.305   4.184  0.00  0.00    +0.026 A 
ENDBRANCH  23  26
ENDBRANCH  19  20
ENDBRANCH   4  19
TORSDOF 5
