REMARK  Name = ZINC04810174
REMARK  2 active torsions:
REMARK  status: ('A' for Active; 'I' for Inactive)
REMARK    1  A    between atoms: C_12  and  C_20
REMARK    2  A    between atoms: C_14  and  C_18
REMARK                            x       y       z     vdW  Elec       q    Type
REMARK                         _______ _______ _______ _____ _____    ______ ____
ROOT
ATOM      1  C   UNL     1      -5.153   1.835  -4.137  0.00  0.00    +0.001 A 
ATOM      2  C   UNL     1      -4.781   1.016  -5.192  0.00  0.00    +0.004 A 
ATOM      3  C   UNL     1      -3.830   0.032  -5.018  0.00  0.00    +0.047 A 
ATOM      4  C   UNL     1      -3.236  -0.142  -3.775  0.00  0.00    +0.140 A 
ATOM      5  C   UNL     1      -3.610   0.686  -2.708  0.00  0.00    +0.032 A 
ATOM      6  C   UNL     1      -4.574   1.677  -2.896  0.00  0.00    +0.012 A 
ATOM      7  C   UNL     1      -2.972   0.493  -1.389  0.00  0.00    +0.035 A 
ATOM      8  C   UNL     1      -2.026  -0.489  -1.264  0.00  0.00    +0.060 A 
ATOM      9  C   UNL     1      -1.715  -1.280  -2.391  0.00  0.00    +0.342 A 
ATOM     10  O   UNL     1      -0.880  -2.162  -2.278  0.00  0.00    -0.245 OA
ATOM     11  O   UNL     1      -2.303  -1.099  -3.580  0.00  0.00    -0.422 OA
ATOM     12  C   UNL     1      -1.293  -0.776   0.010  0.00  0.00    +0.083 C 
ATOM     13  C   UNL     1      -2.049  -0.419   1.239  0.00  0.00    +0.158 C 
ATOM     14  C   UNL     1      -2.980   0.547   1.322  0.00  0.00    +0.088 C 
ATOM     15  S   UNL     1      -3.454   1.526  -0.053  0.00  0.00    -0.072 S 
ATOM     16  N   UNL     1      -3.585   0.777   2.535  0.00  0.00    -0.296 NA
ATOM     17  H   UNL     1      -3.337   0.247   3.309  0.00  0.00    +0.187 HD
ENDROOT
BRANCH  12  18
ATOM     18  C   UNL     1       0.002  -0.005   0.002  0.00  0.00    -0.003 A 
ATOM     19  C   UNL     1      -0.016   1.377   0.010  0.00  0.00    +0.007 A 
ATOM     20  C   UNL     1       1.171   2.085   0.003  0.00  0.00    +0.000 A 
ATOM     21  C   UNL     1       2.378   1.411  -0.013  0.00  0.00    +0.003 A 
ATOM     22  C   UNL     1       2.399   0.029  -0.021  0.00  0.00    +0.038 A 
ATOM     23  C   UNL     1       1.210  -0.680  -0.013  0.00  0.00    +0.127 A 
ATOM     24  F   UNL     1       1.229  -2.031  -0.021  0.00  0.00    -0.205 F 
ENDBRANCH  12  18
BRANCH  13  25
ATOM     25  C   UNL     1      -1.762  -1.163   2.429  0.00  0.00    +0.074 C 
ATOM     26  N   UNL     1      -1.535  -1.754   3.372  0.00  0.00    -0.196 NA
ENDBRANCH  13  25
TORSDOF 2
