REMARK  Name = ZINC49550536
REMARK  5 active torsions:
REMARK  status: ('A' for Active; 'I' for Inactive)
REMARK    1  A    between atoms: C_1  and  N_2
REMARK    2  A    between atoms: C_8  and  C_23
REMARK    3  A    between atoms: N_13  and  C_14
REMARK    4  A    between atoms: C_28  and  O_29
REMARK    5  A    between atoms: O_29  and  C_30
REMARK                            x       y       z     vdW  Elec       q    Type
REMARK                         _______ _______ _______ _____ _____    ______ ____
ROOT
ATOM      1  C   UNL     1      -0.154   1.556   0.841  0.00  0.00    +0.154 C 
ATOM      2  N   UNL     1      -0.059   0.095   0.779  0.00  0.00    -0.293 N 
ATOM      3  C   UNL     1      -1.168  -0.654   0.490  0.00  0.00    +0.126 A 
ATOM      4  C   UNL     1      -0.962  -1.988   0.451  0.00  0.00    +0.042 A 
ATOM      5  S   UNL     1       0.757  -2.151   0.824  0.00  0.00    -0.029 S 
ATOM      6  C   UNL     1       1.123  -0.517   1.000  0.00  0.00    +0.292 A 
ATOM      7  O   UNL     1       2.199  -0.009   1.266  0.00  0.00    -0.259 OA
ATOM      8  C   UNL     1      -1.992  -3.024   0.148  0.00  0.00    +0.071 C 
ATOM      9  C   UNL     1      -3.364  -2.471   0.561  0.00  0.00    +0.110 C 
ATOM     10  C   UNL     1      -3.491  -1.028   0.160  0.00  0.00    +0.226 C 
ATOM     11  O   UNL     1      -4.565  -0.630  -0.240  0.00  0.00    -0.275 OA
ATOM     12  N   UNL     1      -2.466  -0.159   0.225  0.00  0.00    -0.225 N 
ENDROOT
BRANCH  12  13
ATOM     13  C   UNL     1      -2.681   1.212   0.033  0.00  0.00    +0.048 A 
ATOM     14  C   UNL     1      -2.467   1.781  -1.216  0.00  0.00    +0.065 A 
ATOM     15  C   UNL     1      -2.680   3.135  -1.404  0.00  0.00    +0.163 A 
ATOM     16  C   UNL     1      -3.106   3.924  -0.346  0.00  0.00    +0.193 A 
ATOM     17  C   UNL     1      -3.319   3.357   0.900  0.00  0.00    +0.163 A 
ATOM     18  C   UNL     1      -3.113   2.002   1.090  0.00  0.00    +0.065 A 
ATOM     19  F   UNL     1      -3.734   4.127   1.930  0.00  0.00    -0.202 F 
ATOM     20  F   UNL     1      -3.313   5.246  -0.531  0.00  0.00    -0.199 F 
ATOM     21  F   UNL     1      -2.471   3.688  -2.618  0.00  0.00    -0.202 F 
ENDBRANCH  12  13
BRANCH   8  22
ATOM     22  C   UNL     1      -1.989  -3.329  -1.327  0.00  0.00    +0.003 A 
ATOM     23  C   UNL     1      -2.246  -2.325  -2.241  0.00  0.00    +0.008 A 
ATOM     24  C   UNL     1      -2.244  -2.604  -3.595  0.00  0.00    +0.001 A 
ATOM     25  C   UNL     1      -1.984  -3.888  -4.038  0.00  0.00    +0.004 A 
ATOM     26  C   UNL     1      -1.726  -4.895  -3.129  0.00  0.00    +0.046 A 
ATOM     27  C   UNL     1      -1.722  -4.616  -1.770  0.00  0.00    +0.124 A 
BRANCH  27  28
ATOM     28  O   UNL     1      -1.463  -5.604  -0.873  0.00  0.00    -0.495 OA
ATOM     29  C   UNL     1      -1.197  -6.905  -1.400  0.00  0.00    +0.277 C 
ENDBRANCH  27  28
ENDBRANCH   8  22
TORSDOF 3
