REMARK  Name = ZINC01396838
REMARK  3 active torsions:
REMARK  status: ('A' for Active; 'I' for Inactive)
REMARK    1  A    between atoms: C_10  and  C_12
REMARK    2  A    between atoms: C_12  and  C_13
REMARK    3  A    between atoms: N_17  and  C_18
REMARK                            x       y       z     vdW  Elec       q    Type
REMARK                         _______ _______ _______ _____ _____    ______ ____
ROOT
ATOM      1  C   UNL     1      -0.327   2.061   0.825  0.00  0.00    +0.000 A 
ATOM      2  C   UNL     1      -0.466   0.726   0.493  0.00  0.00    +0.000 A 
ATOM      3  C   UNL     1       0.638   0.004   0.088  0.00  0.00    +0.006 A 
ATOM      4  C   UNL     1       1.885   0.608   0.007  0.00  0.00    -0.023 A 
ATOM      5  C   UNL     1       2.024   1.939   0.330  0.00  0.00    -0.041 A 
ATOM      6  C   UNL     1       0.912   2.663   0.744  0.00  0.00    +0.004 A 
ATOM      7  C   UNL     1       3.340   2.667   0.250  0.00  0.00    +0.054 C 
ATOM      8  C   UNL     1       4.508   1.681   0.263  0.00  0.00    +0.114 C 
ATOM      9  N   UNL     1       4.210   0.614  -0.707  0.00  0.00    -0.277 N 
ATOM     10  C   UNL     1       3.051  -0.242  -0.431  0.00  0.00    +0.122 C 
ATOM     11  C   UNL     1       4.972   0.431  -1.803  0.00  0.00    +0.307 C 
ATOM     12  O   UNL     1       4.644  -0.385  -2.642  0.00  0.00    -0.252 OA
ATOM     13  N   UNL     1       6.098   1.154  -1.970  0.00  0.00    -0.268 N 
ATOM     14  H   UNL     1       6.394   1.758  -1.271  0.00  0.00    +0.156 HD
ENDROOT
BRANCH  13  15
ATOM     15  C   UNL     1       6.839   1.032  -3.152  0.00  0.00    +0.053 A 
ATOM     16  C   UNL     1       6.810  -0.155  -3.872  0.00  0.00    +0.026 A 
ATOM     17  C   UNL     1       7.538  -0.270  -5.040  0.00  0.00    +0.022 A 
ATOM     18  C   UNL     1       8.305   0.791  -5.488  0.00  0.00    +0.042 A 
ATOM     19  C   UNL     1       8.341   1.973  -4.769  0.00  0.00    +0.041 A 
ATOM     20  C   UNL     1       7.610   2.096  -3.603  0.00  0.00    +0.064 A 
ATOM     21 CL   UNL     1       7.655   3.579  -2.702  0.00  0.00    -0.082 Cl
ATOM     22 CL   UNL     1       9.224   0.639  -6.952  0.00  0.00    -0.083 Cl
ENDBRANCH  13  15
BRANCH  10  23
ATOM     23  C   UNL     1       2.673  -1.010  -1.699  0.00  0.00    +0.145 C 
BRANCH  23  24
ATOM     24  C   UNL     1       3.609  -2.130  -1.891  0.00  0.00    +0.065 C 
ATOM     25  N   UNL     1       4.330  -2.995  -2.039  0.00  0.00    -0.196 NA
ENDBRANCH  23  24
ENDBRANCH  10  23
TORSDOF 3
