REMARK  Name = ZINC67535195
REMARK  8 active torsions:
REMARK  status: ('A' for Active; 'I' for Inactive)
REMARK    1  A    between atoms: C_1  and  C_2
REMARK    2  A    between atoms: C_5  and  C_8
REMARK    3  A    between atoms: N_16  and  C_17
REMARK    4  A    between atoms: C_17  and  C_19
REMARK    5  A    between atoms: C_17  and  C_20
REMARK    6  A    between atoms: C_21  and  C_27
REMARK    7  A    between atoms: N_23  and  C_26
REMARK    8  A    between atoms: C_24  and  C_25
REMARK                            x       y       z     vdW  Elec       q    Type
REMARK                         _______ _______ _______ _____ _____    ______ ____
ROOT
ATOM      1  C   UNL     1       0.105  -4.843  -0.202  0.00  0.00    +0.108 C 
ATOM      2  C   UNL     1      -1.318  -5.338   0.130  0.00  0.00    +0.029 C 
ATOM      3  C   UNL     1      -1.075  -6.344   1.286  0.00  0.00    +0.021 C 
ATOM      4  C   UNL     1       0.097  -5.670   2.043  0.00  0.00    +0.110 C 
ATOM      5  N   UNL     1       0.941  -5.079   0.984  0.00  0.00    -0.279 N 
ATOM      6  C   UNL     1       2.256  -4.803   1.087  0.00  0.00    +0.303 C 
ATOM      7  O   UNL     1       2.850  -4.315   0.144  0.00  0.00    -0.253 OA
ATOM      8  N   UNL     1       2.913  -5.068   2.233  0.00  0.00    -0.293 N 
ATOM      9  H   UNL     1       2.439  -5.457   2.985  0.00  0.00    +0.151 HD
ENDROOT
BRANCH   1  14
ATOM     10  C   UNL     1      -0.017   0.803  -1.427  0.00  0.00    +0.044 C 
ATOM     11  C   UNL     1       0.015  -0.669  -1.108  0.00  0.00    -0.050 A 
ATOM     12  C   UNL     1       0.065  -1.597  -2.131  0.00  0.00    +0.004 A 
ATOM     13  C   UNL     1       0.094  -2.948  -1.838  0.00  0.00    +0.006 A 
ATOM     14  C   UNL     1       0.074  -3.370  -0.521  0.00  0.00    -0.027 A 
ATOM     15  C   UNL     1       0.026  -2.442   0.502  0.00  0.00    +0.006 A 
ATOM     16  C   UNL     1       0.001  -1.091   0.209  0.00  0.00    +0.004 A 
ENDBRANCH   1  14
BRANCH   8  17
ATOM     17  C   UNL     1       4.343  -4.767   2.344  0.00  0.00    +0.105 C 
ATOM     18  C   UNL     1       5.147  -5.828   1.590  0.00  0.00    +0.033 C 
BRANCH  17  19
ATOM     19  C   UNL     1       4.745  -4.770   3.797  0.00  0.00    +0.016 A 
ATOM     20  C   UNL     1       4.440  -5.763   4.733  0.00  0.00    +0.065 A 
ATOM     21  N   UNL     1       4.959  -5.414   5.883  0.00  0.00    -0.176 NA
ATOM     22  N   UNL     1       5.611  -4.186   5.713  0.00  0.00    -0.271 N 
ATOM     23  C   UNL     1       5.470  -3.815   4.424  0.00  0.00    +0.041 A 
ATOM     24  C   UNL     1       6.018  -2.560   3.796  0.00  0.00    +0.065 C 
ATOM     25  C   UNL     1       6.326  -3.440   6.752  0.00  0.00    +0.172 C 
ATOM     26  C   UNL     1       3.650  -7.018   4.465  0.00  0.00    +0.068 C 
ENDBRANCH  17  19
ENDBRANCH   8  17
TORSDOF 3
