REMARK  Name = ZINC08345853
REMARK  4 active torsions:
REMARK  status: ('A' for Active; 'I' for Inactive)
REMARK    1  A    between atoms: C_1  and  C_2
REMARK    2  A    between atoms: N_11  and  C_15
REMARK    3  A    between atoms: C_15  and  C_16
REMARK    4  A    between atoms: N_18  and  C_19
REMARK                            x       y       z     vdW  Elec       q    Type
REMARK                         _______ _______ _______ _____ _____    ______ ____
ROOT
ATOM      1  C   UNL     1       1.853   5.104   2.962  0.00  0.00    +0.213 C 
ENDROOT
BRANCH   1  11
ATOM      2  C   UNL     1      -1.483   5.154   0.038  0.00  0.00    +0.010 C 
ATOM      3  C   UNL     1      -1.487   3.624   0.025  0.00  0.00    +0.018 C 
ATOM      4  C   UNL     1      -0.767   3.123  -1.230  0.00  0.00    +0.006 C 
ATOM      5  C   UNL     1      -0.753   1.593  -1.231  0.00  0.00    +0.000 C 
ATOM      6  C   UNL     1      -0.013   1.086   0.008  0.00  0.00    +0.003 C 
ATOM      7  C   UNL     1      -0.730   1.580   1.267  0.00  0.00    +0.035 C 
ATOM      8  C   UNL     1      -0.770   3.104   1.266  0.00  0.00    +0.115 C 
ATOM      9  C   UNL     1       0.631   3.667   1.340  0.00  0.00    +0.247 C 
ATOM     10  O   UNL     1       1.528   3.513   0.539  0.00  0.00    -0.273 OA
ATOM     11  N   UNL     1       0.673   4.379   2.486  0.00  0.00    -0.215 N 
ATOM     12  C   UNL     1      -0.498   4.339   3.134  0.00  0.00    +0.310 C 
ATOM     13  O   UNL     1      -0.705   4.904   4.190  0.00  0.00    -0.252 OA
ATOM     14  N   UNL     1      -1.420   3.603   2.484  0.00  0.00    -0.285 N 
ATOM     15  H   UNL     1      -2.333   3.437   2.765  0.00  0.00    +0.151 HD
ENDBRANCH   1  11
BRANCH   1  16
ATOM     16  C   UNL     1       1.830   6.511   2.421  0.00  0.00    +0.231 C 
ATOM     17  O   UNL     1       0.917   6.872   1.709  0.00  0.00    -0.274 OA
ATOM     18  N   UNL     1       2.824   7.368   2.730  0.00  0.00    -0.307 N 
ATOM     19  H   UNL     1       3.554   7.079   3.300  0.00  0.00    +0.149 HD
BRANCH  18  20
ATOM     20  C   UNL     1       2.801   8.735   2.205  0.00  0.00    +0.110 C 
ATOM     21  C   UNL     1       4.230   9.280   2.142  0.00  0.00    +0.068 C 
ATOM     22  C   UNL     1       4.159  10.790   1.877  0.00  0.00    +0.231 C 
ATOM     23  O   UNL     1       3.532  11.415   2.998  0.00  0.00    -0.492 OA
ATOM     24  C   UNL     1       2.365  10.886   3.449  0.00  0.00    +0.125 A 
ATOM     25  C   UNL     1       1.964   9.606   3.108  0.00  0.00    +0.014 A 
ATOM     26  C   UNL     1       0.771   9.104   3.599  0.00  0.00    +0.009 A 
ATOM     27  C   UNL     1      -0.022   9.875   4.427  0.00  0.00    +0.001 A 
ATOM     28  C   UNL     1       0.375  11.155   4.767  0.00  0.00    +0.004 A 
ATOM     29  C   UNL     1       1.563  11.660   4.281  0.00  0.00    +0.046 A 
ENDBRANCH  18  20
ENDBRANCH   1  16
TORSDOF 3
