REMARK  Name = ZINC49428379
REMARK  5 active torsions:
REMARK  status: ('A' for Active; 'I' for Inactive)
REMARK    1  A    between atoms: C_1  and  N_2
REMARK    2  A    between atoms: C_5  and  N_8
REMARK    3  A    between atoms: N_8  and  C_9
REMARK    4  A    between atoms: C_10  and  C_12
REMARK    5  A    between atoms: N_21  and  C_22
REMARK                            x       y       z     vdW  Elec       q    Type
REMARK                         _______ _______ _______ _____ _____    ______ ____
ROOT
ATOM      1  C   UNL     1       2.229  -6.293  -0.070  0.00  0.00    +0.093 C 
ATOM      2  C   UNL     1       3.630  -6.909  -0.093  0.00  0.00    +0.016 C 
ATOM      3  C   UNL     1       3.518  -8.435  -0.062  0.00  0.00    +0.020 C 
ATOM      4  C   UNL     1       2.758  -8.914  -1.304  0.00  0.00    +0.109 C 
ATOM      5  N   UNL     1       1.467  -8.215  -1.366  0.00  0.00    -0.285 N 
ATOM      6  C   UNL     1       1.454  -6.747  -1.311  0.00  0.00    +0.122 C 
ATOM      7  C   UNL     1       0.316  -8.908  -1.472  0.00  0.00    +0.307 C 
ATOM      8  O   UNL     1      -0.750  -8.326  -1.427  0.00  0.00    -0.252 OA
ATOM      9  N   UNL     1       0.347 -10.247  -1.627  0.00  0.00    -0.264 N 
ATOM     10  H   UNL     1       1.193 -10.720  -1.590  0.00  0.00    +0.157 HD
ENDROOT
BRANCH   9  11
ATOM     11  C   UNL     1      -0.840 -10.953  -1.843  0.00  0.00    +0.073 A 
ATOM     12  C   UNL     1      -1.022 -12.292  -2.016  0.00  0.00    +0.031 A 
ATOM     13  C   UNL     1      -2.305 -12.769  -2.216  0.00  0.00    +0.009 A 
ATOM     14  C   UNL     1      -3.338 -11.893  -2.233  0.00  0.00    +0.047 A 
ATOM     15  S   UNL     1      -2.511 -10.336  -1.953  0.00  0.00    -0.082 S 
ENDBRANCH   9  11
BRANCH   1  18
ATOM     16  N   UNL     1       1.227  -4.032  -0.050  0.00  0.00    -0.301 N 
ATOM     17  C   UNL     1      -0.093  -4.668  -0.032  0.00  0.00    +0.132 C 
ATOM     18  C   UNL     1       2.341  -4.790  -0.068  0.00  0.00    +0.220 C 
ATOM     19  O   UNL     1       3.433  -4.263  -0.083  0.00  0.00    -0.275 OA
BRANCH  16  24
ATOM     20  C   UNL     1      -0.018   1.470  -0.026  0.00  0.00    -0.096 C 
ATOM     21  N   UNL     1       0.002   0.001  -0.029  0.00  0.00    +0.378 N 
ATOM     22  C   UNL     1       0.683  -0.475  -1.239  0.00  0.00    -0.077 C 
ATOM     23  C   UNL     1       0.635  -2.004  -1.287  0.00  0.00    +0.004 C 
ATOM     24  C   UNL     1       1.335  -2.571  -0.049  0.00  0.00    +0.072 C 
ATOM     25  C   UNL     1       0.663  -2.009   1.207  0.00  0.00    +0.004 C 
ATOM     26  C   UNL     1       0.710  -0.480   1.164  0.00  0.00    -0.077 C 
ATOM     27  H   UNL     1      -0.945  -0.347  -0.019  0.00  0.00    -0.082 HD
ENDBRANCH  16  24
ENDBRANCH   1  18
TORSDOF 3
