REMARK  Name = ZINC21946915
REMARK  9 active torsions:
REMARK  status: ('A' for Active; 'I' for Inactive)
REMARK    1  A    between atoms: C_1  and  C_2
REMARK    2  A    between atoms: C_2  and  O_4
REMARK    3  A    between atoms: O_4  and  C_5
REMARK    4  A    between atoms: C_8  and  C_11
REMARK    5  A    between atoms: N_16  and  C_30
REMARK    6  A    between atoms: C_20  and  C_28
REMARK    7  A    between atoms: C_21  and  N_27
REMARK    8  A    between atoms: C_22  and  C_23
REMARK    9  A    between atoms: C_22  and  C_25
REMARK                            x       y       z     vdW  Elec       q    Type
REMARK                         _______ _______ _______ _____ _____    ______ ____
ROOT
ATOM      1  C   UNL     1       1.081   3.591  -0.057  0.00  0.00    +0.067 C 
ATOM      2  C   UNL     1       1.569   4.108  -1.411  0.00  0.00    +0.044 C 
ATOM      3  C   UNL     1       0.590   3.808  -2.522  0.00  0.00    +0.093 C 
ATOM      4  N   UNL     1       1.001   2.651  -3.322  0.00  0.00    -0.301 NA
ATOM      5  C   UNL     1       2.324   2.893  -3.924  0.00  0.00    +0.111 C 
ATOM      6  C   UNL     1       3.320   3.027  -2.797  0.00  0.00    -0.007 C 
ATOM      7  C   UNL     1       2.948   3.562  -1.650  0.00  0.00    -0.026 C 
ATOM      8  C   UNL     1       3.909   3.640  -0.521  0.00  0.00    +0.074 C 
ATOM      9  C   UNL     1       3.443   3.897   0.728  0.00  0.00    +0.054 C 
ATOM     10  C   UNL     1       1.996   4.136   1.040  0.00  0.00    +0.188 C 
ATOM     11  C   UNL     1       0.002   2.342  -4.354  0.00  0.00    +0.105 C 
ENDROOT
BRANCH   1  15
ATOM     12  C   UNL     1       1.198  -0.680  -0.029  0.00  0.00    +0.132 A 
ATOM     13  C   UNL     1       0.076  -0.019  -0.508  0.00  0.00    +0.046 A 
ATOM     14  C   UNL     1       0.040   1.362  -0.515  0.00  0.00    +0.007 A 
ATOM     15  C   UNL     1       1.122   2.085  -0.047  0.00  0.00    -0.041 A 
ATOM     16  C   UNL     1       2.241   1.428   0.430  0.00  0.00    +0.007 A 
ATOM     17  C   UNL     1       2.281   0.047   0.440  0.00  0.00    +0.046 A 
BRANCH  12  18
ATOM     18  O   UNL     1       1.235  -2.039  -0.021  0.00  0.00    -0.426 OA
BRANCH  18  20
ATOM     19  C   UNL     1       1.218  -4.157  -1.291  0.00  0.00    +0.136 C 
ATOM     20  C   UNL     1       1.305  -2.654  -1.212  0.00  0.00    +0.309 C 
ATOM     21  O   UNL     1       1.438  -2.003  -2.221  0.00  0.00    -0.251 OA
ENDBRANCH  18  20
ENDBRANCH  12  18
ENDBRANCH   1  15
BRANCH   9  22
ATOM     22  N   UNL     1       4.341   3.941   1.756  0.00  0.00    -0.358 N 
ATOM     23  H   UNL     1       3.996   4.147   2.780  0.00  0.00    +0.142 HD
ATOM     24  H   UNL     1       5.410   3.771   1.561  0.00  0.00    +0.142 HD
ENDBRANCH   9  22
BRANCH  10  25
ATOM     25  C   UNL     1       1.768   5.584   1.179  0.00  0.00    +0.091 C 
ATOM     26  N   UNL     1       1.593   6.701   1.287  0.00  0.00    -0.194 NA
ENDBRANCH  10  25
BRANCH  10  27
ATOM     27  C   UNL     1       1.666   3.474   2.312  0.00  0.00    +0.091 C 
ATOM     28  N   UNL     1       1.412   2.963   3.295  0.00  0.00    -0.194 NA
ENDBRANCH  10  27
BRANCH   8  29
ATOM     29  C   UNL     1       5.309   3.447  -0.747  0.00  0.00    +0.101 C 
ATOM     30  N   UNL     1       6.421   3.294  -0.926  0.00  0.00    -0.191 NA
ENDBRANCH   8  29
TORSDOF 7
