REMARK  Name = ZINC02889982
REMARK  3 active torsions:
REMARK  status: ('A' for Active; 'I' for Inactive)
REMARK    1  A    between atoms: C_5  and  N_7
REMARK    2  A    between atoms: N_10  and  C_11
REMARK    3  A    between atoms: C_11  and  C_12
REMARK                            x       y       z     vdW  Elec       q    Type
REMARK                         _______ _______ _______ _____ _____    ______ ____
ROOT
ATOM      1  N   UNL     1      -2.345   0.934   0.018  0.00  0.00    -0.267 N 
ATOM      2  C   UNL     1      -1.188   1.624   0.009  0.00  0.00    +0.304 C 
ATOM      3  O   UNL     1      -1.205   2.840   0.019  0.00  0.00    -0.252 OA
ATOM      4  N   UNL     1      -0.011   0.967  -0.011  0.00  0.00    -0.292 N 
ATOM      5  H   UNL     1      -2.334  -0.033  -0.055  0.00  0.00    +0.156 HD
ATOM      6  H   UNL     1       0.002  -0.003  -0.019  0.00  0.00    +0.151 HD
ENDROOT
BRANCH   1  11
ATOM      7  C   UNL     1      -4.929   3.528  -0.339  0.00  0.00    +0.002 A 
ATOM      8  C   UNL     1      -5.975   2.956   0.361  0.00  0.00    +0.003 A 
ATOM      9  C   UNL     1      -5.821   1.714   0.949  0.00  0.00    +0.040 A 
ATOM     10  C   UNL     1      -4.618   1.040   0.837  0.00  0.00    +0.145 A 
ATOM     11  C   UNL     1      -3.565   1.613   0.134  0.00  0.00    +0.070 A 
ATOM     12  C   UNL     1      -3.723   2.863  -0.450  0.00  0.00    +0.026 A 
ATOM     13  F   UNL     1      -4.467  -0.173   1.412  0.00  0.00    -0.204 F 
ENDBRANCH   1  11
BRANCH   4  14
ATOM     14  C   UNL     1       1.247   1.717  -0.027  0.00  0.00    +0.180 C 
BRANCH  14  15
ATOM     15  C   UNL     1       2.406   0.754  -0.055  0.00  0.00    +0.122 A 
ATOM     16  C   UNL     1       2.992   0.261  -1.160  0.00  0.00    +0.046 A 
ATOM     17  C   UNL     1       4.028  -0.598  -0.726  0.00  0.00    +0.041 A 
ATOM     18  C   UNL     1       4.013  -0.577   0.619  0.00  0.00    +0.195 A 
ATOM     19  O   UNL     1       3.032   0.248   1.020  0.00  0.00    -0.466 OA
ENDBRANCH  14  15
ENDBRANCH   4  14
TORSDOF 3
