REMARK  Name = ZINC40510329
REMARK  4 active torsions:
REMARK  status: ('A' for Active; 'I' for Inactive)
REMARK    1  A    between atoms: C_1  and  C_2
REMARK    2  A    between atoms: C_7  and  C_10
REMARK    3  A    between atoms: C_11  and  C_13
REMARK    4  A    between atoms: N_15  and  C_18
REMARK                            x       y       z     vdW  Elec       q    Type
REMARK                         _______ _______ _______ _____ _____    ______ ____
ROOT
ATOM      1  C   UNL     1       4.165   0.957  -1.992  0.00  0.00    +0.167 A 
ATOM      2  C   UNL     1       4.877   1.700  -2.890  0.00  0.00    +0.149 A 
ATOM      3  N   UNL     1       6.100   1.896  -2.351  0.00  0.00    -0.219 N 
ATOM      4  N   UNL     1       6.102   1.251  -1.106  0.00  0.00    -0.060 NA
ATOM      5  N   UNL     1       4.946   0.714  -0.925  0.00  0.00    -0.124 NA
ENDROOT
BRANCH   1  14
ATOM      6  C   UNL     1      -0.069   1.558  -0.071  0.00  0.00    +0.039 C 
ATOM      7  C   UNL     1      -0.028   0.029  -0.030  0.00  0.00    +0.133 C 
ATOM      8  C   UNL     1       0.719  -0.497  -1.260  0.00  0.00    +0.139 C 
ATOM      9  N   UNL     1       2.134  -0.110  -1.144  0.00  0.00    -0.291 N 
ATOM     10  C   UNL     1       2.833  -0.414   0.114  0.00  0.00    +0.139 C 
ATOM     11  C   UNL     1       1.983   0.108   1.278  0.00  0.00    +0.133 C 
ATOM     12  O   UNL     1       0.651  -0.399   1.153  0.00  0.00    -0.371 OA
ATOM     13  C   UNL     1       2.587  -0.361   2.603  0.00  0.00    +0.039 C 
ATOM     14  C   UNL     1       2.771   0.504  -2.161  0.00  0.00    +0.268 C 
ATOM     15  O   UNL     1       2.197   0.684  -3.218  0.00  0.00    -0.268 OA
ENDBRANCH   1  14
BRANCH   3  16
ATOM     16  C   UNL     1       7.163   2.607  -2.927  0.00  0.00    +0.067 A 
ATOM     17  C   UNL     1       7.010   3.200  -4.173  0.00  0.00    +0.029 A 
ATOM     18  C   UNL     1       8.059   3.900  -4.737  0.00  0.00    +0.022 A 
ATOM     19  C   UNL     1       9.261   4.011  -4.061  0.00  0.00    +0.041 A 
ATOM     20  C   UNL     1       9.416   3.421  -2.819  0.00  0.00    +0.022 A 
ATOM     21  C   UNL     1       8.369   2.724  -2.249  0.00  0.00    +0.029 A 
ATOM     22 CL   UNL     1      10.577   4.891  -4.773  0.00  0.00    -0.084 Cl
ENDBRANCH   3  16
TORSDOF 2
