REMARK  Name = ZINC50807269
REMARK  8 active torsions:
REMARK  status: ('A' for Active; 'I' for Inactive)
REMARK    1  A    between atoms: C_1  and  C_2
REMARK    2  A    between atoms: N_5  and  C_7
REMARK    3  A    between atoms: C_10  and  C_13
REMARK    4  A    between atoms: C_15  and  C_16
REMARK    5  A    between atoms: C_15  and  C_18
REMARK    6  A    between atoms: N_20  and  C_21
REMARK    7  A    between atoms: C_21  and  C_22
REMARK    8  A    between atoms: C_22  and  C_23
REMARK                            x       y       z     vdW  Elec       q    Type
REMARK                         _______ _______ _______ _____ _____    ______ ____
ROOT
ATOM      1  C   UNL     1       0.076  -6.700   3.906  0.00  0.00    +0.208 C 
ATOM      2  O   UNL     1       0.241  -6.576   5.239  0.00  0.00    -0.286 OA
ATOM      3  C   UNL     1       0.024  -7.962   3.326  0.00  0.00    +0.160 C 
ENDROOT
BRANCH   1   7
ATOM      4  C   UNL     1      -0.284  -3.236   1.482  0.00  0.00    +0.065 A 
ATOM      5  C   UNL     1      -1.269  -4.217   1.440  0.00  0.00    +0.028 A 
ATOM      6  C   UNL     1      -1.157  -5.343   2.224  0.00  0.00    +0.014 A 
ATOM      7  C   UNL     1      -0.049  -5.499   3.065  0.00  0.00    +0.023 A 
ATOM      8  C   UNL     1       0.940  -4.509   3.105  0.00  0.00    +0.014 A 
ATOM      9  C   UNL     1       0.821  -3.389   2.313  0.00  0.00    +0.028 A 
BRANCH   4  14
ATOM     10  C   UNL     1      -2.023   0.080  -1.764  0.00  0.00    +0.047 C 
ATOM     11  C   UNL     1      -1.159  -0.623  -0.748  0.00  0.00    -0.013 A 
ATOM     12  C   UNL     1       0.056  -0.154  -0.236  0.00  0.00    +0.138 A 
ATOM     13  N   UNL     1       0.510  -1.034   0.619  0.00  0.00    -0.175 NA
ATOM     14  N   UNL     1      -0.403  -2.095   0.684  0.00  0.00    -0.240 N 
ATOM     15  C   UNL     1      -1.426  -1.814  -0.165  0.00  0.00    +0.117 A 
ENDBRANCH   4  14
ENDBRANCH   1   7
BRANCH   3  16
ATOM     16  C   UNL     1       0.025  -8.099   1.866  0.00  0.00    +0.258 C 
ATOM     17  O   UNL     1       0.192  -7.120   1.163  0.00  0.00    -0.269 OA
ATOM     18  N   UNL     1      -0.158  -9.310   1.303  0.00  0.00    -0.310 N 
ATOM     19  H   UNL     1      -0.290 -10.091   1.863  0.00  0.00    +0.149 HD
BRANCH  18  20
ATOM     20  C   UNL     1      -0.156  -9.447  -0.156  0.00  0.00    +0.109 C 
BRANCH  20  21
ATOM     21  C   UNL     1      -0.382 -10.913  -0.530  0.00  0.00    +0.054 C 
BRANCH  21  22
ATOM     22  C   UNL     1      -0.380 -11.054  -2.031  0.00  0.00    -0.046 A 
ATOM     23  C   UNL     1      -1.561 -10.926  -2.739  0.00  0.00    +0.004 A 
ATOM     24  C   UNL     1      -1.559 -11.055  -4.115  0.00  0.00    +0.000 A 
ATOM     25  C   UNL     1      -0.377 -11.312  -4.783  0.00  0.00    +0.000 A 
ATOM     26  C   UNL     1       0.804 -11.440  -4.076  0.00  0.00    +0.000 A 
ATOM     27  C   UNL     1       0.803 -11.306  -2.700  0.00  0.00    +0.004 A 
ENDBRANCH  21  22
ENDBRANCH  20  21
ENDBRANCH  18  20
ENDBRANCH   3  16
BRANCH   3  28
ATOM     28  C   UNL     1      -0.032  -9.129   4.155  0.00  0.00    +0.108 C 
ATOM     29  N   UNL     1      -0.076 -10.054   4.812  0.00  0.00    -0.191 NA
ENDBRANCH   3  28
TORSDOF 7
