REMARK  Name = ZINC18777217
REMARK  6 active torsions:
REMARK  status: ('A' for Active; 'I' for Inactive)
REMARK    1  A    between atoms: C_1  and  C_2
REMARK    2  A    between atoms: C_5  and  N_9
REMARK    3  A    between atoms: C_13  and  S_14
REMARK    4  A    between atoms: S_14  and  C_15
REMARK    5  A    between atoms: C_15  and  C_16
REMARK    6  A    between atoms: C_29  and  C_31
REMARK                            x       y       z     vdW  Elec       q    Type
REMARK                         _______ _______ _______ _____ _____    ______ ____
ROOT
ATOM      1  C   UNL     1       1.984   3.586   0.002  0.00  0.00    +0.230 C 
ATOM      2  O   UNL     1       1.037   4.344   0.015  0.00  0.00    -0.274 OA
ATOM      3  N   UNL     1       3.240   4.076  -0.007  0.00  0.00    -0.266 N 
ATOM      4  C   UNL     1       4.343   3.211  -0.022  0.00  0.00    +0.058 A 
ATOM      5  C   UNL     1       4.660   2.491  -1.162  0.00  0.00    +0.025 A 
ATOM      6  C   UNL     1       5.766   1.661  -1.165  0.00  0.00    +0.002 A 
ATOM      7  C   UNL     1       6.556   1.547  -0.036  0.00  0.00    +0.002 A 
ATOM      8  C   UNL     1       6.241   2.256   1.109  0.00  0.00    +0.025 A 
ATOM      9  C   UNL     1       5.129   3.081   1.123  0.00  0.00    +0.055 A 
ATOM     10  N   UNL     1       4.758   3.765   2.287  0.00  0.00    -0.284 N 
ATOM     11  C   UNL     1       4.457   5.081   2.242  0.00  0.00    +0.219 C 
ATOM     12  O   UNL     1       4.058   5.643   3.240  0.00  0.00    -0.275 OA
ATOM     13  C   UNL     1       4.616   5.856   0.960  0.00  0.00    +0.118 C 
ATOM     14  C   UNL     1       3.476   5.521  -0.008  0.00  0.00    +0.087 C 
ATOM     15  C   UNL     1       3.852   5.974  -1.420  0.00  0.00    +0.029 C 
ATOM     16  H   UNL     1       4.716   3.291   3.132  0.00  0.00    +0.155 HD
ENDROOT
BRANCH   1  17
ATOM     17  C   UNL     1       1.756   2.096  -0.004  0.00  0.00    +0.173 C 
BRANCH  17  18
ATOM     18  S   UNL     1      -0.022   1.758   0.012  0.00  0.00    -0.076 S 
BRANCH  18  23
ATOM     19  N   UNL     1      -1.086  -0.833   0.008  0.00  0.00    -0.277 N 
ATOM     20  C   UNL     1      -0.581  -2.106  -0.004  0.00  0.00    +0.230 A 
ATOM     21  N   UNL     1       0.718  -2.007  -0.016  0.00  0.00    -0.137 NA
ATOM     22  N   UNL     1       1.068  -0.771  -0.018  0.00  0.00    -0.122 NA
ATOM     23  C   UNL     1       0.002  -0.004   0.002  0.00  0.00    +0.196 A 
BRANCH  19  28
ATOM     24  C   UNL     1      -6.556   0.687   0.064  0.00  0.00    +0.045 C 
ATOM     25  C   UNL     1      -5.104   0.283   0.050  0.00  0.00    -0.032 A 
ATOM     26  C   UNL     1      -4.653  -0.639  -0.877  0.00  0.00    +0.007 A 
ATOM     27  C   UNL     1      -3.323  -1.010  -0.893  0.00  0.00    +0.026 A 
ATOM     28  C   UNL     1      -2.438  -0.457   0.022  0.00  0.00    +0.051 A 
ATOM     29  C   UNL     1      -2.893   0.464   0.955  0.00  0.00    +0.046 A 
ATOM     30  C   UNL     1      -4.224   0.837   0.963  0.00  0.00    +0.046 A 
ATOM     31 CL   UNL     1      -4.794   1.994   2.125  0.00  0.00    -0.083 Cl
ENDBRANCH  19  28
ENDBRANCH  18  23
ENDBRANCH  17  18
ENDBRANCH   1  17
TORSDOF 4
