REMARK  Name = ZINC63698305
REMARK  7 active torsions:
REMARK  status: ('A' for Active; 'I' for Inactive)
REMARK    1  A    between atoms: C_1  and  C_2
REMARK    2  A    between atoms: C_2  and  C_3
REMARK    3  A    between atoms: C_6  and  C_9
REMARK    4  A    between atoms: C_9  and  N_10
REMARK    5  A    between atoms: C_11  and  C_13
REMARK    6  A    between atoms: C_19  and  C_21
REMARK    7  A    between atoms: C_23  and  C_32
REMARK                            x       y       z     vdW  Elec       q    Type
REMARK                         _______ _______ _______ _____ _____    ______ ____
ROOT
ATOM      1  C   UNL     1      -8.654   0.035   0.080  0.00  0.00    +0.078 C 
ATOM      2  C   UNL     1      -8.413   0.882   1.331  0.00  0.00    +0.032 C 
ATOM      3  C   UNL     1      -9.362   2.084   1.320  0.00  0.00    +0.108 C 
ATOM      4  N   UNL     1     -10.741   1.597   1.177  0.00  0.00    -0.300 N 
ATOM      5  C   UNL     1     -11.061   0.701   0.058  0.00  0.00    +0.108 C 
ATOM      6  C   UNL     1     -10.093  -0.486   0.084  0.00  0.00    +0.032 C 
ATOM      7  C   UNL     1     -11.694   1.965   2.057  0.00  0.00    +0.233 C 
ATOM      8  O   UNL     1     -12.845   1.626   1.881  0.00  0.00    -0.274 OA
ENDROOT
BRANCH   7   9
ATOM      9  C   UNL     1     -11.328   2.797   3.259  0.00  0.00    +0.165 C 
ATOM     10  C   UNL     1     -12.538   3.525   3.801  0.00  0.00    -0.036 C 
ATOM     11  C   UNL     1     -12.928   3.239   5.052  0.00  0.00    +0.071 C 
ATOM     12  C   UNL     1     -12.145   2.235   5.804  0.00  0.00    +0.112 C 
ATOM     13  N   UNL     1     -12.477   1.915   7.032  0.00  0.00    -0.231 NA
ATOM     14  C   UNL     1     -13.515   2.474   7.634  0.00  0.00    +0.212 C 
ATOM     15  N   UNL     1     -14.280   3.375   7.066  0.00  0.00    -0.165 NA
ATOM     16  C   UNL     1     -14.081   3.812   5.819  0.00  0.00    +0.271 C 
ATOM     17  O   UNL     1     -14.812   4.652   5.321  0.00  0.00    -0.268 OA
ATOM     18  S   UNL     1     -10.864   1.730   4.682  0.00  0.00    -0.088 S 
ATOM     19  C   UNL     1     -13.279   4.536   2.965  0.00  0.00    +0.041 C 
ENDBRANCH   7   9
BRANCH   1  21
ATOM     20  N   UNL     1      -6.368  -0.911   0.067  0.00  0.00    -0.311 N 
ATOM     21  C   UNL     1      -7.698  -1.131   0.071  0.00  0.00    +0.216 C 
ATOM     22  O   UNL     1      -8.126  -2.265   0.068  0.00  0.00    -0.276 OA
ATOM     23  H   UNL     1      -6.026  -0.004   0.069  0.00  0.00    +0.149 HD
BRANCH  20  24
ATOM     24  C   UNL     1      -5.439  -2.044   0.058  0.00  0.00    +0.139 C 
BRANCH  24  28
ATOM     25  C   UNL     1      -1.422  -0.594   0.048  0.00  0.00    -0.048 A 
ATOM     26  C   UNL     1      -2.067  -0.833   1.246  0.00  0.00    +0.004 A 
ATOM     27  C   UNL     1      -3.367  -1.302   1.250  0.00  0.00    +0.005 A 
ATOM     28  C   UNL     1      -4.022  -1.532   0.054  0.00  0.00    -0.030 A 
ATOM     29  C   UNL     1      -3.377  -1.292  -1.144  0.00  0.00    +0.005 A 
ATOM     30  C   UNL     1      -2.078  -0.819  -1.148  0.00  0.00    +0.004 A 
BRANCH  25  32
ATOM     31  C   UNL     1      -0.014   1.448   0.056  0.00  0.00    +0.009 C 
ATOM     32  C   UNL     1      -0.004  -0.082   0.044  0.00  0.00    +0.032 C 
ENDBRANCH  25  32
ENDBRANCH  24  28
ENDBRANCH  20  24
ENDBRANCH   1  21
TORSDOF 5
