REMARK  Name = ZINC51733134
REMARK  4 active torsions:
REMARK  status: ('A' for Active; 'I' for Inactive)
REMARK    1  A    between atoms: C_1  and  C_2
REMARK    2  A    between atoms: N_6  and  C_11
REMARK    3  A    between atoms: C_7  and  C_10
REMARK    4  A    between atoms: C_12  and  C_19
REMARK                            x       y       z     vdW  Elec       q    Type
REMARK                         _______ _______ _______ _____ _____    ______ ____
ROOT
ATOM      1  C   UNL     1      -0.754  -3.881   1.410  0.00  0.00    +0.140 A 
ATOM      2  C   UNL     1      -1.329  -4.608   2.437  0.00  0.00    +0.176 A 
ATOM      3  N   UNL     1      -1.140  -5.968   2.129  0.00  0.00    -0.286 N 
ATOM      4  C   UNL     1      -1.440  -7.190   2.681  0.00  0.00    +0.101 A 
ATOM      5  C   UNL     1      -1.081  -8.321   2.071  0.00  0.00    +0.067 A 
ATOM      6  S   UNL     1      -0.259  -7.700   0.612  0.00  0.00    -0.058 S 
ATOM      7  C   UNL     1      -0.469  -5.966   0.947  0.00  0.00    +0.180 A 
ATOM      8  N   UNL     1      -0.254  -4.741   0.533  0.00  0.00    -0.207 NA
ENDROOT
BRANCH   1  13
ATOM      9  C   UNL     1      -0.019   1.526   0.010  0.00  0.00    +0.007 C 
ATOM     10  C   UNL     1       0.002  -0.004   0.002  0.00  0.00    -0.011 C 
ATOM     11  C   UNL     1      -1.434  -0.536   0.017  0.00  0.00    +0.020 C 
ATOM     12  C   UNL     1      -1.405  -2.064   0.089  0.00  0.00    +0.087 C 
ATOM     13  N   UNL     1      -0.713  -2.487   1.312  0.00  0.00    -0.376 NA
ATOM     14  C   UNL     1       0.685  -2.042   1.272  0.00  0.00    +0.054 C 
ATOM     15  C   UNL     1       0.739  -0.513   1.244  0.00  0.00    +0.024 C 
ATOM     16  C   UNL     1       1.419  -2.555   2.512  0.00  0.00    +0.026 C 
ATOM     17  H   UNL     1      -1.171  -2.082   2.114  0.00  0.00    +0.128 HD
ENDBRANCH   1  13
BRANCH   2  18
ATOM     18  C   UNL     1      -1.980  -4.086   3.573  0.00  0.00    +0.406 C 
ATOM     19  O   UNL     1      -2.490  -4.912   4.487  0.00  0.00    -0.239 OA
ATOM     20  O   UNL     1      -2.084  -2.768   3.735  0.00  0.00    -0.239 OA
ENDBRANCH   2  18
TORSDOF 2
