REMARK  Name = ZINC09819868
REMARK  2 active torsions:
REMARK  status: ('A' for Active; 'I' for Inactive)
REMARK    1  A    between atoms: C_8  and  C_23
REMARK    2  A    between atoms: C_11  and  C_13
REMARK                            x       y       z     vdW  Elec       q    Type
REMARK                         _______ _______ _______ _____ _____    ______ ____
ROOT
ATOM      1  C   UNL     1       3.100  -2.728  -0.476  0.00  0.00    +0.000 A 
ATOM      2  C   UNL     1       3.433  -1.385  -0.462  0.00  0.00    +0.002 A 
ATOM      3  C   UNL     1       2.452  -0.428  -0.320  0.00  0.00    +0.024 A 
ATOM      4  C   UNL     1       1.114  -0.805  -0.191  0.00  0.00    +0.040 A 
ATOM      5  C   UNL     1       0.790  -2.152  -0.202  0.00  0.00    -0.024 A 
ATOM      6  C   UNL     1       1.778  -3.109  -0.337  0.00  0.00    +0.005 A 
ATOM      7  C   UNL     1      -0.708  -2.288  -0.053  0.00  0.00    +0.069 C 
ATOM      8  C   UNL     1      -1.220  -0.842   0.052  0.00  0.00    +0.171 C 
ATOM      9  N   UNL     1      -0.022  -0.003  -0.039  0.00  0.00    -0.258 N 
ATOM     10  C   UNL     1      -0.016   1.344   0.009  0.00  0.00    +0.227 C 
ATOM     11  O   UNL     1      -1.063   1.952   0.086  0.00  0.00    -0.275 OA
ENDROOT
BRANCH  10  12
ATOM     12  C   UNL     1       1.290   2.094  -0.037  0.00  0.00    +0.048 C 
ATOM     13  C   UNL     1       1.982   1.830  -1.375  0.00  0.00    +0.019 C 
ATOM     14  C   UNL     1       3.308   2.592  -1.423  0.00  0.00    -0.009 C 
ATOM     15  C   UNL     1       3.041   4.091  -1.273  0.00  0.00    +0.007 C 
ATOM     16  C   UNL     1       2.349   4.354   0.066  0.00  0.00    -0.009 C 
ATOM     17  C   UNL     1       1.023   3.593   0.113  0.00  0.00    +0.019 C 
ATOM     18  C   UNL     1       3.250   3.881   1.208  0.00  0.00    +0.007 C 
ATOM     19  C   UNL     1       3.517   2.382   1.058  0.00  0.00    -0.009 C 
ATOM     20  C   UNL     1       4.210   2.118  -0.280  0.00  0.00    +0.007 C 
ATOM     21  C   UNL     1       2.191   1.620   1.105  0.00  0.00    +0.019 C 
ENDBRANCH  10  12
BRANCH   8  22
ATOM     22  C   UNL     1      -1.909  -0.627   1.375  0.00  0.00    +0.232 C 
ATOM     23  O   UNL     1      -1.449   0.156   2.178  0.00  0.00    -0.274 OA
ATOM     24  N   UNL     1      -3.037  -1.305   1.665  0.00  0.00    -0.328 N 
ATOM     25  H   UNL     1      -3.405  -1.931   1.023  0.00  0.00    +0.145 HD
ATOM     26  H   UNL     1      -3.481  -1.166   2.517  0.00  0.00    +0.145 HD
ENDBRANCH   8  22
TORSDOF 2
