REMARK  Name = ZINC58338060
REMARK  13 active torsions:
REMARK  status: ('A' for Active; 'I' for Inactive)
REMARK    1  A    between atoms: C_1  and  C_2
REMARK    2  A    between atoms: C_3  and  C_28
REMARK    3  A    between atoms: C_4  and  C_27
REMARK    4  A    between atoms: C_5  and  S_10
REMARK    5  A    between atoms: C_6  and  C_9
REMARK    6  A    between atoms: C_7  and  C_8
REMARK    7  A    between atoms: S_10  and  N_13
REMARK    8  A    between atoms: C_19  and  C_21
REMARK    9  A    between atoms: C_21  and  N_22
REMARK   10  A    between atoms: N_22  and  C_23
REMARK   11  A    between atoms: N_22  and  C_24
REMARK   12  A    between atoms: C_24  and  C_25
REMARK   13  A    between atoms: C_24  and  C_26
REMARK                            x       y       z     vdW  Elec       q    Type
REMARK                         _______ _______ _______ _____ _____    ______ ____
ROOT
ATOM      1  N   UNL     1       0.271  -5.450   0.369  0.00  0.00    -0.174 NA
ATOM      2  C   UNL     1       0.824  -6.134  -0.809  0.00  0.00    +0.128 C 
ATOM      3  C   UNL     1       2.340  -5.908  -0.840  0.00  0.00    +0.125 C 
ATOM      4  N   UNL     1       2.890  -6.226   0.485  0.00  0.00    -0.300 N 
ATOM      5  C   UNL     1       2.337  -5.542   1.663  0.00  0.00    +0.125 C 
ATOM      6  C   UNL     1       0.825  -5.764   1.694  0.00  0.00    +0.128 C 
ATOM      7  C   UNL     1       3.882  -7.128   0.618  0.00  0.00    +0.199 C 
ATOM      8  O   UNL     1       4.330  -7.686  -0.361  0.00  0.00    -0.278 OA
ENDROOT
BRANCH   1   9
ATOM      9  S   UNL     1      -0.948  -4.342   0.205  0.00  0.00    +0.061 S 
ATOM     10  O   UNL     1      -1.660  -4.337   1.435  0.00  0.00    -0.153 OA
ATOM     11  O   UNL     1      -1.579  -4.613  -1.039  0.00  0.00    -0.153 OA
BRANCH   9  16
ATOM     12  C   UNL     1       1.637   1.085  -0.315  0.00  0.00    +0.044 C 
ATOM     13  C   UNL     1       0.992  -0.271  -0.185  0.00  0.00    -0.044 A 
ATOM     14  C   UNL     1       0.623  -0.744   1.060  0.00  0.00    -0.043 A 
ATOM     15  C   UNL     1       0.030  -1.987   1.179  0.00  0.00    -0.021 A 
ATOM     16  C   UNL     1      -0.194  -2.757   0.053  0.00  0.00    +0.112 A 
ATOM     17  C   UNL     1       0.174  -2.283  -1.192  0.00  0.00    -0.021 A 
ATOM     18  C   UNL     1       0.763  -1.038  -1.312  0.00  0.00    -0.043 A 
ATOM     19  C   UNL     1       1.159  -0.519  -2.670  0.00  0.00    +0.044 C 
ATOM     20  C   UNL     1      -0.070  -3.122  -2.420  0.00  0.00    +0.046 C 
ATOM     21  C   UNL     1      -0.371  -2.504   2.537  0.00  0.00    +0.046 C 
ATOM     22  C   UNL     1       0.867   0.095   2.288  0.00  0.00    +0.044 C 
ENDBRANCH   9  16
ENDBRANCH   1   9
BRANCH   7  23
ATOM     23  C   UNL     1       4.436  -7.444   1.984  0.00  0.00    +0.019 C 
BRANCH  23  24
ATOM     24  N   UNL     1       5.499  -8.449   1.861  0.00  0.00    +0.385 N 
ATOM     25  C   UNL     1       4.926  -9.711   1.373  0.00  0.00    -0.095 C 
ATOM     26  H   UNL     1       6.197  -8.123   1.210  0.00  0.00    -0.081 HD
BRANCH  24  27
ATOM     27  C   UNL     1       6.120  -8.669   3.174  0.00  0.00    -0.075 C 
ATOM     28  C   UNL     1       7.228  -9.716   3.046  0.00  0.00    -0.014 C 
ATOM     29  C   UNL     1       6.716  -7.355   3.683  0.00  0.00    -0.014 C 
ENDBRANCH  24  27
ENDBRANCH  23  24
ENDBRANCH   7  23
TORSDOF 5
