REMARK  Name = ZINC15064368
REMARK  9 active torsions:
REMARK  status: ('A' for Active; 'I' for Inactive)
REMARK    1  A    between atoms: C_1  and  C_2
REMARK    2  A    between atoms: C_2  and  N_3
REMARK    3  A    between atoms: N_3  and  C_4
REMARK    4  A    between atoms: C_4  and  C_5
REMARK    5  A    between atoms: C_6  and  C_8
REMARK    6  A    between atoms: C_15  and  C_17
REMARK    7  A    between atoms: C_18  and  C_28
REMARK    8  A    between atoms: C_22  and  C_27
REMARK    9  A    between atoms: C_23  and  C_26
REMARK                            x       y       z     vdW  Elec       q    Type
REMARK                         _______ _______ _______ _____ _____    ______ ____
ROOT
ATOM      1  C   UNL     1      -2.087  -3.967  -1.453  0.00  0.00    +0.092 C 
ATOM      2  C   UNL     1      -0.771  -4.710  -1.692  0.00  0.00    +0.016 C 
ATOM      3  C   UNL     1       0.390  -3.712  -1.678  0.00  0.00    +0.020 C 
ATOM      4  C   UNL     1       0.458  -3.034  -0.311  0.00  0.00    +0.108 C 
ATOM      5  N   UNL     1      -0.851  -2.442  -0.004  0.00  0.00    -0.294 N 
ATOM      6  C   UNL     1      -2.046  -3.293  -0.078  0.00  0.00    +0.121 C 
ATOM      7  C   UNL     1      -0.954  -1.141   0.332  0.00  0.00    +0.282 C 
ATOM      8  O   UNL     1      -2.035  -0.676   0.642  0.00  0.00    -0.267 OA
ENDROOT
BRANCH   7   9
ATOM      9  C   UNL     1       0.239  -0.283   0.325  0.00  0.00    +0.194 A 
ATOM     10  C   UNL     1       0.234   1.065   0.495  0.00  0.00    +0.008 A 
ATOM     11  C   UNL     1       1.631   1.489   0.412  0.00  0.00    +0.024 A 
ATOM     12  C   UNL     1       2.282   2.722   0.505  0.00  0.00    +0.012 A 
ATOM     13  C   UNL     1       3.641   2.781   0.381  0.00  0.00    +0.004 A 
ATOM     14  C   UNL     1       4.379   1.625   0.164  0.00  0.00    -0.044 A 
ATOM     15  C   UNL     1       3.756   0.399   0.070  0.00  0.00    -0.005 A 
ATOM     16  C   UNL     1       2.374   0.314   0.193  0.00  0.00    +0.139 A 
ATOM     17  O   UNL     1       1.505  -0.715   0.148  0.00  0.00    -0.450 OA
ATOM     18  C   UNL     1       4.572  -0.846  -0.166  0.00  0.00    +0.048 C 
ATOM     19  C   UNL     1       5.877   1.712   0.031  0.00  0.00    +0.044 C 
ATOM     20  C   UNL     1      -0.969   1.946   0.716  0.00  0.00    +0.048 C 
ENDBRANCH   7   9
BRANCH   1  22
ATOM     21  N   UNL     1      -4.494  -4.500  -1.664  0.00  0.00    -0.302 N 
ATOM     22  C   UNL     1      -3.232  -4.946  -1.499  0.00  0.00    +0.220 C 
ATOM     23  O   UNL     1      -3.019  -6.135  -1.388  0.00  0.00    -0.275 OA
BRANCH  21  25
ATOM     24  C   UNL     1      -6.248  -5.714  -0.468  0.00  0.00    +0.024 C 
ATOM     25  C   UNL     1      -5.593  -5.455  -1.826  0.00  0.00    +0.104 C 
ENDBRANCH  21  25
BRANCH  21  26
ATOM     26  C   UNL     1      -4.765  -3.060  -1.681  0.00  0.00    +0.104 C 
ATOM     27  C   UNL     1      -4.791  -2.563  -3.128  0.00  0.00    +0.024 C 
ENDBRANCH  21  26
ENDBRANCH   1  22
TORSDOF 4
