REMARK  Name = ZINC58418756
REMARK  3 active torsions:
REMARK  status: ('A' for Active; 'I' for Inactive)
REMARK    1  A    between atoms: C_1  and  N_2
REMARK    2  A    between atoms: C_3  and  C_7
REMARK    3  A    between atoms: N_9  and  C_10
REMARK                            x       y       z     vdW  Elec       q    Type
REMARK                         _______ _______ _______ _____ _____    ______ ____
ROOT
ATOM      1  C   UNL     1       0.214  -0.327  -2.510  0.00  0.00    +0.262 C 
ATOM      2  O   UNL     1       0.146  -1.130  -3.421  0.00  0.00    -0.269 OA
ATOM      3  N   UNL     1       0.383   0.983  -2.776  0.00  0.00    -0.305 N 
ATOM      4  H   UNL     1       0.505   1.614  -2.050  0.00  0.00    +0.150 HD
ENDROOT
BRANCH   3   5
ATOM      5  C   UNL     1       0.382   1.454  -4.163  0.00  0.00    +0.036 C 
ATOM      6  C   UNL     1      -0.960   1.114  -4.816  0.00  0.00    +0.029 C 
ATOM      7  C   UNL     1      -0.961   1.606  -6.265  0.00  0.00    -0.008 C 
ATOM      8  C   UNL     1      -0.752   3.122  -6.289  0.00  0.00    +0.007 C 
ATOM      9  C   UNL     1       0.589   3.462  -5.636  0.00  0.00    -0.008 C 
ATOM     10  C   UNL     1       0.591   2.970  -4.187  0.00  0.00    +0.029 C 
ATOM     11  C   UNL     1       1.720   2.779  -6.408  0.00  0.00    +0.007 C 
ATOM     12  C   UNL     1       1.511   1.263  -6.384  0.00  0.00    -0.008 C 
ATOM     13  C   UNL     1       0.170   0.923  -7.037  0.00  0.00    +0.007 C 
ATOM     14  C   UNL     1       1.512   0.771  -4.935  0.00  0.00    +0.029 C 
ENDBRANCH   3   5
BRANCH   1  17
ATOM     15  C   UNL     1       0.069  -3.263  -1.546  0.00  0.00    +0.173 C 
ATOM     16  N   UNL     1       0.046  -2.081  -0.681  0.00  0.00    -0.262 N 
ATOM     17  C   UNL     1       0.111  -0.787  -1.115  0.00  0.00    +0.123 A 
ATOM     18  C   UNL     1       0.060   0.005   0.019  0.00  0.00    +0.054 A 
ATOM     19  C   UNL     1      -0.034  -0.888   1.089  0.00  0.00    +0.135 A 
ATOM     20  N   UNL     1      -0.042  -2.102   0.600  0.00  0.00    -0.179 NA
ENDBRANCH   1  17
TORSDOF 2
