REMARK  Name = ZINC67430210
REMARK  7 active torsions:
REMARK  status: ('A' for Active; 'I' for Inactive)
REMARK    1  A    between atoms: C_1  and  C_2
REMARK    2  A    between atoms: C_5  and  C_9
REMARK    3  A    between atoms: C_14  and  C_16
REMARK    4  A    between atoms: C_20  and  S_22
REMARK    5  A    between atoms: S_22  and  N_25
REMARK    6  A    between atoms: N_25  and  C_26
REMARK    7  A    between atoms: N_25  and  C_27
REMARK                            x       y       z     vdW  Elec       q    Type
REMARK                         _______ _______ _______ _____ _____    ______ ____
ROOT
ATOM      1  C   UNL     1       0.058  -4.243  -0.024  0.00  0.00    +0.043 C 
ATOM      2  C   UNL     1       0.177  -4.938   1.159  0.00  0.00    +0.152 C 
ATOM      3  C   UNL     1       0.188  -4.382   2.526  0.00  0.00    +0.364 C 
ATOM      4  O   UNL     1       0.093  -3.213   2.849  0.00  0.00    -0.243 OA
ATOM      5  O   UNL     1       0.324  -5.449   3.342  0.00  0.00    -0.402 OA
ATOM      6  C   UNL     1       0.394  -6.563   2.587  0.00  0.00    +0.232 C 
ATOM      7  N   UNL     1       0.304  -6.287   1.315  0.00  0.00    -0.205 NA
ENDROOT
BRANCH   1  12
ATOM      8  C   UNL     1       0.282   1.499  -0.014  0.00  0.00    +0.047 C 
ATOM      9  C   UNL     1       0.222  -0.007  -0.017  0.00  0.00    -0.015 A 
ATOM     10  C   UNL     1       1.033  -0.729   0.842  0.00  0.00    +0.007 A 
ATOM     11  C   UNL     1       0.986  -2.107   0.846  0.00  0.00    +0.008 A 
ATOM     12  C   UNL     1       0.114  -2.777  -0.022  0.00  0.00    -0.020 A 
ATOM     13  C   UNL     1      -0.704  -2.040  -0.888  0.00  0.00    +0.046 A 
ATOM     14  C   UNL     1      -0.648  -0.661  -0.875  0.00  0.00    +0.127 A 
ATOM     15  F   UNL     1      -1.439   0.053  -1.706  0.00  0.00    -0.205 F 
ENDBRANCH   1  12
BRANCH   6  16
ATOM     16  C   UNL     1       0.546  -7.927   3.132  0.00  0.00    +0.039 A 
ATOM     17  C   UNL     1       0.615  -9.024   2.270  0.00  0.00    +0.013 A 
ATOM     18  C   UNL     1       0.758 -10.294   2.786  0.00  0.00    +0.003 A 
ATOM     19  C   UNL     1       0.832 -10.485   4.155  0.00  0.00    +0.028 A 
ATOM     20  C   UNL     1       0.764  -9.403   5.015  0.00  0.00    +0.106 A 
ATOM     21  C   UNL     1       0.627  -8.126   4.512  0.00  0.00    +0.041 A 
BRANCH  20  22
ATOM     22  S   UNL     1       0.860  -9.657   6.756  0.00  0.00    +0.060 S 
ATOM     23  O   UNL     1       0.224  -8.541   7.364  0.00  0.00    -0.153 OA
ATOM     24  O   UNL     1       0.443 -10.995   6.994  0.00  0.00    -0.153 OA
BRANCH  22  25
ATOM     25  N   UNL     1       2.460  -9.578   7.175  0.00  0.00    -0.183 NA
ATOM     26  C   UNL     1       3.056  -8.293   7.549  0.00  0.00    +0.131 C 
ATOM     27  C   UNL     1       3.279 -10.792   7.172  0.00  0.00    +0.131 C 
ENDBRANCH  22  25
ENDBRANCH  20  22
ENDBRANCH   6  16
TORSDOF 4
