REMARK  Name = ZINC22418608
REMARK  11 active torsions:
REMARK  status: ('A' for Active; 'I' for Inactive)
REMARK    1  A    between atoms: C_1  and  N_2
REMARK    2  A    between atoms: N_5  and  C_8
REMARK    3  A    between atoms: C_8  and  C_10
REMARK    4  A    between atoms: C_8  and  C_24
REMARK    5  A    between atoms: C_10  and  N_11
REMARK    6  A    between atoms: N_14  and  C_15
REMARK    7  A    between atoms: C_20  and  O_21
REMARK    8  A    between atoms: O_21  and  C_22
REMARK    9  A    between atoms: C_27  and  N_30
REMARK   10  A    between atoms: N_30  and  C_31
REMARK   11  A    between atoms: N_30  and  C_32
REMARK                            x       y       z     vdW  Elec       q    Type
REMARK                         _______ _______ _______ _____ _____    ______ ____
ROOT
ATOM      1  C   UNL     1      -2.181   0.585   0.375  0.00  0.00    +0.104 C 
ENDROOT
BRANCH   1   6
ATOM      2  C   UNL     1      -2.796  -4.707   2.251  0.00  0.00    -0.096 C 
ATOM      3  N   UNL     1      -2.816  -3.258   2.009  0.00  0.00    +0.379 N 
ATOM      4  C   UNL     1      -1.463  -2.692   2.087  0.00  0.00    -0.064 C 
ATOM      5  C   UNL     1      -1.537  -1.173   1.910  0.00  0.00    +0.066 C 
ATOM      6  N   UNL     1      -2.160  -0.864   0.616  0.00  0.00    -0.297 NA
ATOM      7  C   UNL     1      -3.514  -1.430   0.538  0.00  0.00    +0.066 C 
ATOM      8  C   UNL     1      -3.440  -2.949   0.715  0.00  0.00    -0.064 C 
ATOM      9  H   UNL     1      -3.425  -2.794   2.800  0.00  0.00    -0.082 HD
ENDBRANCH   1   6
BRANCH   1  10
ATOM     10  C   UNL     1      -3.422   1.179   0.990  0.00  0.00    -0.029 A 
ATOM     11  C   UNL     1      -3.562   1.211   2.366  0.00  0.00    +0.007 A 
ATOM     12  C   UNL     1      -4.695   1.760   2.933  0.00  0.00    +0.023 A 
ATOM     13  C   UNL     1      -5.700   2.269   2.120  0.00  0.00    +0.029 A 
ATOM     14  C   UNL     1      -5.559   2.230   0.739  0.00  0.00    +0.023 A 
ATOM     15  C   UNL     1      -4.420   1.685   0.178  0.00  0.00    +0.007 A 
BRANCH  13  16
ATOM     16  N   UNL     1      -6.850   2.819   2.691  0.00  0.00    -0.336 N 
ATOM     17  C   UNL     1      -7.963   3.241   1.836  0.00  0.00    +0.129 C 
ATOM     18  C   UNL     1      -6.945   2.975   4.145  0.00  0.00    +0.129 C 
ENDBRANCH  13  16
ENDBRANCH   1  10
BRANCH   1  19
ATOM     19  C   UNL     1      -0.943   1.225   1.005  0.00  0.00    +0.129 C 
BRANCH  19  20
ATOM     20  N   UNL     1       0.263   0.659   0.396  0.00  0.00    -0.297 N 
ATOM     21  C   UNL     1       1.477   1.143   0.728  0.00  0.00    +0.304 C 
ATOM     22  O   UNL     1       1.571   2.044   1.538  0.00  0.00    -0.253 OA
ATOM     23  N   UNL     1       2.586   0.626   0.163  0.00  0.00    -0.266 N 
ATOM     24  H   UNL     1       0.178  -0.160  -0.334  0.00  0.00    +0.150 HD
ATOM     25  H   UNL     1       2.497  -0.129  -0.633  0.00  0.00    +0.156 HD
BRANCH  23  26
ATOM     26  C   UNL     1       3.852   1.050   0.590  0.00  0.00    +0.078 A 
ATOM     27  C   UNL     1       4.003   1.646   1.833  0.00  0.00    +0.047 A 
ATOM     28  C   UNL     1       5.254   2.063   2.251  0.00  0.00    +0.043 A 
ATOM     29  C   UNL     1       6.355   1.886   1.433  0.00  0.00    +0.024 A 
ATOM     30  C   UNL     1       6.211   1.292   0.193  0.00  0.00    +0.049 A 
ATOM     31  C   UNL     1       4.962   0.867  -0.232  0.00  0.00    +0.141 A 
ATOM     32 CL   UNL     1       5.442   2.810   3.807  0.00  0.00    -0.083 Cl
BRANCH  31  33
ATOM     33  O   UNL     1       4.820   0.278  -1.449  0.00  0.00    -0.493 OA
ATOM     34  C   UNL     1       6.002   0.123  -2.237  0.00  0.00    +0.277 C 
ENDBRANCH  31  33
ENDBRANCH  23  26
ENDBRANCH  19  20
ENDBRANCH   1  19
TORSDOF 7
