REMARK  Name = ZINC54811911
REMARK  6 active torsions:
REMARK  status: ('A' for Active; 'I' for Inactive)
REMARK    1  A    between atoms: C_1  and  C_2
REMARK    2  A    between atoms: C_11  and  O_13
REMARK    3  A    between atoms: O_13  and  C_14
REMARK    4  A    between atoms: C_14  and  C_16
REMARK    5  A    between atoms: C_16  and  N_17
REMARK    6  A    between atoms: N_20  and  C_21
REMARK                            x       y       z     vdW  Elec       q    Type
REMARK                         _______ _______ _______ _____ _____    ______ ____
ROOT
ATOM      1  C   UNL     1       0.001  -4.287   4.667  0.00  0.00    +0.330 C 
ATOM      2  O   UNL     1       0.000  -4.826   3.585  0.00  0.00    -0.249 OA
ENDROOT
BRANCH   1   3
ATOM      3  O   UNL     1       0.087  -2.950   4.751  0.00  0.00    -0.423 OA
BRANCH   3  14
ATOM      4  C   UNL     1      -1.351   0.316  -0.687  0.00  0.00    +0.045 C 
ATOM      5  C   UNL     1      -0.051  -0.008   0.001  0.00  0.00    -0.033 A 
ATOM      6  C   UNL     1       1.134   0.413  -0.513  0.00  0.00    +0.096 A 
ATOM      7  C   UNL     1       2.338   0.098   0.150  0.00  0.00    +0.337 A 
ATOM      8  O   UNL     1       3.393   0.482  -0.321  0.00  0.00    -0.245 OA
ATOM      9  O   UNL     1       2.351  -0.615   1.288  0.00  0.00    -0.422 OA
ATOM     10  C   UNL     1       1.208  -1.063   1.851  0.00  0.00    +0.143 A 
ATOM     11  C   UNL     1      -0.030  -0.779   1.246  0.00  0.00    +0.022 A 
ATOM     12  C   UNL     1      -1.216  -1.238   1.829  0.00  0.00    +0.035 A 
ATOM     13  C   UNL     1      -1.168  -1.956   2.990  0.00  0.00    +0.084 A 
ATOM     14  C   UNL     1       0.055  -2.235   3.597  0.00  0.00    +0.153 A 
ATOM     15  C   UNL     1       1.240  -1.799   3.026  0.00  0.00    +0.094 A 
ATOM     16 CL   UNL     1      -2.640  -2.525   3.714  0.00  0.00    -0.080 Cl
ENDBRANCH   3  14
ENDBRANCH   1   3
BRANCH   1  17
ATOM     17  C   UNL     1      -0.094  -5.117   5.922  0.00  0.00    +0.226 C 
BRANCH  17  18
ATOM     18  N   UNL     1      -0.176  -6.535   5.564  0.00  0.00    -0.289 N 
ATOM     19  C   UNL     1      -0.269  -7.470   6.531  0.00  0.00    +0.300 C 
ATOM     20  O   UNL     1      -0.284  -7.135   7.700  0.00  0.00    -0.253 OA
ATOM     21  N   UNL     1      -0.344  -8.774   6.202  0.00  0.00    -0.297 N 
ATOM     22  H   UNL     1      -0.164  -6.802   4.632  0.00  0.00    +0.151 HD
ATOM     23  H   UNL     1      -0.332  -9.041   5.270  0.00  0.00    +0.151 HD
BRANCH  21  24
ATOM     24  C   UNL     1      -0.445  -9.790   7.253  0.00  0.00    +0.074 C 
ATOM     25  C   UNL     1       0.957 -10.148   7.753  0.00  0.00    +0.022 C 
ATOM     26  C   UNL     1       0.851 -11.209   8.850  0.00  0.00    +0.002 C 
ATOM     27  C   UNL     1       0.175 -12.460   8.287  0.00  0.00    +0.000 C 
ATOM     28  C   UNL     1      -1.226 -12.102   7.787  0.00  0.00    +0.002 C 
ATOM     29  C   UNL     1      -1.121 -11.042   6.690  0.00  0.00    +0.022 C 
ENDBRANCH  21  24
ENDBRANCH  17  18
ENDBRANCH   1  17
TORSDOF 5
