REMARK  Name = ZINC12027965
REMARK  13 active torsions:
REMARK  status: ('A' for Active; 'I' for Inactive)
REMARK    1  A    between atoms: C_1  and  C_2
REMARK    2  A    between atoms: C_2  and  C_25
REMARK    3  A    between atoms: C_4  and  C_16
REMARK    4  A    between atoms: C_6  and  C_9
REMARK    5  A    between atoms: C_8  and  N_56
REMARK    6  A    between atoms: N_18  and  C_19
REMARK    7  A    between atoms: C_19  and  C_20
REMARK    8  A    between atoms: C_20  and  C_21
REMARK    9  A    between atoms: C_20  and  C_22
REMARK   10  A    between atoms: C_20  and  C_23
REMARK   11  A    between atoms: C_23  and  O_24
REMARK   12  A    between atoms: C_25  and  O_27
REMARK   13  A    between atoms: O_27  and  C_28
REMARK                            x       y       z     vdW  Elec       q    Type
REMARK                         _______ _______ _______ _____ _____    ______ ____
ROOT
ATOM      1  C   UNL     1      -2.391   0.136  -2.210  0.00  0.00    +0.002 C 
ATOM      2  C   UNL     1      -1.085   0.933  -2.239  0.00  0.00    +0.032 C 
ATOM      3  C   UNL     1      -1.105   2.014  -1.142  0.00  0.00    +0.010 C 
ATOM      4  C   UNL     1       0.069   1.657  -0.202  0.00  0.00    +0.065 C 
ATOM      5  C   UNL     1       0.299   0.151  -0.483  0.00  0.00    -0.025 C 
ATOM      6  C   UNL     1      -0.248  -1.346  -2.327  0.00  0.00    -0.094 C 
ATOM      7  N   UNL     1       0.056   0.062  -1.930  0.00  0.00    +0.394 N 
ATOM      8  H   UNL     1       0.887   0.384  -2.440  0.00  0.00    -0.080 HD
ENDROOT
BRANCH   5   9
ATOM      9  C   UNL     1       1.712  -0.245  -0.142  0.00  0.00    -0.060 A 
ATOM     10  C   UNL     1       1.996  -0.798   1.093  0.00  0.00    +0.003 A 
ATOM     11  C   UNL     1       3.291  -1.166   1.405  0.00  0.00    +0.020 A 
ATOM     12  C   UNL     1       4.306  -0.970   0.485  0.00  0.00    +0.041 A 
ATOM     13  C   UNL     1       4.022  -0.412  -0.749  0.00  0.00    +0.020 A 
ATOM     14  C   UNL     1       2.726  -0.049  -1.061  0.00  0.00    +0.003 A 
ATOM     15 CL   UNL     1       5.934  -1.427   0.878  0.00  0.00    -0.084 Cl
ENDBRANCH   5   9
BRANCH   4  16
ATOM     16  C   UNL     1       1.296   2.458  -0.554  0.00  0.00    +0.215 C 
ATOM     17  O   UNL     1       1.518   2.751  -1.710  0.00  0.00    -0.276 OA
ATOM     18  N   UNL     1       2.147   2.849   0.415  0.00  0.00    -0.315 N 
ATOM     19  H   UNL     1       1.970   2.614   1.339  0.00  0.00    +0.149 HD
BRANCH  18  20
ATOM     20  C   UNL     1       3.340   3.628   0.073  0.00  0.00    +0.112 C 
BRANCH  20  21
ATOM     21  C   UNL     1       4.129   3.939   1.346  0.00  0.00    +0.004 C 
ATOM     22  C   UNL     1       3.251   4.745   2.305  0.00  0.00    +0.015 C 
ATOM     23  C   UNL     1       4.550   2.630   2.018  0.00  0.00    +0.015 C 
BRANCH  21  24
ATOM     24  C   UNL     1       5.374   4.752   0.989  0.00  0.00    +0.163 C 
BRANCH  24  25
ATOM     25  O   UNL     1       6.111   5.043   2.178  0.00  0.00    -0.394 OA
ATOM     26  H   UNL     1       6.915   5.557   2.026  0.00  0.00    +0.209 HD
ENDBRANCH  24  25
ENDBRANCH  21  24
ENDBRANCH  20  21
ENDBRANCH  18  20
ENDBRANCH   4  16
BRANCH   2  27
ATOM     27  C   UNL     1      -0.906   1.576  -3.590  0.00  0.00    +0.296 C 
ATOM     28  O   UNL     1      -1.246   2.722  -3.763  0.00  0.00    -0.252 OA
BRANCH  27  29
ATOM     29  O   UNL     1      -0.369   0.875  -4.601  0.00  0.00    -0.469 OA
ATOM     30  C   UNL     1      -0.227   1.558  -5.875  0.00  0.00    +0.280 C 
ENDBRANCH  27  29
ENDBRANCH   2  27
TORSDOF 8
