REMARK  Name = ZINC64029372
REMARK  5 active torsions:
REMARK  status: ('A' for Active; 'I' for Inactive)
REMARK    1  A    between atoms: C_4  and  S_7
REMARK    2  A    between atoms: S_7  and  N_10
REMARK    3  A    between atoms: N_10  and  C_11
REMARK    4  A    between atoms: N_14  and  C_17
REMARK    5  A    between atoms: C_20  and  N_22
REMARK                            x       y       z     vdW  Elec       q    Type
REMARK                         _______ _______ _______ _____ _____    ______ ____
ROOT
ATOM      1  C   UNL     1       3.567  -1.942   2.398  0.00  0.00    +0.079 C 
ATOM      2  C   UNL     1       2.578  -1.086   3.192  0.00  0.00    +0.039 C 
ATOM      3  C   UNL     1       1.709  -1.995   4.066  0.00  0.00    +0.107 C 
ATOM      4  N   UNL     1       2.586  -2.830   4.898  0.00  0.00    -0.324 N 
ATOM      5  C   UNL     1       3.634  -3.625   4.243  0.00  0.00    +0.107 C 
ATOM      6  C   UNL     1       4.481  -2.698   3.366  0.00  0.00    +0.039 C 
ENDROOT
BRANCH   4   7
ATOM      7  C   UNL     1       2.428  -2.867   6.285  0.00  0.00    +0.070 A 
ATOM      8  C   UNL     1       3.140  -3.568   7.211  0.00  0.00    +0.033 A 
ATOM      9  C   UNL     1       2.797  -3.446   8.546  0.00  0.00    +0.042 A 
ATOM     10  C   UNL     1       1.768  -2.636   8.890  0.00  0.00    +0.165 A 
ATOM     11  S   UNL     1       1.246  -2.002   7.305  0.00  0.00    -0.050 S 
BRANCH  10  12
ATOM     12  N   UNL     1       1.220  -2.346  10.236  0.00  0.00    +0.063 N 
ATOM     13  O   UNL     1       1.707  -2.867  11.212  0.00  0.00    -0.126 OA
ATOM     14  O   UNL     1       0.286  -1.588  10.358  0.00  0.00    -0.126 OA
ENDBRANCH  10  12
ENDBRANCH   4   7
BRANCH   1  15
ATOM     15  N   UNL     1       4.378  -1.079   1.536  0.00  0.00    -0.187 NA
ATOM     16  H   UNL     1       5.174  -0.651   1.888  0.00  0.00    +0.148 HD
BRANCH  15  17
ATOM     17  S   UNL     1       3.934  -0.832  -0.041  0.00  0.00    +0.059 S 
ATOM     18  O   UNL     1       3.674  -2.114  -0.595  0.00  0.00    -0.153 OA
ATOM     19  O   UNL     1       4.890   0.060  -0.597  0.00  0.00    -0.153 OA
BRANCH  17  23
ATOM     20  C   UNL     1      -0.017   1.378   0.010  0.00  0.00    +0.000 A 
ATOM     21  C   UNL     1       1.171   2.086   0.002  0.00  0.00    +0.002 A 
ATOM     22  C   UNL     1       2.377   1.411  -0.013  0.00  0.00    +0.028 A 
ATOM     23  C   UNL     1       2.396   0.029  -0.020  0.00  0.00    +0.105 A 
ATOM     24  C   UNL     1       1.208  -0.679  -0.012  0.00  0.00    +0.028 A 
ATOM     25  C   UNL     1       0.002  -0.004   0.002  0.00  0.00    +0.002 A 
ENDBRANCH  17  23
ENDBRANCH  15  17
ENDBRANCH   1  15
TORSDOF 5
