REMARK  Name = ZINC61542999
REMARK  2 active torsions:
REMARK  status: ('A' for Active; 'I' for Inactive)
REMARK    1  A    between atoms: C_1  and  N_2
REMARK    2  A    between atoms: N_2  and  C_3
REMARK                            x       y       z     vdW  Elec       q    Type
REMARK                         _______ _______ _______ _____ _____    ______ ____
ROOT
ATOM      1  C   UNL     1      -0.018   1.461   0.010  0.00  0.00    +0.132 C 
ATOM      2  N   UNL     1       0.002  -0.004   0.002  0.00  0.00    -0.306 N 
ATOM      3  C   UNL     1       1.281  -0.719  -0.014  0.00  0.00    +0.132 C 
ATOM      4  C   UNL     1      -1.183  -0.710   0.009  0.00  0.00    +0.223 A 
ATOM      5  N   UNL     1      -1.167  -2.039   0.008  0.00  0.00    -0.177 NA
ATOM      6  C   UNL     1      -2.308  -2.715   0.015  0.00  0.00    +0.257 A 
ATOM      7  N   UNL     1      -3.466  -2.062   0.025  0.00  0.00    -0.180 NA
ATOM      8  C   UNL     1      -3.481  -0.739   0.027  0.00  0.00    +0.229 A 
ATOM      9  N   UNL     1      -2.345  -0.062   0.024  0.00  0.00    -0.184 NA
ATOM     10 CL   UNL     1      -4.996   0.110   0.038  0.00  0.00    -0.041 Cl
ATOM     11  N   UNL     1      -2.294  -4.107   0.013  0.00  0.00    -0.204 N 
ATOM     12  C   UNL     1      -3.384  -4.920   0.015  0.00  0.00    +0.133 A 
ATOM     13  C   UNL     1      -2.941  -6.198   0.012  0.00  0.00    +0.056 A 
ATOM     14  C   UNL     1      -1.541  -6.170   0.008  0.00  0.00    +0.150 A 
ATOM     15  N   UNL     1      -1.153  -4.921   0.003  0.00  0.00    -0.171 NA
ATOM     16 BR   UNL     1      -4.022  -7.750   0.013  0.00  0.00    -0.047 Br
ENDROOT
TORSDOF 0
