REMARK  Name = ZINC43321749
REMARK  4 active torsions:
REMARK  status: ('A' for Active; 'I' for Inactive)
REMARK    1  A    between atoms: C_1  and  C_2
REMARK    2  A    between atoms: C_3  and  N_9
REMARK    3  A    between atoms: C_10  and  C_12
REMARK    4  A    between atoms: C_16  and  N_18
REMARK                            x       y       z     vdW  Elec       q    Type
REMARK                         _______ _______ _______ _____ _____    ______ ____
ROOT
ATOM      1  N   UNL     1      -0.010   0.011  -2.412  0.00  0.00    -0.281 N 
ATOM      2  C   UNL     1       0.095  -0.654  -3.580  0.00  0.00    +0.248 C 
ATOM      3  O   UNL     1       0.112  -1.869  -3.589  0.00  0.00    -0.270 OA
ATOM      4  H   UNL     1      -0.104   0.976  -2.410  0.00  0.00    +0.155 HD
ENDROOT
BRANCH   1   7
ATOM      5  C   UNL     1      -1.264   1.189  -0.146  0.00  0.00    +0.048 C 
ATOM      6  C   UNL     1      -0.583  -0.153  -0.073  0.00  0.00    +0.006 A 
ATOM      7  C   UNL     1       0.017  -0.692  -1.203  0.00  0.00    +0.039 A 
ATOM      8  C   UNL     1       0.643  -1.929  -1.132  0.00  0.00    +0.024 A 
ATOM      9  C   UNL     1       0.668  -2.622   0.063  0.00  0.00    +0.005 A 
ATOM     10  C   UNL     1       0.070  -2.085   1.188  0.00  0.00    +0.039 A 
ATOM     11  C   UNL     1      -0.550  -0.849   1.123  0.00  0.00    +0.128 A 
ATOM     12  F   UNL     1      -1.129  -0.324   2.225  0.00  0.00    -0.205 F 
ENDBRANCH   1   7
BRANCH   2  13
ATOM     13  C   UNL     1       0.190   0.095  -4.850  0.00  0.00    +0.039 A 
ATOM     14  C   UNL     1       0.177   1.492  -4.843  0.00  0.00    +0.014 A 
ATOM     15  C   UNL     1       0.265   2.185  -6.032  0.00  0.00    +0.023 A 
ATOM     16  C   UNL     1       0.367   1.499  -7.231  0.00  0.00    +0.071 A 
ATOM     17  C   UNL     1       0.381   0.114  -7.245  0.00  0.00    +0.145 A 
ATOM     18  C   UNL     1       0.299  -0.590  -6.062  0.00  0.00    +0.047 A 
ATOM     19 CL   UNL     1       0.477   2.379  -8.724  0.00  0.00    -0.081 Cl
BRANCH  17  20
ATOM     20  N   UNL     1       0.490  -0.611  -8.530  0.00  0.00    +0.058 N 
ATOM     21  O   UNL     1       0.502  -1.820  -8.543  0.00  0.00    -0.126 OA
ATOM     22  O   UNL     1       0.567   0.006  -9.567  0.00  0.00    -0.126 OA
ENDBRANCH  17  20
ENDBRANCH   2  13
TORSDOF 3
