REMARK  Name = ZINC63263882
REMARK  9 active torsions:
REMARK  status: ('A' for Active; 'I' for Inactive)
REMARK    1  A    between atoms: C_1  and  O_2
REMARK    2  A    between atoms: O_2  and  C_3
REMARK    3  A    between atoms: C_6  and  C_9
REMARK    4  A    between atoms: C_9  and  N_10
REMARK    5  A    between atoms: C_13  and  C_16
REMARK    6  A    between atoms: C_16  and  N_17
REMARK    7  A    between atoms: C_18  and  C_20
REMARK    8  A    between atoms: C_20  and  C_21
REMARK    9  A    between atoms: C_24  and  N_27
REMARK                            x       y       z     vdW  Elec       q    Type
REMARK                         _______ _______ _______ _____ _____    ______ ____
ROOT
ATOM      1  N   UNL     1      -5.424  -2.856  -1.347  0.00  0.00    +0.382 N 
ATOM      2  C   UNL     1      -4.495  -3.777  -2.013  0.00  0.00    -0.078 C 
ATOM      3  C   UNL     1      -4.906  -3.953  -3.476  0.00  0.00    -0.014 C 
ATOM      4  C   UNL     1      -6.326  -4.525  -3.537  0.00  0.00    +0.003 C 
ATOM      5  C   UNL     1      -7.274  -3.594  -2.776  0.00  0.00    -0.014 C 
ATOM      6  C   UNL     1      -6.775  -3.431  -1.338  0.00  0.00    -0.078 C 
ATOM      7  H   UNL     1      -5.437  -1.978  -1.843  0.00  0.00    -0.081 HD
ENDROOT
BRANCH   1   8
ATOM      8  C   UNL     1      -4.981  -2.629   0.035  0.00  0.00    -0.043 C 
BRANCH   8  12
ATOM      9  C   UNL     1      -1.200  -0.637   0.010  0.00  0.00    +0.120 A 
ATOM     10  C   UNL     1      -2.375   0.101   0.019  0.00  0.00    +0.046 A 
ATOM     11  C   UNL     1      -3.596  -0.545   0.027  0.00  0.00    +0.005 A 
ATOM     12  C   UNL     1      -3.648  -1.927   0.026  0.00  0.00    -0.064 A 
ATOM     13  C   UNL     1      -2.479  -2.665   0.017  0.00  0.00    +0.005 A 
ATOM     14  C   UNL     1      -1.255  -2.024   0.003  0.00  0.00    +0.046 A 
BRANCH   9  16
ATOM     15  C   UNL     1      -0.017   1.425   0.010  0.00  0.00    +0.277 C 
ATOM     16  O   UNL     1       0.002  -0.004   0.002  0.00  0.00    -0.495 OA
ENDBRANCH   9  16
ENDBRANCH   8  12
ENDBRANCH   1   8
BRANCH   4  17
ATOM     17  C   UNL     1      -6.773  -4.630  -4.996  0.00  0.00    +0.107 C 
BRANCH  17  18
ATOM     18  N   UNL     1      -8.081  -5.286  -5.060  0.00  0.00    -0.315 N 
ATOM     19  C   UNL     1      -8.677  -5.488  -6.252  0.00  0.00    +0.217 C 
ATOM     20  O   UNL     1      -8.130  -5.126  -7.272  0.00  0.00    -0.275 OA
ATOM     21  H   UNL     1      -8.519  -5.576  -4.244  0.00  0.00    +0.149 HD
BRANCH  19  22
ATOM     22  C   UNL     1     -10.022  -6.163  -6.317  0.00  0.00    +0.130 C 
BRANCH  22  23
ATOM     23  C   UNL     1     -10.463  -6.266  -7.755  0.00  0.00    -0.038 A 
ATOM     24  C   UNL     1     -11.200  -5.246  -8.326  0.00  0.00    +0.006 A 
ATOM     25  C   UNL     1     -11.604  -5.340  -9.645  0.00  0.00    +0.033 A 
ATOM     26  C   UNL     1     -11.271  -6.455 -10.392  0.00  0.00    +0.126 A 
ATOM     27  C   UNL     1     -10.534  -7.475  -9.820  0.00  0.00    +0.033 A 
ATOM     28  C   UNL     1     -10.126  -7.379  -8.503  0.00  0.00    +0.006 A 
BRANCH  26  29
ATOM     29  N   UNL     1     -11.705  -6.557 -11.803  0.00  0.00    +0.056 N 
ATOM     30  O   UNL     1     -12.351  -5.665 -12.303  0.00  0.00    -0.126 OA
ATOM     31  O   UNL     1     -11.415  -7.532 -12.457  0.00  0.00    -0.126 OA
ENDBRANCH  26  29
ENDBRANCH  22  23
ENDBRANCH  19  22
ENDBRANCH  17  18
ENDBRANCH   4  17
TORSDOF 8
