REMARK  Name = ZINC14743645
REMARK  12 active torsions:
REMARK  status: ('A' for Active; 'I' for Inactive)
REMARK    1  A    between atoms: C_1  and  C_2
REMARK    2  A    between atoms: C_5  and  C_7
REMARK    3  A    between atoms: C_7  and  C_9
REMARK    4  A    between atoms: C_7  and  C_10
REMARK    5  A    between atoms: C_10  and  C_11
REMARK    6  A    between atoms: C_11  and  N_70
REMARK    7  A    between atoms: N_19  and  C_30
REMARK    8  A    between atoms: N_22  and  C_23
REMARK    9  A    between atoms: C_23  and  C_24
REMARK   10  A    between atoms: C_30  and  C_31
REMARK   11  A    between atoms: C_31  and  C_32
REMARK   12  A    between atoms: C_31  and  C_33
REMARK                            x       y       z     vdW  Elec       q    Type
REMARK                         _______ _______ _______ _____ _____    ______ ____
ROOT
ATOM      1  C   UNL     1      -0.960   2.007   1.392  0.00  0.00    -0.076 C 
ATOM      2  C   UNL     1      -1.038   3.527   1.222  0.00  0.00    +0.017 C 
ATOM      3  C   UNL     1       0.369   4.086   1.029  0.00  0.00    +0.112 C 
ATOM      4  C   UNL     1       1.053   3.413  -0.157  0.00  0.00    +0.017 C 
ATOM      5  C   UNL     1       1.063   1.897   0.058  0.00  0.00    -0.076 C 
ATOM      6  C   UNL     1       0.320   5.583   0.831  0.00  0.00    +0.247 C 
ATOM      7  O   UNL     1      -0.235   6.188  -0.061  0.00  0.00    -0.273 OA
ATOM      8  N   UNL     1       1.025   6.105   1.857  0.00  0.00    -0.224 N 
ATOM      9  C   UNL     1       1.504   5.149   2.662  0.00  0.00    +0.312 C 
ATOM     10  O   UNL     1       2.171   5.372   3.654  0.00  0.00    -0.252 OA
ATOM     11  N   UNL     1       1.165   3.913   2.250  0.00  0.00    -0.267 N 
ATOM     12  N   UNL     1      -0.332   1.423   0.187  0.00  0.00    +0.380 N 
ATOM     13  H   UNL     1      -0.862   1.720  -0.641  0.00  0.00    -0.082 HD
ENDROOT
BRANCH  12  14
ATOM     14  C   UNL     1      -0.358  -0.052   0.270  0.00  0.00    -0.078 C 
BRANCH  14  15
ATOM     15  C   UNL     1      -1.762  -0.506   0.677  0.00  0.00    -0.008 C 
BRANCH  15  16
ATOM     16  C   UNL     1      -1.805  -2.034   0.738  0.00  0.00    +0.050 C 
ATOM     17  C   UNL     1      -1.585  -2.607  -0.664  0.00  0.00    +0.015 C 
BRANCH  16  22
ATOM     18  C   UNL     1      -6.791  -2.697   1.118  0.00  0.00    +0.086 C 
ATOM     19  C   UNL     1      -5.317  -2.766   1.422  0.00  0.00    +0.102 A 
ATOM     20  C   UNL     1      -4.759  -3.392   2.474  0.00  0.00    +0.044 A 
ATOM     21  C   UNL     1      -3.361  -3.210   2.365  0.00  0.00    +0.045 A 
ATOM     22  C   UNL     1      -3.149  -2.478   1.256  0.00  0.00    +0.108 A 
ATOM     23  O   UNL     1      -4.337  -2.215   0.688  0.00  0.00    -0.465 OA
ENDBRANCH  16  22
ENDBRANCH  15  16
ENDBRANCH  14  15
ENDBRANCH  12  14
BRANCH  11  24
ATOM     24  C   UNL     1       1.519   2.645   2.893  0.00  0.00    +0.145 C 
BRANCH  24  25
ATOM     25  C   UNL     1       3.019   2.516   2.957  0.00  0.00    -0.030 A 
ATOM     26  C   UNL     1       3.718   2.027   1.869  0.00  0.00    +0.005 A 
ATOM     27  C   UNL     1       5.095   1.914   1.926  0.00  0.00    +0.000 A 
ATOM     28  C   UNL     1       5.771   2.280   3.075  0.00  0.00    +0.000 A 
ATOM     29  C   UNL     1       5.072   2.764   4.164  0.00  0.00    +0.000 A 
ATOM     30  C   UNL     1       3.696   2.882   4.106  0.00  0.00    +0.005 A 
ENDBRANCH  24  25
ENDBRANCH  11  24
BRANCH   8  31
ATOM     31  C   UNL     1       1.240   7.539   2.063  0.00  0.00    +0.121 C 
BRANCH  31  32
ATOM     32  C   UNL     1       2.518   7.972   1.341  0.00  0.00    +0.001 C 
ATOM     33  C   UNL     1       2.333   7.803  -0.168  0.00  0.00    +0.009 C 
ATOM     34  C   UNL     1       2.811   9.440   1.658  0.00  0.00    +0.009 C 
ENDBRANCH  31  32
ENDBRANCH   8  31
TORSDOF 8
