REMARK  Name = ZINC21051222
REMARK  6 active torsions:
REMARK  status: ('A' for Active; 'I' for Inactive)
REMARK    1  A    between atoms: C_1  and  C_2
REMARK    2  A    between atoms: C_2  and  C_3
REMARK    3  A    between atoms: C_3  and  C_4
REMARK    4  A    between atoms: N_16  and  C_17
REMARK    5  A    between atoms: C_22  and  C_23
REMARK    6  A    between atoms: C_23  and  C_24
REMARK                            x       y       z     vdW  Elec       q    Type
REMARK                         _______ _______ _______ _____ _____    ______ ____
ROOT
ATOM      1  C   UNL     1      -1.138  -0.808   0.089  0.00  0.00    +0.124 C 
ATOM      2  C   UNL     1      -0.824  -1.947   1.026  0.00  0.00    +0.039 A 
ATOM      3  C   UNL     1      -1.686  -2.812   1.583  0.00  0.00    +0.024 A 
ATOM      4  C   UNL     1      -0.933  -3.702   2.377  0.00  0.00    +0.019 A 
ATOM      5  C   UNL     1       0.363  -3.340   2.273  0.00  0.00    +0.086 A 
ATOM      6  N   UNL     1       0.440  -2.260   1.449  0.00  0.00    -0.347 N 
ATOM      7  C   UNL     1       1.652  -1.531   1.062  0.00  0.00    +0.140 C 
ATOM      8  C   UNL     1       1.368  -0.714  -0.203  0.00  0.00    +0.131 C 
ATOM      9  N   UNL     1       0.090  -0.004  -0.046  0.00  0.00    -0.275 N 
ATOM     10  C   UNL     1       0.044   1.343  -0.020  0.00  0.00    +0.307 C 
ATOM     11  O   UNL     1       1.075   1.987  -0.029  0.00  0.00    -0.252 OA
ATOM     12  N   UNL     1      -1.146   1.976   0.021  0.00  0.00    -0.269 N 
ATOM     13  H   UNL     1      -2.074   1.395   0.128  0.00  0.00    +0.156 HD
ENDROOT
BRANCH  12  14
ATOM     14  C   UNL     1      -1.200   3.371  -0.071  0.00  0.00    +0.038 A 
ATOM     15  C   UNL     1      -0.278   4.053  -0.855  0.00  0.00    +0.023 A 
ATOM     16  C   UNL     1      -0.334   5.429  -0.945  0.00  0.00    +0.002 A 
ATOM     17  C   UNL     1      -1.307   6.130  -0.255  0.00  0.00    +0.000 A 
ATOM     18  C   UNL     1      -2.227   5.454   0.525  0.00  0.00    +0.005 A 
ATOM     19  C   UNL     1      -2.179   4.076   0.615  0.00  0.00    -0.026 A 
BRANCH  19  20
ATOM     20  C   UNL     1      -3.185   3.340   1.462  0.00  0.00    +0.033 C 
ATOM     21  C   UNL     1      -2.597   3.091   2.852  0.00  0.00    +0.009 C 
ENDBRANCH  19  20
ENDBRANCH  12  14
BRANCH   1  22
ATOM     22  C   UNL     1      -1.553  -1.361  -1.276  0.00  0.00    +0.028 C 
BRANCH  22  24
ATOM     23  C   UNL     1      -2.349  -0.755  -3.566  0.00  0.00    +0.004 C 
ATOM     24  C   UNL     1      -1.934  -0.203  -2.200  0.00  0.00    -0.001 C 
ENDBRANCH  22  24
ENDBRANCH   1  22
TORSDOF 4
