REMARK  Name = ZINC50441432
REMARK  7 active torsions:
REMARK  status: ('A' for Active; 'I' for Inactive)
REMARK    1  A    between atoms: C_1  and  C_2
REMARK    2  A    between atoms: C_3  and  C_20
REMARK    3  A    between atoms: C_4  and  O_8
REMARK    4  A    between atoms: N_5  and  C_7
REMARK    5  A    between atoms: O_8  and  C_9
REMARK    6  A    between atoms: C_12  and  N_16
REMARK    7  A    between atoms: C_20  and  N_21
REMARK                            x       y       z     vdW  Elec       q    Type
REMARK                         _______ _______ _______ _____ _____    ______ ____
ROOT
ATOM      1  C   UNL     1      -0.255   1.644   0.269  0.00  0.00    +0.068 C 
ATOM      2  C   UNL     1      -0.046   0.151   0.244  0.00  0.00    +0.065 A 
ATOM      3  C   UNL     1       0.173  -0.625  -0.898  0.00  0.00    +0.019 A 
ATOM      4  C   UNL     1       0.313  -1.919  -0.501  0.00  0.00    +0.220 A 
ATOM      5  N   UNL     1       0.185  -1.949   0.844  0.00  0.00    -0.236 N 
ATOM      6  N   UNL     1      -0.033  -0.639   1.287  0.00  0.00    -0.173 NA
ATOM      7  C   UNL     1       0.268  -3.142   1.690  0.00  0.00    +0.176 C 
ENDROOT
BRANCH   4   8
ATOM      8  O   UNL     1       0.539  -2.985  -1.310  0.00  0.00    -0.436 OA
BRANCH   8   9
ATOM      9  C   UNL     1       0.693  -4.204  -0.730  0.00  0.00    +0.158 A 
ATOM     10  C   UNL     1       1.925  -4.577  -0.212  0.00  0.00    +0.063 A 
ATOM     11  C   UNL     1       2.079  -5.818   0.378  0.00  0.00    +0.051 A 
ATOM     12  C   UNL     1       1.006  -6.687   0.452  0.00  0.00    +0.129 A 
ATOM     13  C   UNL     1      -0.223  -6.319  -0.063  0.00  0.00    +0.051 A 
ATOM     14  C   UNL     1      -0.384  -5.077  -0.648  0.00  0.00    +0.063 A 
ATOM     15 BR   UNL     1      -2.067  -4.570  -1.344  0.00  0.00    -0.046 Br
ATOM     16 BR   UNL     1       3.393  -3.390  -0.314  0.00  0.00    -0.046 Br
BRANCH  12  17
ATOM     17  N   UNL     1       1.174  -8.015   1.084  0.00  0.00    +0.056 N 
ATOM     18  O   UNL     1       2.249  -8.339   1.534  0.00  0.00    -0.126 OA
ATOM     19  O   UNL     1       0.237  -8.776   1.150  0.00  0.00    -0.126 OA
ENDBRANCH  12  17
ENDBRANCH   8   9
ENDBRANCH   4   8
BRANCH   3  20
ATOM     20  C   UNL     1       0.241  -0.120  -2.316  0.00  0.00    -0.043 C 
BRANCH  20  21
ATOM     21  N   UNL     1       1.629   0.233  -2.643  0.00  0.00    +0.381 N 
ATOM     22  H   UNL     1       1.675   0.572  -3.593  0.00  0.00    -0.090 HD
ATOM     23  H   UNL     1       1.951   0.953  -2.014  0.00  0.00    -0.090 HD
ATOM     24  H   UNL     1       2.215  -0.583  -2.549  0.00  0.00    -0.090 HD
ENDBRANCH  20  21
ENDBRANCH   3  20
TORSDOF 5
