REMARK  Name = ZINC47383468
REMARK  8 active torsions:
REMARK  status: ('A' for Active; 'I' for Inactive)
REMARK    1  A    between atoms: C_1  and  C_2
REMARK    2  A    between atoms: C_2  and  C_3
REMARK    3  A    between atoms: C_2  and  C_4
REMARK    4  A    between atoms: C_2  and  C_5
REMARK    5  A    between atoms: C_8  and  S_11
REMARK    6  A    between atoms: S_11  and  N_14
REMARK    7  A    between atoms: N_14  and  C_15
REMARK    8  A    between atoms: C_17  and  C_23
REMARK                            x       y       z     vdW  Elec       q    Type
REMARK                         _______ _______ _______ _____ _____    ______ ____
ROOT
ATOM      1  S   UNL     1       2.923  -1.976  -5.012  0.00  0.00    +0.072 S 
ATOM      2  O   UNL     1       4.330  -1.946  -4.813  0.00  0.00    -0.150 OA
ATOM      3  O   UNL     1       2.236  -3.153  -5.415  0.00  0.00    -0.150 OA
ENDROOT
BRANCH   1   7
ATOM      4  C   UNL     1       1.037  -0.648  -1.117  0.00  0.00    -0.042 A 
ATOM      5  C   UNL     1       0.318  -1.430  -2.001  0.00  0.00    +0.006 A 
ATOM      6  C   UNL     1       0.894  -1.835  -3.191  0.00  0.00    +0.029 A 
ATOM      7  C   UNL     1       2.189  -1.458  -3.496  0.00  0.00    +0.109 A 
ATOM      8  C   UNL     1       2.907  -0.675  -2.612  0.00  0.00    +0.029 A 
ATOM      9  C   UNL     1       2.330  -0.266  -1.424  0.00  0.00    +0.006 A 
BRANCH   4  11
ATOM     10  C   UNL     1       0.366   1.323   0.231  0.00  0.00    +0.015 C 
ATOM     11  C   UNL     1       0.409  -0.205   0.180  0.00  0.00    -0.013 C 
ATOM     12  C   UNL     1       1.239  -0.731   1.353  0.00  0.00    +0.015 C 
ATOM     13  C   UNL     1      -1.014  -0.760   0.273  0.00  0.00    +0.015 C 
ENDBRANCH   4  11
ENDBRANCH   1   7
BRANCH   1  14
ATOM     14  N   UNL     1       2.580  -0.816  -6.143  0.00  0.00    -0.213 N 
ATOM     15  H   UNL     1       2.072  -1.048  -6.936  0.00  0.00    +0.174 HD
BRANCH  14  16
ATOM     16  C   UNL     1       3.023   0.498  -5.955  0.00  0.00    +0.084 A 
ATOM     17  C   UNL     1       4.244   0.736  -5.352  0.00  0.00    +0.045 A 
ATOM     18  C   UNL     1       4.684   2.051  -5.165  0.00  0.00    +0.100 A 
ATOM     19  C   UNL     1       3.883   3.118  -5.591  0.00  0.00    +0.140 A 
ATOM     20  C   UNL     1       2.664   2.868  -6.192  0.00  0.00    +0.079 A 
ATOM     21  C   UNL     1       2.235   1.566  -6.380  0.00  0.00    +0.148 A 
ATOM     22  F   UNL     1       1.045   1.329  -6.974  0.00  0.00    -0.203 F 
ATOM     23  F   UNL     1       4.301   4.390  -5.413  0.00  0.00    -0.205 F 
BRANCH  18  24
ATOM     24  C   UNL     1       5.983   2.312  -4.524  0.00  0.00    +0.389 C 
ATOM     25  O   UNL     1       6.680   1.378  -4.152  0.00  0.00    -0.240 OA
ATOM     26  O   UNL     1       6.365   3.462  -4.362  0.00  0.00    -0.240 OA
ENDBRANCH  18  24
ENDBRANCH  14  16
ENDBRANCH   1  14
TORSDOF 5
