REMARK  Name = ZINC00877745
REMARK  4 active torsions:
REMARK  status: ('A' for Active; 'I' for Inactive)
REMARK    1  A    between atoms: C_1  and  C_2
REMARK    2  A    between atoms: C_2  and  C_26
REMARK    3  A    between atoms: C_10  and  N_14
REMARK    4  A    between atoms: N_14  and  C_15
REMARK                            x       y       z     vdW  Elec       q    Type
REMARK                         _______ _______ _______ _____ _____    ______ ____
ROOT
ATOM      1  C   UNL     1       1.721  -8.630   0.068  0.00  0.00    +0.041 C 
ATOM      2  C   UNL     1       1.364  -7.170   0.353  0.00  0.00    +0.070 C 
ATOM      3  C   UNL     1       2.522  -6.266  -0.070  0.00  0.00    +0.090 C 
ATOM      4  C   UNL     1       2.079  -4.825  -0.048  0.00  0.00    +0.051 A 
ATOM      5  C   UNL     1       0.738  -4.486  -0.028  0.00  0.00    +0.000 A 
ATOM      6  C   UNL     1       0.361  -3.157  -0.017  0.00  0.00    +0.020 A 
ATOM      7  C   UNL     1       1.356  -2.155  -0.023  0.00  0.00    +0.034 A 
ATOM      8  C   UNL     1       1.165  -0.693  -0.013  0.00  0.00    +0.092 A 
ATOM      9  C   UNL     1       2.335   0.077  -0.020  0.00  0.00    +0.080 A 
ATOM     10  C   UNL     1       2.277   1.464  -0.012  0.00  0.00    +0.137 A 
ATOM     11  N   UNL     1       1.078   2.045   0.003  0.00  0.00    -0.220 NA
ATOM     12  C   UNL     1      -0.016   1.305   0.009  0.00  0.00    +0.224 A 
ATOM     13  N   UNL     1       0.002  -0.004   0.002  0.00  0.00    -0.234 NA
ATOM     14  S   UNL     1       3.651  -1.109  -0.039  0.00  0.00    -0.064 S 
ATOM     15  C   UNL     1       2.689  -2.602  -0.039  0.00  0.00    +0.111 A 
ATOM     16  N   UNL     1       3.004  -3.878  -0.051  0.00  0.00    -0.244 NA
ATOM     17  C   UNL     1      -0.339  -5.540  -0.016  0.00  0.00    +0.197 C 
ATOM     18  O   UNL     1       0.202  -6.803  -0.400  0.00  0.00    -0.369 OA
ATOM     19  C   UNL     1       1.091  -6.990   1.848  0.00  0.00    +0.041 C 
ENDROOT
BRANCH  10  20
ATOM     20  N   UNL     1       3.436   2.224  -0.018  0.00  0.00    -0.325 N 
ATOM     21  H   UNL     1       4.302   1.788  -0.028  0.00  0.00    +0.148 HD
BRANCH  20  22
ATOM     22  C   UNL     1       3.353   3.687  -0.009  0.00  0.00    +0.072 C 
ATOM     23  C   UNL     1       3.185   4.197  -1.442  0.00  0.00    +0.022 C 
ATOM     24  C   UNL     1       3.098   5.724  -1.433  0.00  0.00    +0.002 C 
ATOM     25  C   UNL     1       4.380   6.304  -0.831  0.00  0.00    +0.000 C 
ATOM     26  C   UNL     1       4.547   5.794   0.602  0.00  0.00    +0.002 C 
ATOM     27  C   UNL     1       4.634   4.267   0.592  0.00  0.00    +0.022 C 
ENDBRANCH  20  22
ENDBRANCH  10  20
TORSDOF 2
