REMARK  Name = ZINC05414519
REMARK  2 active torsions:
REMARK  status: ('A' for Active; 'I' for Inactive)
REMARK    1  A    between atoms: C_1  and  C_2
REMARK    2  A    between atoms: C_14  and  C_18
REMARK                            x       y       z     vdW  Elec       q    Type
REMARK                         _______ _______ _______ _____ _____    ______ ____
ROOT
ATOM      1  C   UNL     1       6.798  -3.760  -0.155  0.00  0.00    +0.008 C 
ATOM      2  C   UNL     1       5.683  -2.751  -0.436  0.00  0.00    -0.009 C 
ATOM      3  C   UNL     1       5.908  -1.490   0.405  0.00  0.00    +0.008 C 
ATOM      4  C   UNL     1       4.952  -0.386  -0.047  0.00  0.00    +0.037 C 
ATOM      5  C   UNL     1       3.526  -0.933  -0.036  0.00  0.00    -0.024 A 
ATOM      6  C   UNL     1       3.305  -2.267  -0.040  0.00  0.00    -0.004 A 
ATOM      7  S   UNL     1       1.539  -2.427  -0.024  0.00  0.00    -0.073 S 
ATOM      8  C   UNL     1       1.135  -0.698  -0.012  0.00  0.00    +0.114 A 
ATOM      9  C   UNL     1       2.395  -0.078  -0.021  0.00  0.00    +0.056 A 
ATOM     10  C   UNL     1       2.358   1.399  -0.014  0.00  0.00    +0.172 A 
ATOM     11  N   UNL     1       3.279   2.336  -0.019  0.00  0.00    -0.129 NA
ATOM     12  N   UNL     1       2.714   3.493  -0.005  0.00  0.00    -0.131 NA
ATOM     13  C   UNL     1       1.413   3.362   0.007  0.00  0.00    +0.168 A 
ATOM     14  N   UNL     1       1.137   2.026   0.002  0.00  0.00    -0.267 N 
ATOM     15  C   UNL     1      -0.016   1.299   0.009  0.00  0.00    +0.208 A 
ATOM     16  N   UNL     1       0.002  -0.004   0.002  0.00  0.00    -0.230 NA
ATOM     17  C   UNL     1       4.327  -3.361  -0.054  0.00  0.00    +0.046 C 
ENDROOT
BRANCH  13  18
ATOM     18  C   UNL     1       0.404   4.481   0.024  0.00  0.00    +0.186 C 
ATOM     19  C   UNL     1       0.346   5.113   1.428  0.00  0.00    +0.042 C 
ATOM     20  C   UNL     1       0.700   6.601   1.189  0.00  0.00    +0.031 C 
ATOM     21  C   UNL     1       0.388   6.771  -0.319  0.00  0.00    +0.161 C 
ATOM     22  O   UNL     1       0.804   5.513  -0.893  0.00  0.00    -0.369 OA
ENDBRANCH  13  18
TORSDOF 1
