REMARK  Name = ZINC51013658
REMARK  5 active torsions:
REMARK  status: ('A' for Active; 'I' for Inactive)
REMARK    1  A    between atoms: C_1  and  C_2
REMARK    2  A    between atoms: C_2  and  C_4
REMARK    3  A    between atoms: C_2  and  S_21
REMARK    4  A    between atoms: C_10  and  C_12
REMARK    5  A    between atoms: S_21  and  C_22
REMARK                            x       y       z     vdW  Elec       q    Type
REMARK                         _______ _______ _______ _____ _____    ______ ____
ROOT
ATOM      1  C   UNL     1       1.229  -0.326  -1.304  0.00  0.00    +0.229 C 
ATOM      2  O   UNL     1       2.397  -0.563  -1.079  0.00  0.00    -0.274 OA
ATOM      3  N   UNL     1       0.767  -0.353  -2.570  0.00  0.00    -0.290 N 
ATOM      4  C   UNL     1      -0.622  -0.081  -2.983  0.00  0.00    +0.108 C 
ATOM      5  C   UNL     1      -0.783  -0.815  -4.338  0.00  0.00    +0.021 C 
ATOM      6  C   UNL     1       0.612  -0.596  -4.979  0.00  0.00    +0.032 C 
ATOM      7  C   UNL     1       1.565  -0.653  -3.767  0.00  0.00    +0.144 C 
ENDROOT
BRANCH   7   8
ATOM      8  C   UNL     1       2.660   0.371  -3.923  0.00  0.00    +0.158 A 
ATOM      9  N   UNL     1       2.532   1.666  -3.790  0.00  0.00    -0.132 NA
ATOM     10  N   UNL     1       3.661   2.249  -3.989  0.00  0.00    -0.129 NA
ATOM     11  C   UNL     1       4.584   1.341  -4.264  0.00  0.00    +0.161 A 
ATOM     12  N   UNL     1       3.962   0.117  -4.223  0.00  0.00    -0.285 N 
ATOM     13  C   UNL     1       4.668  -1.025  -4.463  0.00  0.00    +0.094 A 
ATOM     14  C   UNL     1       5.987  -0.969  -4.742  0.00  0.00    +0.018 A 
ATOM     15  C   UNL     1       6.652   0.268  -4.788  0.00  0.00    +0.005 A 
ATOM     16  C   UNL     1       5.959   1.416  -4.559  0.00  0.00    +0.048 A 
ENDBRANCH   7   8
BRANCH   1  18
ATOM     17  C   UNL     1       0.095   1.513  -0.086  0.00  0.00    +0.029 C 
ATOM     18  C   UNL     1       0.294  -0.002  -0.167  0.00  0.00    +0.134 C 
BRANCH  18  19
ATOM     19  S   UNL     1       1.004  -0.603   1.390  0.00  0.00    -0.111 S 
BRANCH  19  20
ATOM     20  C   UNL     1       0.931  -2.357   1.244  0.00  0.00    +0.027 A 
ATOM     21  C   UNL     1       0.297  -2.939   0.153  0.00  0.00    +0.016 A 
ATOM     22  C   UNL     1       0.241  -4.314   0.041  0.00  0.00    +0.001 A 
ATOM     23  C   UNL     1       0.815  -5.113   1.014  0.00  0.00    +0.001 A 
ATOM     24  C   UNL     1       1.446  -4.538   2.102  0.00  0.00    +0.021 A 
ATOM     25  C   UNL     1       1.511  -3.163   2.217  0.00  0.00    +0.054 A 
ATOM     26 CL   UNL     1       2.311  -2.442   3.579  0.00  0.00    -0.082 Cl
ENDBRANCH  19  20
ENDBRANCH  18  19
ENDBRANCH   1  18
TORSDOF 4
