REMARK  Name = ZINC14189758
REMARK  6 active torsions:
REMARK  status: ('A' for Active; 'I' for Inactive)
REMARK    1  A    between atoms: C_1  and  C_2
REMARK    2  A    between atoms: N_5  and  C_11
REMARK    3  A    between atoms: C_7  and  C_10
REMARK    4  A    between atoms: C_11  and  N_12
REMARK    5  A    between atoms: C_15  and  C_19
REMARK    6  A    between atoms: C_15  and  C_20
REMARK                            x       y       z     vdW  Elec       q    Type
REMARK                         _______ _______ _______ _____ _____    ______ ____
ROOT
ATOM      1  N   UNL     1       4.329   3.485  -1.781  0.00  0.00    -0.210 N 
ATOM      2  C   UNL     1       3.494   3.515  -0.724  0.00  0.00    +0.252 C 
ATOM      3  O   UNL     1       2.754   4.419  -0.401  0.00  0.00    -0.272 OA
ATOM      4  C   UNL     1       3.672   2.183  -0.023  0.00  0.00    +0.135 C 
ATOM      5  N   UNL     1       4.681   1.492  -0.844  0.00  0.00    -0.281 N 
ATOM      6  C   UNL     1       5.003   2.330  -1.845  0.00  0.00    +0.311 C 
ATOM      7  O   UNL     1       5.814   2.069  -2.711  0.00  0.00    -0.252 OA
ATOM      8  C   UNL     1       4.184   2.389   1.404  0.00  0.00    +0.047 C 
ATOM      9  H   UNL     1       5.015   0.480  -0.569  0.00  0.00    +0.152 HD
ENDROOT
BRANCH   4  10
ATOM     10  C   UNL     1       2.377   1.411  -0.013  0.00  0.00    -0.015 A 
ATOM     11  C   UNL     1       1.171   2.086   0.002  0.00  0.00    +0.007 A 
ATOM     12  C   UNL     1      -0.017   1.379   0.010  0.00  0.00    +0.015 A 
ATOM     13  C   UNL     1       0.002  -0.004   0.002  0.00  0.00    +0.018 A 
ATOM     14  C   UNL     1       1.210  -0.679  -0.013  0.00  0.00    +0.015 A 
ATOM     15  C   UNL     1       2.397   0.029  -0.021  0.00  0.00    +0.007 A 
ATOM     16 BR   UNL     1      -1.622  -0.972   0.013  0.00  0.00    -0.050 Br
ENDBRANCH   4  10
BRANCH   1  17
ATOM     17  C   UNL     1       4.479   4.580  -2.743  0.00  0.00    +0.205 C 
BRANCH  17  21
ATOM     18  C   UNL     1       7.830   7.935  -4.060  0.00  0.00    +0.039 C 
ATOM     19  C   UNL     1       7.263   7.113  -2.902  0.00  0.00    +0.130 C 
ATOM     20  C   UNL     1       6.129   6.221  -3.415  0.00  0.00    +0.117 C 
ATOM     21  N   UNL     1       5.537   5.491  -2.284  0.00  0.00    -0.282 NA
ATOM     22  C   UNL     1       5.024   6.426  -1.272  0.00  0.00    +0.117 C 
ATOM     23  C   UNL     1       6.169   7.315  -0.780  0.00  0.00    +0.130 C 
ATOM     24  O   UNL     1       6.753   7.993  -1.896  0.00  0.00    -0.371 OA
ATOM     25  C   UNL     1       7.230   6.451  -0.096  0.00  0.00    +0.039 C 
ENDBRANCH  17  21
ENDBRANCH   1  17
TORSDOF 3
