REMARK  Name = ZINC44458189
REMARK  3 active torsions:
REMARK  status: ('A' for Active; 'I' for Inactive)
REMARK    1  A    between atoms: C_3  and  C_14
REMARK    2  A    between atoms: N_10  and  C_11
REMARK    3  A    between atoms: C_19  and  C_22
REMARK                            x       y       z     vdW  Elec       q    Type
REMARK                         _______ _______ _______ _____ _____    ______ ____
ROOT
ATOM      1  C   UNL     1       0.104   1.470   0.034  0.00  0.00    +0.020 C 
ATOM      2  C   UNL     1       1.569   1.913   0.011  0.00  0.00    +0.016 C 
ATOM      3  C   UNL     1       2.184   1.717   1.399  0.00  0.00    +0.093 C 
ATOM      4  C   UNL     1       2.134   0.232   1.770  0.00  0.00    +0.122 C 
ATOM      5  N   UNL     1       0.747  -0.238   1.654  0.00  0.00    -0.285 N 
ATOM      6  C   UNL     1       0.030  -0.018   0.390  0.00  0.00    +0.109 C 
ATOM      7  C   UNL     1       0.143  -0.859   2.687  0.00  0.00    +0.302 C 
ATOM      8  O   UNL     1       0.713  -0.953   3.757  0.00  0.00    -0.253 OA
ATOM      9  N   UNL     1      -1.092  -1.376   2.533  0.00  0.00    -0.296 N 
ATOM     10  H   UNL     1      -1.518  -1.365   1.662  0.00  0.00    +0.151 HD
ENDROOT
BRANCH   3  11
ATOM     11  C   UNL     1       3.617   2.184   1.383  0.00  0.00    +0.220 C 
ATOM     12  O   UNL     1       4.226   2.240   0.336  0.00  0.00    -0.275 OA
ATOM     13  N   UNL     1       4.221   2.541   2.534  0.00  0.00    -0.301 N 
ATOM     14  C   UNL     1       3.469   2.575   3.796  0.00  0.00    +0.108 C 
ATOM     15  C   UNL     1       4.207   1.723   4.833  0.00  0.00    +0.032 C 
ATOM     16  C   UNL     1       5.654   2.209   4.950  0.00  0.00    +0.078 C 
ATOM     17  C   UNL     1       6.359   2.047   3.602  0.00  0.00    +0.032 C 
ATOM     18  C   UNL     1       5.647   2.896   2.552  0.00  0.00    +0.108 C 
BRANCH  16  19
ATOM     19  C   UNL     1       6.374   1.396   5.995  0.00  0.00    +0.214 C 
ATOM     20  O   UNL     1       5.788   0.514   6.587  0.00  0.00    -0.276 OA
ATOM     21  N   UNL     1       7.668   1.647   6.271  0.00  0.00    -0.329 N 
ATOM     22  H   UNL     1       8.137   2.352   5.797  0.00  0.00    +0.145 HD
ATOM     23  H   UNL     1       8.132   1.124   6.943  0.00  0.00    +0.145 HD
ENDBRANCH  16  19
ENDBRANCH   3  11
BRANCH   9  24
ATOM     24  C   UNL     1      -1.791  -1.956   3.683  0.00  0.00    +0.075 C 
ATOM     25  C   UNL     1      -2.523  -3.283   3.469  0.00  0.00    +0.024 C 
ATOM     26  C   UNL     1      -3.320  -1.987   3.637  0.00  0.00    +0.024 C 
ENDBRANCH   9  24
TORSDOF 3
