REMARK  Name = ZINC08783483
REMARK  5 active torsions:
REMARK  status: ('A' for Active; 'I' for Inactive)
REMARK    1  A    between atoms: C_1  and  C_2
REMARK    2  A    between atoms: C_2  and  C_3
REMARK    3  A    between atoms: C_3  and  C_4
REMARK    4  A    between atoms: C_11  and  N_25
REMARK    5  A    between atoms: C_12  and  C_23
REMARK                            x       y       z     vdW  Elec       q    Type
REMARK                         _______ _______ _______ _____ _____    ______ ____
ROOT
ATOM      1  C   UNL     1       0.847  -1.998  -1.206  0.00  0.00    +0.071 A 
ATOM      2  C   UNL     1       1.831  -2.756  -0.592  0.00  0.00    +0.053 A 
ATOM      3  C   UNL     1       1.542  -4.073  -0.833  0.00  0.00    +0.223 A 
ATOM      4  N   UNL     1       0.407  -4.131  -1.549  0.00  0.00    -0.246 N 
ATOM      5  H   UNL     1      -0.036  -4.939  -1.853  0.00  0.00    +0.192 HD
ATOM      6  N   UNL     1      -0.015  -2.816  -1.777  0.00  0.00    -0.176 NA
ATOM      7  O   UNL     1       2.319  -5.097  -0.402  0.00  0.00    -0.423 OA
ATOM      8  C   UNL     1       3.183  -4.821   0.593  0.00  0.00    +0.201 C 
ATOM      9  C   UNL     1       3.564  -3.565   0.925  0.00  0.00    +0.102 C 
ATOM     10  C   UNL     1       3.048  -2.335   0.211  0.00  0.00    +0.093 C 
ATOM     11  C   UNL     1       2.648  -1.279   1.218  0.00  0.00    +0.025 C 
ATOM     12  C   UNL     1       3.066   0.150   0.935  0.00  0.00    +0.035 C 
ATOM     13  C   UNL     1       4.133   0.289  -0.145  0.00  0.00    +0.147 C 
ATOM     14  C   UNL     1       5.443  -0.354   0.364  0.00  0.00    +0.194 C 
ATOM     15  O   UNL     1       5.379  -1.715  -0.097  0.00  0.00    -0.347 OA
ATOM     16  C   UNL     1       4.120  -1.866  -0.774  0.00  0.00    +0.266 C 
ATOM     17  O   UNL     1       3.761  -0.557  -1.258  0.00  0.00    -0.345 OA
ENDROOT
BRANCH   8  18
ATOM     18  N   UNL     1       3.708  -5.866   1.310  0.00  0.00    -0.328 N 
ATOM     19  H   UNL     1       3.454  -6.777   1.096  0.00  0.00    +0.145 HD
ATOM     20  H   UNL     1       4.333  -5.694   2.032  0.00  0.00    +0.145 HD
ENDBRANCH   8  18
BRANCH   9  21
ATOM     21  C   UNL     1       4.508  -3.445   1.997  0.00  0.00    +0.101 C 
ATOM     22  N   UNL     1       5.257  -3.350   2.847  0.00  0.00    -0.191 NA
ENDBRANCH   9  21
BRANCH   1  23
ATOM     23  C   UNL     1       0.718  -0.497  -1.257  0.00  0.00    +0.057 C 
BRANCH  23  25
ATOM     24  C   UNL     1      -0.464   1.478  -0.285  0.00  0.00    +0.004 C 
ATOM     25  C   UNL     1      -0.240  -0.030  -0.159  0.00  0.00    +0.003 C 
ENDBRANCH  23  25
ENDBRANCH   1  23
TORSDOF 4
