REMARK  Name = ZINC41332658
REMARK  5 active torsions:
REMARK  status: ('A' for Active; 'I' for Inactive)
REMARK    1  A    between atoms: C_1  and  C_2
REMARK    2  A    between atoms: C_5  and  N_8
REMARK    3  A    between atoms: N_8  and  C_9
REMARK    4  A    between atoms: C_9  and  C_10
REMARK    5  A    between atoms: C_15  and  C_17
REMARK                            x       y       z     vdW  Elec       q    Type
REMARK                         _______ _______ _______ _____ _____    ______ ____
ROOT
ATOM      1  N   UNL     1       0.030  -4.187  -0.038  0.00  0.00    -0.258 N 
ATOM      2  C   UNL     1       0.074  -4.880  -1.193  0.00  0.00    +0.287 C 
ATOM      3  O   UNL     1       0.095  -4.289  -2.256  0.00  0.00    -0.266 OA
ENDROOT
BRANCH   2   4
ATOM      4  C   UNL     1       0.097  -6.349  -1.168  0.00  0.00    +0.191 A 
ATOM      5  C   UNL     1       0.032  -7.151  -2.263  0.00  0.00    +0.063 A 
ATOM      6  C   UNL     1       0.087  -8.524  -1.763  0.00  0.00    +0.024 A 
ATOM      7  C   UNL     1       0.063  -9.783  -2.370  0.00  0.00    +0.012 A 
ATOM      8  C   UNL     1       0.133 -10.909  -1.600  0.00  0.00    +0.004 A 
ATOM      9  C   UNL     1       0.228 -10.811  -0.218  0.00  0.00    +0.042 A 
ATOM     10  C   UNL     1       0.254  -9.578   0.401  0.00  0.00    +0.166 A 
ATOM     11  C   UNL     1       0.184  -8.417  -0.364  0.00  0.00    +0.171 A 
ATOM     12  O   UNL     1       0.191  -7.106  -0.055  0.00  0.00    -0.447 OA
ATOM     13  F   UNL     1       0.346  -9.498   1.747  0.00  0.00    -0.202 F 
ENDBRANCH   2   4
BRANCH   1  18
ATOM     14  C   UNL     1      -0.496   1.460  -0.136  0.00  0.00    +0.044 C 
ATOM     15  C   UNL     1      -0.356  -0.041  -0.110  0.00  0.00    -0.050 A 
ATOM     16  C   UNL     1      -0.167  -0.737  -1.290  0.00  0.00    +0.005 A 
ATOM     17  C   UNL     1      -0.038  -2.112  -1.270  0.00  0.00    +0.024 A 
ATOM     18  C   UNL     1      -0.100  -2.795  -0.062  0.00  0.00    +0.037 A 
ATOM     19  C   UNL     1      -0.290  -2.093   1.121  0.00  0.00    +0.024 A 
ATOM     20  C   UNL     1      -0.412  -0.718   1.094  0.00  0.00    +0.005 A 
ENDBRANCH   1  18
BRANCH   1  21
ATOM     21  C   UNL     1       0.117  -4.893   1.243  0.00  0.00    +0.188 C 
BRANCH  21  22
ATOM     22  C   UNL     1      -1.270  -5.222   1.731  0.00  0.00    +0.122 A 
ATOM     23  C   UNL     1      -1.952  -6.350   1.462  0.00  0.00    +0.046 A 
ATOM     24  C   UNL     1      -3.201  -6.240   2.115  0.00  0.00    +0.041 A 
ATOM     25  C   UNL     1      -3.208  -5.051   2.744  0.00  0.00    +0.195 A 
ATOM     26  O   UNL     1      -2.034  -4.441   2.513  0.00  0.00    -0.466 OA
ENDBRANCH  21  22
ENDBRANCH   1  21
TORSDOF 4
