REMARK  Name = ZINC40275021
REMARK  3 active torsions:
REMARK  status: ('A' for Active; 'I' for Inactive)
REMARK    1  A    between atoms: C_1  and  C_2
REMARK    2  A    between atoms: C_5  and  C_7
REMARK    3  A    between atoms: C_7  and  C_9
REMARK                            x       y       z     vdW  Elec       q    Type
REMARK                         _______ _______ _______ _____ _____    ______ ____
ROOT
ATOM      1  C   UNL     1       2.473  -3.268   1.261  0.00  0.00    -0.022 A 
ATOM      2  C   UNL     1       3.356  -2.245   1.556  0.00  0.00    +0.007 A 
ATOM      3  C   UNL     1       4.064  -2.280   2.732  0.00  0.00    +0.024 A 
ATOM      4  C   UNL     1       3.916  -3.336   3.647  0.00  0.00    +0.037 A 
ATOM      5  C   UNL     1       3.038  -4.355   3.346  0.00  0.00    -0.026 A 
ATOM      6  C   UNL     1       2.316  -4.304   2.153  0.00  0.00    +0.011 A 
ATOM      7  C   UNL     1       2.779  -5.551   4.204  0.00  0.00    +0.037 C 
ATOM      8  C   UNL     1       3.962  -6.085   4.949  0.00  0.00    +0.014 C 
ATOM      9  C   UNL     1       4.320  -5.274   6.172  0.00  0.00    +0.096 C 
ATOM     10  C   UNL     1       4.956  -3.980   5.812  0.00  0.00    +0.217 C 
ATOM     11  O   UNL     1       5.829  -3.583   6.554  0.00  0.00    -0.275 OA
ATOM     12  N   UNL     1       4.678  -3.225   4.788  0.00  0.00    -0.285 N 
ATOM     13  H   UNL     1       5.121  -2.364   4.843  0.00  0.00    +0.155 HD
ENDROOT
BRANCH   1  14
ATOM     14  C   UNL     1       1.684  -3.245  -0.023  0.00  0.00    +0.176 C 
ATOM     15 CL   UNL     1       2.814  -3.098  -1.420  0.00  0.00    -0.108 Cl
BRANCH  14  20
ATOM     16  C   UNL     1      -0.018   1.503   0.010  0.00  0.00    +0.086 C 
ATOM     17  C   UNL     1       0.002  -0.004   0.002  0.00  0.00    +0.102 A 
ATOM     18  C   UNL     1      -1.078  -0.805   0.003  0.00  0.00    +0.045 A 
ATOM     19  C   UNL     1      -0.601  -2.136  -0.007  0.00  0.00    +0.047 A 
ATOM     20  C   UNL     1       0.742  -2.069  -0.013  0.00  0.00    +0.127 A 
ATOM     21  O   UNL     1       1.102  -0.775  -0.013  0.00  0.00    -0.463 OA
ENDBRANCH  14  20
ENDBRANCH   1  14
TORSDOF 2
