REMARK  Name = ZINC00310239
REMARK  2 active torsions:
REMARK  status: ('A' for Active; 'I' for Inactive)
REMARK    1  A    between atoms: C_8  and  N_12
REMARK    2  A    between atoms: C_13  and  C_15
REMARK                            x       y       z     vdW  Elec       q    Type
REMARK                         _______ _______ _______ _____ _____    ______ ____
ROOT
ATOM      1  C   UNL     1      -0.021   1.364   0.106  0.00  0.00    +0.001 A 
ATOM      2  C   UNL     1       1.163   2.084   0.042  0.00  0.00    +0.004 A 
ATOM      3  C   UNL     1       2.378   1.435  -0.028  0.00  0.00    +0.047 A 
ATOM      4  C   UNL     1       2.419   0.048  -0.033  0.00  0.00    +0.139 A 
ATOM      5  C   UNL     1       1.218  -0.681   0.036  0.00  0.00    +0.019 A 
ATOM      6  C   UNL     1      -0.004  -0.003   0.103  0.00  0.00    +0.011 A 
ATOM      7  C   UNL     1       1.268  -2.147   0.038  0.00  0.00    +0.042 A 
ATOM      8  C   UNL     1       2.485  -2.736   0.242  0.00  0.00    +0.120 A 
ATOM      9  C   UNL     1       3.641  -1.850   0.443  0.00  0.00    +0.359 A 
ATOM     10  O   UNL     1       4.608  -2.219   1.083  0.00  0.00    -0.243 OA
ATOM     11  O   UNL     1       3.599  -0.613  -0.103  0.00  0.00    -0.421 OA
ENDROOT
BRANCH   8  12
ATOM     12  N   UNL     1       2.624  -4.128   0.259  0.00  0.00    -0.276 N 
ATOM     13  C   UNL     1       3.474  -4.731  -0.597  0.00  0.00    +0.248 C 
ATOM     14  O   UNL     1       4.184  -4.061  -1.321  0.00  0.00    -0.270 OA
ATOM     15  H   UNL     1       2.110  -4.659   0.887  0.00  0.00    +0.155 HD
BRANCH  13  16
ATOM     16  C   UNL     1       3.541  -6.205  -0.655  0.00  0.00    +0.037 A 
ATOM     17  C   UNL     1       2.722  -6.978   0.171  0.00  0.00    +0.014 A 
ATOM     18  C   UNL     1       2.789  -8.354   0.112  0.00  0.00    +0.021 A 
ATOM     19  C   UNL     1       3.667  -8.970  -0.764  0.00  0.00    +0.041 A 
ATOM     20  C   UNL     1       4.482  -8.210  -1.586  0.00  0.00    +0.021 A 
ATOM     21  C   UNL     1       4.419  -6.833  -1.541  0.00  0.00    +0.014 A 
ATOM     22 CL   UNL     1       3.746 -10.703  -0.832  0.00  0.00    -0.084 Cl
ENDBRANCH  13  16
ENDBRANCH   8  12
TORSDOF 2
