REMARK  Name = ZINC46983358
REMARK  7 active torsions:
REMARK  status: ('A' for Active; 'I' for Inactive)
REMARK    1  A    between atoms: C_1  and  C_2
REMARK    2  A    between atoms: C_3  and  C_14
REMARK    3  A    between atoms: N_6  and  C_7
REMARK    4  A    between atoms: C_14  and  C_16
REMARK    5  A    between atoms: C_14  and  N_17
REMARK    6  A    between atoms: N_20  and  N_21
REMARK    7  A    between atoms: N_24  and  C_25
REMARK                            x       y       z     vdW  Elec       q    Type
REMARK                         _______ _______ _______ _____ _____    ______ ____
ROOT
ATOM      1  N   UNL     1      -0.597  -1.371  -3.369  0.00  0.00    -0.292 N 
ATOM      2  C   UNL     1      -1.175  -1.044  -4.542  0.00  0.00    +0.316 C 
ATOM      3  O   UNL     1      -1.228   0.120  -4.890  0.00  0.00    -0.251 OA
ATOM      4  N   UNL     1      -1.696  -2.007  -5.328  0.00  0.00    -0.217 N 
ATOM      5  H   UNL     1      -0.555  -2.299  -3.091  0.00  0.00    +0.151 HD
ATOM      6  H   UNL     1      -2.113  -1.771  -6.172  0.00  0.00    +0.174 HD
ENDROOT
BRANCH   4   7
ATOM      7  N   UNL     1      -1.636  -3.347  -4.926  0.00  0.00    -0.217 N 
ATOM      8  C   UNL     1      -2.157  -4.310  -5.712  0.00  0.00    +0.320 C 
ATOM      9  O   UNL     1      -2.105  -5.474  -5.363  0.00  0.00    -0.251 OA
ATOM     10  N   UNL     1      -2.736  -3.983  -6.885  0.00  0.00    -0.268 N 
ATOM     11  H   UNL     1      -1.220  -3.583  -4.082  0.00  0.00    +0.174 HD
ATOM     12  H   UNL     1      -2.838  -3.051  -7.132  0.00  0.00    +0.156 HD
BRANCH  10  13
ATOM     13  C   UNL     1      -3.189  -4.989  -7.745  0.00  0.00    +0.035 A 
ATOM     14  C   UNL     1      -3.095  -4.822  -9.121  0.00  0.00    +0.023 A 
ATOM     15  C   UNL     1      -3.544  -5.817  -9.968  0.00  0.00    +0.002 A 
ATOM     16  C   UNL     1      -4.087  -6.978  -9.447  0.00  0.00    +0.000 A 
ATOM     17  C   UNL     1      -4.182  -7.146  -8.078  0.00  0.00    +0.002 A 
ATOM     18  C   UNL     1      -3.729  -6.159  -7.226  0.00  0.00    +0.023 A 
ENDBRANCH  10  13
ENDBRANCH   4   7
BRANCH   1  19
ATOM     19  C   UNL     1      -0.030  -0.324  -2.515  0.00  0.00    +0.105 C 
ATOM     20  C   UNL     1       1.398  -0.015  -2.966  0.00  0.00    +0.033 C 
BRANCH  19  23
ATOM     21  C   UNL     1      -0.056   1.498   0.029  0.00  0.00    +0.066 C 
ATOM     22  C   UNL     1      -0.026  -0.009   0.016  0.00  0.00    +0.047 A 
ATOM     23  C   UNL     1      -0.014  -0.797  -1.084  0.00  0.00    +0.013 A 
ATOM     24  C   UNL     1       0.014  -2.130  -0.658  0.00  0.00    +0.140 A 
ATOM     25  N   UNL     1       0.020  -2.142   0.650  0.00  0.00    -0.174 NA
ATOM     26  N   UNL     1       0.001  -0.815   1.101  0.00  0.00    -0.237 N 
BRANCH  26  27
ATOM     27  C   UNL     1       0.005  -0.398   2.439  0.00  0.00    +0.066 A 
ATOM     28  C   UNL     1       0.671   0.765   2.802  0.00  0.00    +0.030 A 
ATOM     29  C   UNL     1       0.674   1.175   4.121  0.00  0.00    +0.040 A 
ATOM     30  C   UNL     1       0.015   0.426   5.082  0.00  0.00    +0.124 A 
ATOM     31  C   UNL     1      -0.649  -0.735   4.721  0.00  0.00    +0.040 A 
ATOM     32  C   UNL     1      -0.660  -1.144   3.402  0.00  0.00    +0.030 A 
ATOM     33  F   UNL     1       0.021   0.828   6.372  0.00  0.00    -0.205 F 
ENDBRANCH  26  27
ENDBRANCH  19  23
ENDBRANCH   1  19
TORSDOF 5
