REMARK  Name = ZINC48795225
REMARK  4 active torsions:
REMARK  status: ('A' for Active; 'I' for Inactive)
REMARK    1  A    between atoms: C_1  and  C_2
REMARK    2  A    between atoms: C_2  and  C_3
REMARK    3  A    between atoms: C_2  and  C_4
REMARK    4  A    between atoms: C_6  and  C_10
REMARK                            x       y       z     vdW  Elec       q    Type
REMARK                         _______ _______ _______ _____ _____    ______ ____
ROOT
ATOM      1  C   UNL     1      -4.187  -2.753  -0.759  0.00  0.00    +0.267 C 
ATOM      2  O   UNL     1      -3.826  -3.598  -1.555  0.00  0.00    -0.268 OA
ATOM      3  N   UNL     1      -5.459  -2.748  -0.311  0.00  0.00    -0.289 N 
ATOM      4  C   UNL     1      -5.970  -1.655   0.535  0.00  0.00    +0.136 C 
ATOM      5  C   UNL     1      -7.289  -1.147  -0.055  0.00  0.00    +0.179 C 
ATOM      6  O   UNL     1      -8.173  -2.249  -0.288  0.00  0.00    -0.373 OA
ATOM      7  C   UNL     1      -7.665  -3.199  -1.222  0.00  0.00    +0.139 C 
ATOM      8  C   UNL     1      -6.393  -3.828  -0.652  0.00  0.00    +0.105 C 
ATOM      9  C   UNL     1      -5.790  -4.759  -1.702  0.00  0.00    +0.025 C 
ATOM     10  C   UNL     1      -6.801  -5.865  -2.022  0.00  0.00    +0.002 C 
ATOM     11  C   UNL     1      -8.097  -5.252  -2.551  0.00  0.00    +0.003 C 
ATOM     12  C   UNL     1      -8.677  -4.309  -1.494  0.00  0.00    +0.033 C 
ENDROOT
BRANCH   1  15
ATOM     13  C   UNL     1      -1.429  -0.490  -0.030  0.00  0.00    +0.039 A 
ATOM     14  C   UNL     1      -1.915  -1.524  -0.756  0.00  0.00    +0.057 A 
ATOM     15  C   UNL     1      -3.232  -1.732  -0.282  0.00  0.00    +0.147 A 
ATOM     16  N   UNL     1      -3.446  -0.840   0.665  0.00  0.00    -0.169 NA
ATOM     17  N   UNL     1      -2.401  -0.111   0.828  0.00  0.00    -0.281 N 
ATOM     18  H   UNL     1      -2.321   0.609   1.472  0.00  0.00    +0.189 HD
BRANCH  13  20
ATOM     19  C   UNL     1      -0.142   1.625   0.105  0.00  0.00    +0.014 C 
ATOM     20  C   UNL     1      -0.056   0.120  -0.152  0.00  0.00    +0.031 C 
ATOM     21  C   UNL     1       0.880  -0.521   0.875  0.00  0.00    +0.014 C 
ENDBRANCH  13  20
ENDBRANCH   1  15
TORSDOF 2
