REMARK  Name = ZINC25076739
REMARK  6 active torsions:
REMARK  status: ('A' for Active; 'I' for Inactive)
REMARK    1  A    between atoms: C_1  and  C_2
REMARK    2  A    between atoms: C_10  and  C_12
REMARK    3  A    between atoms: C_12  and  N_13
REMARK    4  A    between atoms: N_17  and  C_20
REMARK    5  A    between atoms: C_20  and  C_21
REMARK    6  A    between atoms: C_24  and  C_27
REMARK                            x       y       z     vdW  Elec       q    Type
REMARK                         _______ _______ _______ _____ _____    ______ ____
ROOT
ATOM      1  N   UNL     1       4.492   5.763  -0.010  0.00  0.00    -0.298 NA
ATOM      2  C   UNL     1       4.710   4.946   1.203  0.00  0.00    +0.083 C 
ATOM      3  C   UNL     1       5.715   3.869   0.880  0.00  0.00    -0.003 C 
ATOM      4  C   UNL     1       7.152   4.302   1.210  0.00  0.00    -0.077 C 
ATOM      5  N   UNL     1       7.424   5.704   0.822  0.00  0.00    +0.383 N 
ATOM      6  C   UNL     1       6.871   6.074  -0.462  0.00  0.00    -0.063 C 
ATOM      7  C   UNL     1       5.488   6.719  -0.241  0.00  0.00    +0.066 C 
ATOM      8  H   UNL     1       6.896   6.343   1.544  0.00  0.00    -0.081 HD
ENDROOT
BRANCH   1   9
ATOM      9  C   UNL     1       3.160   6.384   0.006  0.00  0.00    +0.149 C 
BRANCH   9  19
ATOM     10  C   UNL     1      -2.519   0.997   0.020  0.00  0.00    +0.066 C 
ATOM     11  C   UNL     1      -1.214   1.752   0.017  0.00  0.00    +0.046 A 
ATOM     12  C   UNL     1      -0.013   1.076   0.008  0.00  0.00    +0.095 A 
ATOM     13  C   UNL     1       1.184   1.792   0.000  0.00  0.00    +0.275 A 
ATOM     14  O   UNL     1       2.252   1.200  -0.012  0.00  0.00    -0.266 OA
ATOM     15  N   UNL     1       1.160   3.158   0.007  0.00  0.00    -0.171 N 
ATOM     16  C   UNL     1      -0.074   3.747   0.022  0.00  0.00    +0.199 A 
ATOM     17  N   UNL     1      -1.202   3.082   0.029  0.00  0.00    -0.227 NA
ATOM     18  S   UNL     1       0.327   5.480   0.028  0.00  0.00    -0.031 S 
ATOM     19  C   UNL     1       2.104   5.309   0.010  0.00  0.00    +0.116 A 
ATOM     20  N   UNL     1       2.253   4.019   0.002  0.00  0.00    -0.158 NA
ENDBRANCH   9  19
ENDBRANCH   1   9
BRANCH   5  21
ATOM     21  C   UNL     1       8.863   5.997   0.878  0.00  0.00    -0.043 C 
BRANCH  21  22
ATOM     22  C   UNL     1       9.452   5.381   2.122  0.00  0.00    -0.064 A 
ATOM     23  C   UNL     1       9.498   6.108   3.297  0.00  0.00    +0.002 A 
ATOM     24  C   UNL     1      10.035   5.542   4.438  0.00  0.00    +0.012 A 
ATOM     25  C   UNL     1      10.533   4.253   4.402  0.00  0.00    +0.055 A 
ATOM     26  C   UNL     1      10.491   3.528   3.226  0.00  0.00    +0.012 A 
ATOM     27  C   UNL     1       9.950   4.093   2.085  0.00  0.00    +0.002 A 
BRANCH  25  28
ATOM     28  C   UNL     1      11.122   3.638   5.645  0.00  0.00    +0.417 C 
ATOM     29  F   UNL     1      12.492   3.916   5.699  0.00  0.00    -0.166 F 
ATOM     30  F   UNL     1      10.493   4.173   6.774  0.00  0.00    -0.166 F 
ATOM     31  F   UNL     1      10.928   2.252   5.617  0.00  0.00    -0.166 F 
ENDBRANCH  25  28
ENDBRANCH  21  22
ENDBRANCH   5  21
TORSDOF 5
