REMARK  Name = ZINC66770764
REMARK  4 active torsions:
REMARK  status: ('A' for Active; 'I' for Inactive)
REMARK    1  A    between atoms: C_1  and  C_2
REMARK    2  A    between atoms: C_2  and  C_3
REMARK    3  A    between atoms: C_2  and  C_4
REMARK    4  A    between atoms: C_10  and  C_12
REMARK                            x       y       z     vdW  Elec       q    Type
REMARK                         _______ _______ _______ _____ _____    ______ ____
ROOT
ATOM      1  C   UNL     1      -1.412  -0.526   0.013  0.00  0.00    +0.219 C 
ATOM      2  O   UNL     1      -1.790  -1.233   0.922  0.00  0.00    -0.275 OA
ATOM      3  N   UNL     1      -2.256  -0.206  -0.988  0.00  0.00    -0.294 N 
ATOM      4  C   UNL     1      -1.927   0.635  -2.153  0.00  0.00    +0.108 C 
ATOM      5  C   UNL     1      -2.931   0.203  -3.251  0.00  0.00    +0.021 C 
ATOM      6  C   UNL     1      -4.213  -0.056  -2.416  0.00  0.00    +0.029 C 
ATOM      7  C   UNL     1      -3.654  -0.644  -1.103  0.00  0.00    +0.110 C 
ENDROOT
BRANCH   7   8
ATOM      8  C   UNL     1      -4.451  -0.126   0.067  0.00  0.00    +0.018 A 
ATOM      9  C   UNL     1      -4.038   1.013   0.734  0.00  0.00    +0.009 A 
ATOM     10  C   UNL     1      -4.766   1.490   1.807  0.00  0.00    +0.004 A 
ATOM     11  C   UNL     1      -5.908   0.830   2.219  0.00  0.00    +0.049 A 
ATOM     12  C   UNL     1      -6.327  -0.314   1.556  0.00  0.00    +0.162 A 
ATOM     13  C   UNL     1      -5.600  -0.789   0.471  0.00  0.00    +0.167 A 
ATOM     14  O   UNL     1      -6.000  -1.902  -0.203  0.00  0.00    -0.485 OA
ATOM     15  C   UNL     1      -6.945  -2.750   0.460  0.00  0.00    +0.270 C 
ATOM     16  C   UNL     1      -8.055  -1.867   1.046  0.00  0.00    +0.270 C 
ATOM     17  O   UNL     1      -7.452  -0.955   1.975  0.00  0.00    -0.485 OA
ENDBRANCH   7   8
BRANCH   1  19
ATOM     18  C   UNL     1      -0.019   1.526   0.010  0.00  0.00    +0.017 C 
ATOM     19  C   UNL     1       0.002  -0.004   0.002  0.00  0.00    +0.069 C 
ATOM     20  C   UNL     1       0.742  -0.511   1.242  0.00  0.00    +0.017 C 
ENDBRANCH   1  19
TORSDOF 2
