REMARK  Name = ZINC49115902
REMARK  4 active torsions:
REMARK  status: ('A' for Active; 'I' for Inactive)
REMARK    1  A    between atoms: C_1  and  C_2
REMARK    2  A    between atoms: C_2  and  C_4
REMARK    3  A    between atoms: C_2  and  O_21
REMARK    4  A    between atoms: O_21  and  C_22
REMARK                            x       y       z     vdW  Elec       q    Type
REMARK                         _______ _______ _______ _____ _____    ______ ____
ROOT
ATOM      1  C   UNL     1       0.597  -0.491  -1.294  0.00  0.00    +0.244 C 
ATOM      2  O   UNL     1      -0.106  -1.042  -2.115  0.00  0.00    -0.273 OA
ATOM      3  N   UNL     1       1.911  -0.320  -1.539  0.00  0.00    -0.295 N 
ATOM      4  C   UNL     1       2.805   0.234  -0.511  0.00  0.00    +0.114 C 
ATOM      5  C   UNL     1       3.833  -0.832  -0.114  0.00  0.00    +0.072 C 
ATOM      6  C   UNL     1       4.385  -1.474  -1.365  0.00  0.00    +0.023 A 
ATOM      7  C   UNL     1       3.787  -1.411  -2.575  0.00  0.00    -0.002 A 
ATOM      8  C   UNL     1       4.618  -2.148  -3.503  0.00  0.00    +0.006 A 
ATOM      9  C   UNL     1       4.504  -2.422  -4.869  0.00  0.00    +0.030 A 
ATOM     10  C   UNL     1       5.505  -3.172  -5.438  0.00  0.00    +0.042 A 
ATOM     11  C   UNL     1       6.583  -3.640  -4.703  0.00  0.00    +0.022 A 
ATOM     12  C   UNL     1       6.720  -3.384  -3.350  0.00  0.00    +0.027 A 
ATOM     13  C   UNL     1       5.719  -2.626  -2.746  0.00  0.00    +0.047 A 
ATOM     14  N   UNL     1       5.545  -2.199  -1.461  0.00  0.00    -0.358 N 
ATOM     15  H   UNL     1       6.151  -2.380  -0.726  0.00  0.00    +0.166 HD
ATOM     16 CL   UNL     1       5.418  -3.544  -7.132  0.00  0.00    -0.084 Cl
ATOM     17  C   UNL     1       2.493  -0.689  -2.841  0.00  0.00    +0.145 C 
ENDROOT
BRANCH   1  19
ATOM     18  C   UNL     1      -0.021   1.532   0.000  0.00  0.00    +0.048 C 
ATOM     19  C   UNL     1       0.001   0.002  -0.001  0.00  0.00    +0.200 C 
BRANCH  19  20
ATOM     20  O   UNL     1      -1.333  -0.493   0.128  0.00  0.00    -0.371 OA
ATOM     21  C   UNL     1      -1.751  -0.694   1.480  0.00  0.00    +0.195 C 
ENDBRANCH  19  20
ENDBRANCH   1  19
TORSDOF 2
