REMARK  Name = ZINC51746470
REMARK  4 active torsions:
REMARK  status: ('A' for Active; 'I' for Inactive)
REMARK    1  A    between atoms: C_1  and  C_2
REMARK    2  A    between atoms: C_7  and  C_10
REMARK    3  A    between atoms: C_11  and  C_13
REMARK    4  A    between atoms: C_22  and  O_23
REMARK                            x       y       z     vdW  Elec       q    Type
REMARK                         _______ _______ _______ _____ _____    ______ ____
ROOT
ATOM      1  C   UNL     1       2.779  -3.965  -1.319  0.00  0.00    +0.079 A 
ATOM      2  C   UNL     1       1.885  -4.600  -2.165  0.00  0.00    +0.025 A 
ATOM      3  C   UNL     1       2.341  -5.130  -3.380  0.00  0.00    -0.017 A 
ATOM      4  C   UNL     1       1.460  -5.781  -4.264  0.00  0.00    +0.008 A 
ATOM      5  C   UNL     1       1.933  -6.284  -5.436  0.00  0.00    +0.001 A 
ATOM      6  C   UNL     1       3.279  -6.165  -5.778  0.00  0.00    +0.001 A 
ATOM      7  C   UNL     1       4.160  -5.542  -4.949  0.00  0.00    +0.008 A 
ATOM      8  C   UNL     1       3.711  -5.009  -3.728  0.00  0.00    -0.014 A 
ATOM      9  C   UNL     1       4.598  -4.360  -2.853  0.00  0.00    +0.054 A 
ATOM     10  C   UNL     1       4.139  -3.845  -1.676  0.00  0.00    +0.130 A 
ENDROOT
BRANCH   1  19
ATOM     11  C   UNL     1      -0.095   1.489   0.028  0.00  0.00    +0.007 C 
ATOM     12  C   UNL     1      -0.050  -0.040   0.013  0.00  0.00    -0.011 C 
ATOM     13  C   UNL     1       0.675  -0.517  -1.248  0.00  0.00    +0.022 C 
ATOM     14  C   UNL     1       0.688  -2.048  -1.277  0.00  0.00    +0.108 C 
ATOM     15  N   UNL     1       1.272  -2.541  -0.022  0.00  0.00    -0.295 N 
ATOM     16  C   UNL     1       0.707  -2.073   1.252  0.00  0.00    +0.074 C 
ATOM     17  C   UNL     1       0.695  -0.541   1.252  0.00  0.00    +0.025 C 
ATOM     18  C   UNL     1      -0.721  -2.600   1.404  0.00  0.00    +0.028 C 
ATOM     19  C   UNL     1       2.305  -3.405  -0.038  0.00  0.00    +0.250 C 
ATOM     20  O   UNL     1       2.848  -3.724   1.002  0.00  0.00    -0.270 OA
ENDBRANCH   1  19
BRANCH  10  21
ATOM     21  O   UNL     1       5.000  -3.214  -0.838  0.00  0.00    -0.506 OA
ATOM     22  H   UNL     1       5.423  -3.800  -0.195  0.00  0.00    +0.292 HD
ENDBRANCH  10  21
TORSDOF 2
