REMARK  Name = ZINC65168664
REMARK  12 active torsions:
REMARK  status: ('A' for Active; 'I' for Inactive)
REMARK    1  A    between atoms: C_1  and  C_2
REMARK    2  A    between atoms: N_5  and  C_8
REMARK    3  A    between atoms: C_8  and  C_9
REMARK    4  A    between atoms: C_9  and  C_10
REMARK    5  A    between atoms: C_9  and  O_27
REMARK    6  A    between atoms: C_10  and  S_11
REMARK    7  A    between atoms: S_11  and  C_12
REMARK    8  A    between atoms: C_15  and  C_17
REMARK    9  A    between atoms: C_19  and  O_25
REMARK   10  A    between atoms: C_21  and  O_23
REMARK   11  A    between atoms: O_23  and  C_24
REMARK   12  A    between atoms: O_25  and  C_26
REMARK                            x       y       z     vdW  Elec       q    Type
REMARK                         _______ _______ _______ _____ _____    ______ ____
ROOT
ATOM      1  C   UNL     1       3.745  -8.140   2.458  0.00  0.00    +0.278 A 
ATOM      2  N   UNL     1       3.254  -8.860   1.475  0.00  0.00    -0.101 NA
ATOM      3  N   UNL     1       3.506 -10.103   1.688  0.00  0.00    -0.106 NA
ATOM      4  C   UNL     1       4.168 -10.227   2.813  0.00  0.00    +0.249 A 
ATOM      5  O   UNL     1       4.338  -8.986   3.321  0.00  0.00    -0.411 OA
ENDROOT
BRANCH   4   6
ATOM      6  C   UNL     1       4.644 -11.491   3.413  0.00  0.00    +0.045 A 
ATOM      7  C   UNL     1       5.334 -11.473   4.626  0.00  0.00    +0.059 A 
ATOM      8  C   UNL     1       5.779 -12.660   5.185  0.00  0.00    +0.124 A 
ATOM      9  C   UNL     1       5.539 -13.865   4.541  0.00  0.00    +0.091 A 
ATOM     10  C   UNL     1       4.854 -13.887   3.334  0.00  0.00    +0.124 A 
ATOM     11  C   UNL     1       4.401 -12.706   2.771  0.00  0.00    +0.059 A 
BRANCH  10  12
ATOM     12  O   UNL     1       4.622 -15.070   2.707  0.00  0.00    -0.495 OA
ATOM     13  C   UNL     1       5.112 -16.251   3.347  0.00  0.00    +0.277 C 
ENDBRANCH  10  12
BRANCH   8  14
ATOM     14  O   UNL     1       6.451 -12.644   6.366  0.00  0.00    -0.495 OA
ATOM     15  C   UNL     1       6.880 -13.904   6.885  0.00  0.00    +0.277 C 
ENDBRANCH   8  14
ENDBRANCH   4   6
BRANCH   1  16
ATOM     16  S   UNL     1       3.652  -6.387   2.614  0.00  0.00    -0.063 S 
BRANCH  16  17
ATOM     17  C   UNL     1       2.736  -5.863   1.138  0.00  0.00    +0.108 C 
BRANCH  17  18
ATOM     18  C   UNL     1       2.582  -4.341   1.147  0.00  0.00    +0.108 C 
BRANCH  18  19
ATOM     19  O   UNL     1       3.869  -3.731   1.030  0.00  0.00    -0.393 OA
ATOM     20  H   UNL     1       4.342  -3.965   0.220  0.00  0.00    +0.210 HD
ENDBRANCH  18  19
BRANCH  18  21
ATOM     21  C   UNL     1       1.704  -3.911  -0.029  0.00  0.00    -0.046 C 
BRANCH  21  26
ATOM     22  C   UNL     1      -0.019   1.526   0.010  0.00  0.00    +0.007 C 
ATOM     23  C   UNL     1       0.002  -0.004   0.002  0.00  0.00    -0.018 C 
ATOM     24  C   UNL     1       0.727  -0.499  -1.252  0.00  0.00    -0.016 C 
ATOM     25  C   UNL     1       0.814  -2.027  -1.215  0.00  0.00    -0.078 C 
ATOM     26  N   UNL     1       1.556  -2.449  -0.021  0.00  0.00    +0.381 N 
ATOM     27  C   UNL     1       0.829  -2.040   1.187  0.00  0.00    -0.078 C 
ATOM     28  C   UNL     1       0.743  -0.513   1.242  0.00  0.00    -0.016 C 
ATOM     29  H   UNL     1       2.469  -2.020  -0.024  0.00  0.00    -0.082 HD
ENDBRANCH  21  26
ENDBRANCH  18  21
ENDBRANCH  17  18
ENDBRANCH  16  17
ENDBRANCH   1  16
TORSDOF 9
