REMARK  Name = ZINC49939871
REMARK  8 active torsions:
REMARK  status: ('A' for Active; 'I' for Inactive)
REMARK    1  A    between atoms: C_1  and  C_2
REMARK    2  A    between atoms: C_2  and  C_4
REMARK    3  A    between atoms: C_2  and  N_17
REMARK    4  A    between atoms: N_6  and  C_7
REMARK    5  A    between atoms: N_6  and  C_8
REMARK    6  A    between atoms: C_8  and  C_9
REMARK    7  A    between atoms: C_18  and  C_20
REMARK    8  A    between atoms: C_24  and  N_26
REMARK                            x       y       z     vdW  Elec       q    Type
REMARK                         _______ _______ _______ _____ _____    ______ ____
ROOT
ATOM      1  C   UNL     1       0.054   1.472   0.200  0.00  0.00    +0.038 C 
ATOM      2  C   UNL     1       0.013  -0.043  -0.017  0.00  0.00    +0.156 C 
ENDROOT
BRANCH   2   3
ATOM      3  C   UNL     1      -1.403  -0.533   0.133  0.00  0.00    +0.236 C 
ATOM      4  O   UNL     1      -1.731  -1.145   1.128  0.00  0.00    -0.274 OA
ATOM      5  N   UNL     1      -2.307  -0.293  -0.838  0.00  0.00    -0.299 N 
ATOM      6  C   UNL     1      -1.892   0.373  -2.075  0.00  0.00    +0.132 C 
BRANCH   5   7
ATOM      7  C   UNL     1      -3.703  -0.697  -0.656  0.00  0.00    +0.147 C 
BRANCH   7   8
ATOM      8  C   UNL     1      -4.471   0.428  -0.011  0.00  0.00    +0.023 A 
ATOM      9  C   UNL     1      -4.552   0.511   1.368  0.00  0.00    +0.129 A 
ATOM     10  C   UNL     1      -5.258   1.544   1.959  0.00  0.00    +0.039 A 
ATOM     11  C   UNL     1      -5.882   2.494   1.172  0.00  0.00    +0.004 A 
ATOM     12  C   UNL     1      -5.802   2.412  -0.205  0.00  0.00    +0.020 A 
ATOM     13  C   UNL     1      -5.092   1.382  -0.798  0.00  0.00    +0.048 A 
ATOM     14 CL   UNL     1      -4.985   1.284  -2.527  0.00  0.00    -0.083 Cl
ATOM     15  F   UNL     1      -3.942  -0.418   2.138  0.00  0.00    -0.205 F 
ENDBRANCH   7   8
ENDBRANCH   5   7
ENDBRANCH   2   3
BRANCH   2  16
ATOM     16  N   UNL     1       0.866  -0.701   0.975  0.00  0.00    -0.300 N 
ATOM     17  C   UNL     1       2.188  -0.834   0.746  0.00  0.00    +0.245 C 
ATOM     18  O   UNL     1       2.672  -0.408  -0.284  0.00  0.00    -0.270 OA
ATOM     19  H   UNL     1       0.480  -1.042   1.798  0.00  0.00    +0.150 HD
BRANCH  17  20
ATOM     20  C   UNL     1       3.048  -1.499   1.748  0.00  0.00    +0.039 A 
ATOM     21  C   UNL     1       2.494  -1.995   2.929  0.00  0.00    +0.013 A 
ATOM     22  C   UNL     1       3.303  -2.615   3.860  0.00  0.00    +0.003 A 
ATOM     23  C   UNL     1       4.660  -2.745   3.624  0.00  0.00    +0.033 A 
ATOM     24  C   UNL     1       5.215  -2.255   2.455  0.00  0.00    +0.127 A 
ATOM     25  C   UNL     1       4.417  -1.639   1.514  0.00  0.00    +0.045 A 
BRANCH  24  26
ATOM     26  N   UNL     1       6.668  -2.398   2.211  0.00  0.00    +0.056 N 
ATOM     27  O   UNL     1       7.369  -2.942   3.033  0.00  0.00    -0.126 OA
ATOM     28  O   UNL     1       7.155  -1.970   1.191  0.00  0.00    -0.126 OA
ENDBRANCH  24  26
ENDBRANCH  17  20
ENDBRANCH   2  16
TORSDOF 6
