REMARK  Name = ZINC05508625
REMARK  7 active torsions:
REMARK  status: ('A' for Active; 'I' for Inactive)
REMARK    1  A    between atoms: C_1  and  C_2
REMARK    2  A    between atoms: C_2  and  C_4
REMARK    3  A    between atoms: C_2  and  O_18
REMARK    4  A    between atoms: N_6  and  C_7
REMARK    5  A    between atoms: O_18  and  C_19
REMARK    6  A    between atoms: C_19  and  C_21
REMARK    7  A    between atoms: C_24  and  N_28
REMARK                            x       y       z     vdW  Elec       q    Type
REMARK                         _______ _______ _______ _____ _____    ______ ____
ROOT
ATOM      1  C   UNL     1      -4.222  -1.254   1.458  0.00  0.00    +0.062 C 
ATOM      2  C   UNL     1      -3.777  -1.010   0.014  0.00  0.00    +0.259 C 
ENDROOT
BRANCH   2   3
ATOM      3  C   UNL     1      -3.656  -2.329  -0.704  0.00  0.00    +0.254 C 
ATOM      4  O   UNL     1      -2.573  -2.712  -1.092  0.00  0.00    -0.272 OA
ATOM      5  N   UNL     1      -4.753  -3.084  -0.915  0.00  0.00    -0.305 N 
ATOM      6  H   UNL     1      -5.620  -2.778  -0.604  0.00  0.00    +0.149 HD
BRANCH   5   7
ATOM      7  C   UNL     1      -4.636  -4.367  -1.613  0.00  0.00    +0.104 C 
ATOM      8  C   UNL     1      -5.777  -5.284  -1.176  0.00  0.00    +0.027 C 
ATOM      9  C   UNL     1      -5.765  -6.530  -2.070  0.00  0.00    +0.007 C 
ATOM     10  C   UNL     1      -6.202  -6.119  -3.474  0.00  0.00    +0.035 C 
ATOM     11  C   UNL     1      -5.400  -4.939  -3.955  0.00  0.00    -0.042 A 
ATOM     12  C   UNL     1      -4.687  -4.129  -3.100  0.00  0.00    -0.024 A 
ATOM     13  C   UNL     1      -3.979  -3.048  -3.607  0.00  0.00    +0.006 A 
ATOM     14  C   UNL     1      -3.982  -2.780  -4.960  0.00  0.00    +0.000 A 
ATOM     15  C   UNL     1      -4.694  -3.595  -5.819  0.00  0.00    +0.000 A 
ATOM     16  C   UNL     1      -5.399  -4.669  -5.318  0.00  0.00    +0.004 A 
ENDBRANCH   5   7
ENDBRANCH   2   3
BRANCH   2  17
ATOM     17  O   UNL     1      -2.489  -0.338   0.012  0.00  0.00    -0.449 OA
BRANCH  17  18
ATOM     18  C   UNL     1      -2.502   1.009   0.019  0.00  0.00    +0.341 C 
ATOM     19  O   UNL     1      -3.560   1.606   0.028  0.00  0.00    -0.245 OA
BRANCH  18  20
ATOM     20  C   UNL     1      -1.231   1.759   0.017  0.00  0.00    +0.077 A 
ATOM     21  C   UNL     1      -0.013   1.076   0.008  0.00  0.00    +0.018 A 
ATOM     22  C   UNL     1       1.171   1.783   0.001  0.00  0.00    +0.033 A 
ATOM     23  C   UNL     1       1.155   3.167   0.009  0.00  0.00    +0.128 A 
ATOM     24  C   UNL     1      -0.046   3.851   0.024  0.00  0.00    +0.053 A 
ATOM     25  C   UNL     1      -1.240   3.157   0.030  0.00  0.00    +0.057 A 
ATOM     26 CL   UNL     1      -2.748   4.017   0.049  0.00  0.00    -0.083 Cl
BRANCH  23  27
ATOM     27  N   UNL     1       2.431   3.918   0.000  0.00  0.00    +0.056 N 
ATOM     28  O   UNL     1       3.491   3.318  -0.013  0.00  0.00    -0.126 OA
ATOM     29  O   UNL     1       2.420   5.136   0.007  0.00  0.00    -0.126 OA
ENDBRANCH  23  27
ENDBRANCH  18  20
ENDBRANCH  17  18
ENDBRANCH   2  17
TORSDOF 6
