REMARK  Name = ZINC20572062
REMARK  2 active torsions:
REMARK  status: ('A' for Active; 'I' for Inactive)
REMARK    1  A    between atoms: C_1  and  C_2
REMARK    2  A    between atoms: C_8  and  C_11
REMARK                            x       y       z     vdW  Elec       q    Type
REMARK                         _______ _______ _______ _____ _____    ______ ____
ROOT
ATOM      1  C   UNL     1      -1.464   1.532   4.468  0.00  0.00    +0.269 C 
ATOM      2  O   UNL     1      -0.420   1.201   3.943  0.00  0.00    -0.268 OA
ATOM      3  N   UNL     1      -1.562   1.567   5.812  0.00  0.00    -0.296 N 
ATOM      4  C   UNL     1      -0.379   1.345   6.654  0.00  0.00    +0.113 C 
ATOM      5  C   UNL     1      -0.681   0.229   7.652  0.00  0.00    +0.084 C 
ATOM      6  C   UNL     1      -1.954   0.572   8.427  0.00  0.00    +0.173 C 
ATOM      7  C   UNL     1      -3.135   0.694   7.461  0.00  0.00    +0.084 C 
ATOM      8  C   UNL     1      -2.856   1.820   6.461  0.00  0.00    +0.113 C 
ATOM      9  O   UNL     1      -2.224  -0.455   9.390  0.00  0.00    -0.346 OA
ATOM     10  C   UNL     1      -2.225   0.168  10.691  0.00  0.00    +0.191 C 
ATOM     11  C   UNL     1      -2.489   1.659  10.366  0.00  0.00    +0.191 C 
ATOM     12  O   UNL     1      -1.772   1.819   9.117  0.00  0.00    -0.346 OA
ENDROOT
BRANCH   1  19
ATOM     13  C   UNL     1      -1.381   1.112  -1.260  0.00  0.00    +0.008 C 
ATOM     14  C   UNL     1      -2.212   1.801  -0.176  0.00  0.00    -0.009 C 
ATOM     15  C   UNL     1      -3.690   1.452  -0.367  0.00  0.00    +0.011 C 
ATOM     16  C   UNL     1      -4.552   2.325   0.554  0.00  0.00    +0.078 C 
ATOM     17  C   UNL     1      -3.983   2.249   1.947  0.00  0.00    +0.141 A 
ATOM     18  C   UNL     1      -2.737   1.800   2.227  0.00  0.00    +0.027 A 
ATOM     19  C   UNL     1      -2.632   1.898   3.629  0.00  0.00    +0.171 A 
ATOM     20  N   UNL     1      -3.784   2.381   4.040  0.00  0.00    -0.073 NA
ATOM     21  O   UNL     1      -4.541   2.579   3.111  0.00  0.00    -0.359 OA
ATOM     22  C   UNL     1      -1.746   1.322   1.207  0.00  0.00    +0.044 C 
ENDBRANCH   1  19
TORSDOF 1
