REMARK  Name = ZINC49885679
REMARK  6 active torsions:
REMARK  status: ('A' for Active; 'I' for Inactive)
REMARK    1  A    between atoms: C_1  and  C_2
REMARK    2  A    between atoms: C_2  and  C_3
REMARK    3  A    between atoms: C_2  and  N_18
REMARK    4  A    between atoms: N_8  and  C_11
REMARK    5  A    between atoms: N_18  and  C_19
REMARK    6  A    between atoms: C_20  and  C_21
REMARK                            x       y       z     vdW  Elec       q    Type
REMARK                         _______ _______ _______ _____ _____    ______ ____
ROOT
ATOM      1  C   UNL     1      -2.167   1.071  -1.221  0.00  0.00    +0.100 A 
ATOM      2  C   UNL     1      -2.589   0.200  -2.181  0.00  0.00    +0.263 A 
ATOM      3  N   UNL     1      -3.881  -0.262  -2.152  0.00  0.00    -0.274 N 
ATOM      4  C   UNL     1      -4.727   0.139  -1.185  0.00  0.00    +0.332 A 
ATOM      5  O   UNL     1      -5.868  -0.281  -1.176  0.00  0.00    -0.246 OA
ATOM      6  N   UNL     1      -4.328   0.998  -0.229  0.00  0.00    -0.257 N 
ATOM      7  C   UNL     1      -3.067   1.471  -0.217  0.00  0.00    +0.265 A 
ATOM      8  O   UNL     1      -2.709   2.245   0.654  0.00  0.00    -0.267 OA
ATOM      9  O   UNL     1      -1.744  -0.204  -3.153  0.00  0.00    -0.267 OA
ATOM     10  H   UNL     1      -4.186  -0.881  -2.833  0.00  0.00    +0.173 HD
ENDROOT
BRANCH   6  11
ATOM     11  C   UNL     1      -5.272   1.417   0.811  0.00  0.00    +0.095 C 
ATOM     12  C   UNL     1      -6.471   2.111   0.162  0.00  0.00    +0.025 C 
ATOM     13  C   UNL     1      -7.456   2.549   1.248  0.00  0.00    +0.002 C 
ATOM     14  C   UNL     1      -7.936   1.321   2.025  0.00  0.00    +0.000 C 
ATOM     15  C   UNL     1      -6.738   0.627   2.674  0.00  0.00    +0.002 C 
ATOM     16  C   UNL     1      -5.752   0.189   1.588  0.00  0.00    +0.025 C 
ENDBRANCH   6  11
BRANCH   1  18
ATOM     17  C   UNL     1      -0.013   1.086   0.008  0.00  0.00    +0.031 C 
ATOM     18  C   UNL     1      -0.753   1.593  -1.232  0.00  0.00    +0.091 C 
BRANCH  18  19
ATOM     19  N   UNL     1      -0.773   3.062  -1.223  0.00  0.00    -0.405 NA
ATOM     20  H   UNL     1      -1.330   3.394  -1.996  0.00  0.00    +0.123 HD
ATOM     21  H   UNL     1      -1.171   3.388  -0.356  0.00  0.00    +0.123 HD
BRANCH  19  22
ATOM     22  C   UNL     1       0.533   3.546  -1.348  0.00  0.00    +0.050 C 
ATOM     23  C   UNL     1       0.835   4.399  -2.321  0.00  0.00    +0.016 C 
BRANCH  23  24
ATOM     24  C   UNL     1       2.208   4.909  -2.452  0.00  0.00    -0.050 C 
ATOM     25  C   UNL     1       2.464   5.755  -3.425  0.00  0.00    -0.023 C 
ATOM     26  C   UNL     1       3.819   6.347  -3.682  0.00  0.00    +0.027 C 
ATOM     27  C   UNL     1       4.710   6.178  -2.449  0.00  0.00    +0.004 C 
ATOM     28  C   UNL     1       4.644   4.714  -1.998  0.00  0.00    +0.005 C 
ATOM     29  C   UNL     1       3.235   4.437  -1.464  0.00  0.00    +0.035 C 
ENDBRANCH  23  24
ENDBRANCH  19  22
ENDBRANCH  18  19
ENDBRANCH   1  18
TORSDOF 5
