REMARK  Name = ZINC08653586
REMARK  4 active torsions:
REMARK  status: ('A' for Active; 'I' for Inactive)
REMARK    1  A    between atoms: C_3  and  C_9
REMARK    2  A    between atoms: C_9  and  C_11
REMARK    3  A    between atoms: C_9  and  O_26
REMARK    4  A    between atoms: C_11  and  N_24
REMARK                            x       y       z     vdW  Elec       q    Type
REMARK                         _______ _______ _______ _____ _____    ______ ____
ROOT
ATOM      1  C   UNL     1       4.181   2.329   1.388  0.00  0.00    +0.144 C 
ATOM      2  C   UNL     1       5.444   1.869   1.781  0.00  0.00    +0.122 C 
ATOM      3  C   UNL     1       6.275   1.074   0.843  0.00  0.00    +0.264 C 
ATOM      4  O   UNL     1       5.866   0.817  -0.272  0.00  0.00    -0.268 OA
ATOM      5  N   UNL     1       7.488   0.640   1.240  0.00  0.00    -0.279 N 
ATOM      6  C   UNL     1       7.950   0.937   2.515  0.00  0.00    +0.056 A 
ATOM      7  C   UNL     1       9.202   0.486   2.919  0.00  0.00    +0.045 A 
ATOM      8  C   UNL     1       9.666   0.779   4.186  0.00  0.00    +0.043 A 
ATOM      9  C   UNL     1       8.887   1.523   5.061  0.00  0.00    +0.022 A 
ATOM     10  C   UNL     1       7.644   1.975   4.674  0.00  0.00    +0.026 A 
ATOM     11  C   UNL     1       7.165   1.687   3.398  0.00  0.00    +0.053 A 
ATOM     12  N   UNL     1       5.917   2.148   3.012  0.00  0.00    -0.307 N 
ATOM     13 CL   UNL     1      11.229   0.214   4.686  0.00  0.00    -0.083 Cl
ATOM     14  H   UNL     1       8.039   0.120   0.634  0.00  0.00    +0.155 HD
ATOM     15  H   UNL     1       5.381   2.670   3.630  0.00  0.00    +0.152 HD
ENDROOT
BRANCH   1  16
ATOM     16  N   UNL     1       3.546   3.211   2.124  0.00  0.00    -0.030 NA
ATOM     17  O   UNL     1       2.497   3.689   1.732  0.00  0.00    -0.143 OA
ENDBRANCH   1  16
BRANCH   1  18
ATOM     18  C   UNL     1       3.550   1.812   0.121  0.00  0.00    +0.200 C 
BRANCH  18  21
ATOM     19  C   UNL     1      -0.203   1.686   0.501  0.00  0.00    +0.020 A 
ATOM     20  C   UNL     1       1.072   2.144   0.230  0.00  0.00    +0.009 A 
ATOM     21  C   UNL     1       2.160   1.313   0.418  0.00  0.00    +0.005 A 
ATOM     22  C   UNL     1       1.973   0.022   0.880  0.00  0.00    +0.048 A 
ATOM     23  C   UNL     1       0.697  -0.437   1.152  0.00  0.00    +0.040 A 
ATOM     24  C   UNL     1      -0.392   0.396   0.963  0.00  0.00    +0.042 A 
ATOM     25 CL   UNL     1      -1.994  -0.179   1.305  0.00  0.00    -0.083 Cl
ATOM     26 CL   UNL     1       3.340  -1.022   1.116  0.00  0.00    -0.083 Cl
ENDBRANCH  18  21
BRANCH  18  27
ATOM     27  O   UNL     1       3.482   2.867  -0.841  0.00  0.00    -0.381 OA
ATOM     28  H   UNL     1       2.961   3.629  -0.553  0.00  0.00    +0.211 HD
ENDBRANCH  18  27
ENDBRANCH   1  18
TORSDOF 4
