REMARK  Name = ZINC45623211
REMARK  3 active torsions:
REMARK  status: ('A' for Active; 'I' for Inactive)
REMARK    1  A    between atoms: C_1  and  C_2
REMARK    2  A    between atoms: C_13  and  C_15
REMARK    3  A    between atoms: C_17  and  N_22
REMARK                            x       y       z     vdW  Elec       q    Type
REMARK                         _______ _______ _______ _____ _____    ______ ____
ROOT
ATOM      1  C   UNL     1      -0.309   0.992  -0.258  0.00  0.00    +0.028 C 
ATOM      2  C   UNL     1      -0.193  -0.508   0.019  0.00  0.00    +0.074 C 
ATOM      3  C   UNL     1       0.378  -1.243  -1.238  0.00  0.00    +0.025 C 
ATOM      4  C   UNL     1       1.257  -2.293  -0.577  0.00  0.00    -0.008 C 
ATOM      5  C   UNL     1       2.500  -2.845  -1.237  0.00  0.00    -0.077 C 
ATOM      6  N   UNL     1       3.509  -2.958  -0.140  0.00  0.00    +0.380 N 
ATOM      7  C   UNL     1       2.927  -2.318   1.086  0.00  0.00    -0.060 C 
ATOM      8  C   UNL     1       1.910  -1.366   0.520  0.00  0.00    +0.061 C 
ATOM      9  N   UNL     1       0.778  -0.751   1.128  0.00  0.00    -0.293 N 
ATOM     10  C   UNL     1       0.616  -0.450   2.432  0.00  0.00    +0.248 C 
ATOM     11  O   UNL     1       1.536  -0.607   3.211  0.00  0.00    -0.270 OA
ATOM     12  H   UNL     1       3.708  -3.930   0.043  0.00  0.00    -0.086 HD
ATOM     13  H   UNL     1       4.356  -2.479  -0.406  0.00  0.00    -0.086 HD
ENDROOT
BRANCH  10  14
ATOM     14  C   UNL     1      -0.680   0.071   2.914  0.00  0.00    +0.053 A 
ATOM     15  C   UNL     1      -1.687   0.397   2.005  0.00  0.00    +0.047 A 
ATOM     16  C   UNL     1      -2.894   0.882   2.462  0.00  0.00    +0.127 A 
ATOM     17  C   UNL     1      -3.109   1.046   3.819  0.00  0.00    +0.034 A 
ATOM     18  C   UNL     1      -2.116   0.725   4.727  0.00  0.00    +0.018 A 
ATOM     19  C   UNL     1      -0.905   0.233   4.283  0.00  0.00    +0.030 A 
ATOM     20 BR   UNL     1       0.449  -0.213   5.526  0.00  0.00    -0.050 Br
BRANCH  16  21
ATOM     21  N   UNL     1      -3.963   1.230   1.498  0.00  0.00    +0.056 N 
ATOM     22  O   UNL     1      -3.777   1.088   0.312  0.00  0.00    -0.126 OA
ATOM     23  O   UNL     1      -5.022   1.655   1.897  0.00  0.00    -0.126 OA
ENDBRANCH  16  21
ENDBRANCH  10  14
TORSDOF 2
