REMARK  Name = ZINC01379536
REMARK  8 active torsions:
REMARK  status: ('A' for Active; 'I' for Inactive)
REMARK    1  A    between atoms: C_1  and  O_2
REMARK    2  A    between atoms: O_2  and  C_3
REMARK    3  A    between atoms: C_7  and  O_28
REMARK    4  A    between atoms: C_8  and  N_9
REMARK    5  A    between atoms: C_10  and  C_12
REMARK    6  A    between atoms: N_17  and  S_18
REMARK    7  A    between atoms: S_18  and  C_21
REMARK    8  A    between atoms: O_28  and  C_29
REMARK                            x       y       z     vdW  Elec       q    Type
REMARK                         _______ _______ _______ _____ _____    ______ ____
ROOT
ATOM      1  C   UNL     1      -2.611   0.306   0.764  0.00  0.00    +0.166 C 
ATOM      2  C   UNL     1      -1.807   1.569   0.350  0.00  0.00    +0.031 C 
ATOM      3  C   UNL     1      -1.400   1.210  -1.103  0.00  0.00    +0.019 C 
ATOM      4  C   UNL     1      -2.622   0.426  -1.625  0.00  0.00    +0.110 C 
ATOM      5  N   UNL     1      -3.341  -0.094  -0.453  0.00  0.00    -0.165 NA
ENDROOT
BRANCH   1   7
ATOM      6  N   UNL     1      -3.264   0.353   3.150  0.00  0.00    -0.278 N 
ATOM      7  C   UNL     1      -3.579   0.638   1.871  0.00  0.00    +0.236 C 
ATOM      8  O   UNL     1      -4.642   1.161   1.610  0.00  0.00    -0.274 OA
ATOM      9  H   UNL     1      -2.380   0.019   3.369  0.00  0.00    +0.155 HD
BRANCH   6  15
ATOM     10  C   UNL     1      -4.887   1.751   4.279  0.00  0.00    +0.145 A 
ATOM     11  C   UNL     1      -5.830   1.927   5.279  0.00  0.00    +0.048 A 
ATOM     12  C   UNL     1      -6.095   0.904   6.170  0.00  0.00    +0.007 A 
ATOM     13  C   UNL     1      -5.426  -0.301   6.065  0.00  0.00    +0.048 A 
ATOM     14  C   UNL     1      -4.486  -0.489   5.064  0.00  0.00    +0.145 A 
ATOM     15  C   UNL     1      -4.215   0.538   4.165  0.00  0.00    +0.118 A 
BRANCH  10  17
ATOM     16  C   UNL     1      -5.350   3.978   3.583  0.00  0.00    +0.277 C 
ATOM     17  O   UNL     1      -4.623   2.760   3.406  0.00  0.00    -0.493 OA
ENDBRANCH  10  17
BRANCH  14  18
ATOM     18  O   UNL     1      -3.828  -1.675   4.961  0.00  0.00    -0.493 OA
ATOM     19  C   UNL     1      -4.157  -2.683   5.918  0.00  0.00    +0.277 C 
ENDBRANCH  14  18
ENDBRANCH   6  15
ENDBRANCH   1   7
BRANCH   5  20
ATOM     20  S   UNL     1      -4.738  -0.982  -0.493  0.00  0.00    +0.062 S 
ATOM     21  O   UNL     1      -5.286  -0.937   0.817  0.00  0.00    -0.153 OA
ATOM     22  O   UNL     1      -5.461  -0.550  -1.637  0.00  0.00    -0.153 OA
BRANCH  20  23
ATOM     23  C   UNL     1      -4.281  -2.658  -0.790  0.00  0.00    +0.106 A 
ATOM     24  C   UNL     1      -4.191  -3.131  -2.086  0.00  0.00    +0.030 A 
ATOM     25  C   UNL     1      -3.828  -4.443  -2.320  0.00  0.00    +0.022 A 
ATOM     26  C   UNL     1      -3.564  -5.288  -1.256  0.00  0.00    +0.041 A 
ATOM     27  C   UNL     1      -3.659  -4.816   0.041  0.00  0.00    +0.022 A 
ATOM     28  C   UNL     1      -4.017  -3.501   0.274  0.00  0.00    +0.030 A 
ATOM     29 CL   UNL     1      -3.113  -6.938  -1.548  0.00  0.00    -0.084 Cl
ENDBRANCH  20  23
ENDBRANCH   5  20
TORSDOF 6
