REMARK  Name = ZINC17106642
REMARK  5 active torsions:
REMARK  status: ('A' for Active; 'I' for Inactive)
REMARK    1  A    between atoms: C_1  and  C_2
REMARK    2  A    between atoms: C_2  and  C_3
REMARK    3  A    between atoms: C_2  and  C_4
REMARK    4  A    between atoms: C_2  and  C_6
REMARK    5  A    between atoms: CB_14  and  CG_15
REMARK                            x       y       z     vdW  Elec       q    Type
REMARK                         _______ _______ _______ _____ _____    ______ ____
ROOT
ATOM      1  C   UNK A   2       0.718  -0.497  -1.257  0.00  0.00    +0.043 C 
ATOM      2  C   UNK A   2       2.205  -0.063  -1.318  0.00  0.00    +0.048 C 
ATOM      3  C   UNK A   2       2.817  -1.139  -2.245  0.00  0.00    +0.165 C 
ATOM      4  C   UNK A   2       4.287  -1.282  -1.954  0.00  0.00    +0.238 C 
ATOM      5  O   UNK A   2       4.937  -0.307  -1.636  0.00  0.00    -0.273 OA
ATOM      6  N   HIS A   1       4.887  -2.488  -2.046  0.00  0.00    -0.280 N 
ATOM      7  CA  HIS A   1       4.117  -3.623  -2.369  0.00  0.00    +0.098 C 
ATOM      8  CB  HIS A   1       4.656  -4.679  -3.026  0.00  0.00    +0.057 C 
ATOM      9  C   HIS A   1       2.696  -3.611  -1.960  0.00  0.00    +0.263 C 
ATOM     10  O   HIS A   1       2.077  -4.634  -1.732  0.00  0.00    -0.269 OA
ATOM     11  N   UNK A   2       2.116  -2.384  -1.868  0.00  0.00    -0.266 N 
ATOM     12  C   UNK A   2       0.790  -2.046  -1.355  0.00  0.00    +0.173 C 
ATOM     13  N   UNK A   2      -0.231  -2.371  -2.362  0.00  0.00    -0.325 N 
ATOM     14  C   UNK A   2      -0.463  -1.239  -3.151  0.00  0.00    +0.032 A 
ATOM     15  C   UNK A   2       0.015  -0.096  -2.533  0.00  0.00    -0.016 A 
ATOM     16  C   UNK A   2      -0.173   1.141  -3.119  0.00  0.00    +0.006 A 
ATOM     17  C   UNK A   2      -0.832   1.241  -4.331  0.00  0.00    +0.000 A 
ATOM     18  C   UNK A   2      -1.303   0.101  -4.956  0.00  0.00    +0.002 A 
ATOM     19  C   UNK A   2      -1.093  -1.131  -4.391  0.00  0.00    +0.023 A 
ATOM     20  H   HIS A   1       5.841  -2.572  -1.891  0.00  0.00    +0.155 HD
ATOM     21  H   UNK A   2      -0.672  -3.229  -2.464  0.00  0.00    +0.148 HD
ENDROOT
BRANCH   8  22
ATOM     22  CG  HIS A   1       6.071  -4.657  -3.416  0.00  0.00    +0.083 A 
ATOM     23  CD2 HIS A   1       6.741  -5.645  -4.083  0.00  0.00    +0.111 A 
ATOM     24  NE2 HIS A   1       8.024  -5.212  -4.238  0.00  0.00    -0.350 N 
ATOM     25  HE2 HIS A   1       8.742  -5.695  -4.675  0.00  0.00    +0.166 HD
ATOM     26  CE1 HIS A   1       8.114  -3.982  -3.669  0.00  0.00    +0.197 A 
ATOM     27  ND1 HIS A   1       6.952  -3.650  -3.186  0.00  0.00    -0.237 NA
ENDBRANCH   8  22
BRANCH   1  29
ATOM     28  C   UNK A   2      -0.019   1.526   0.010  0.00  0.00    +0.016 C 
ATOM     29  C   UNK A   2       0.002  -0.004   0.002  0.00  0.00    -0.004 C 
ATOM     30  C   UNK A   2       0.742  -0.511   1.242  0.00  0.00    +0.016 C 
BRANCH  29  31
ATOM     31  C   UNK A   2      -1.412  -0.526   0.013  0.00  0.00    -0.027 C 
ATOM     32  C   UNK A   2      -2.419   0.312   0.027  0.00  0.00    +0.004 C 
ENDBRANCH  29  31
ENDBRANCH   1  29
TORSDOF 3
