REMARK  Name = ZINC63561324
REMARK  6 active torsions:
REMARK  status: ('A' for Active; 'I' for Inactive)
REMARK    1  A    between atoms: C_1  and  O_2
REMARK    2  A    between atoms: O_2  and  C_3
REMARK    3  A    between atoms: C_6  and  C_9
REMARK    4  A    between atoms: C_11  and  C_15
REMARK    5  A    between atoms: N_20  and  S_23
REMARK    6  A    between atoms: S_23  and  C_26
REMARK                            x       y       z     vdW  Elec       q    Type
REMARK                         _______ _______ _______ _____ _____    ______ ____
ROOT
ATOM      1  C   UNL     1      -7.076  -4.868   1.291  0.00  0.00    +0.246 C 
ATOM      2  O   UNL     1      -7.532  -4.248   2.228  0.00  0.00    -0.273 OA
ATOM      3  N   UNL     1      -6.963  -6.209   1.360  0.00  0.00    -0.297 N 
ATOM      4  C   UNL     1      -6.406  -6.972   0.234  0.00  0.00    +0.125 C 
ATOM      5  C   UNL     1      -5.231  -7.814   0.746  0.00  0.00    +0.128 C 
ATOM      6  N   UNL     1      -5.662  -8.540   1.950  0.00  0.00    -0.173 NA
ATOM      7  C   UNL     1      -6.219  -7.776   3.075  0.00  0.00    +0.128 C 
ATOM      8  C   UNL     1      -7.389  -6.934   2.565  0.00  0.00    +0.125 C 
ENDROOT
BRANCH   1  11
ATOM      9  C   UNL     1      -4.963  -2.620   0.035  0.00  0.00    +0.092 C 
ATOM     10  C   UNL     1      -5.128  -3.957   0.039  0.00  0.00    +0.040 C 
ATOM     11  C   UNL     1      -6.635  -4.138   0.048  0.00  0.00    +0.238 C 
ATOM     12  N   UNL     1      -7.139  -2.755   0.047  0.00  0.00    -0.170 NA
ATOM     13  N   UNL     1      -6.170  -1.994   0.045  0.00  0.00    -0.153 NA
BRANCH   9  17
ATOM     14  C   UNL     1      -1.200  -0.637   0.010  0.00  0.00    +0.120 A 
ATOM     15  C   UNL     1      -2.374   0.104   0.019  0.00  0.00    +0.046 A 
ATOM     16  C   UNL     1      -3.595  -0.536   0.027  0.00  0.00    +0.013 A 
ATOM     17  C   UNL     1      -3.651  -1.928   0.026  0.00  0.00    +0.002 A 
ATOM     18  C   UNL     1      -2.471  -2.670   0.016  0.00  0.00    +0.013 A 
ATOM     19  C   UNL     1      -1.252  -2.025   0.003  0.00  0.00    +0.046 A 
BRANCH  14  21
ATOM     20  C   UNL     1      -0.017   1.425   0.010  0.00  0.00    +0.277 C 
ATOM     21  O   UNL     1       0.002  -0.004   0.002  0.00  0.00    -0.495 OA
ENDBRANCH  14  21
ENDBRANCH   9  17
ENDBRANCH   1  11
BRANCH   6  22
ATOM     22  S   UNL     1      -5.523 -10.188   2.035  0.00  0.00    +0.067 S 
ATOM     23  O   UNL     1      -6.481 -10.627   2.989  0.00  0.00    -0.152 OA
ATOM     24  O   UNL     1      -5.508 -10.664   0.696  0.00  0.00    -0.152 OA
BRANCH  22  25
ATOM     25  C   UNL     1      -3.937 -10.542   2.713  0.00  0.00    +0.144 A 
ATOM     26  C   UNL     1      -3.580 -10.704   4.011  0.00  0.00    +0.038 A 
ATOM     27  C   UNL     1      -2.260 -10.980   4.314  0.00  0.00    +0.030 A 
ATOM     28  C   UNL     1      -1.361 -11.082   3.303  0.00  0.00    +0.080 A 
ATOM     29  S   UNL     1      -2.383 -10.790   1.869  0.00  0.00    -0.057 S 
ATOM     30 CL   UNL     1       0.341 -11.415   3.383  0.00  0.00    -0.076 Cl
ENDBRANCH  22  25
ENDBRANCH   6  22
TORSDOF 5
