REMARK  Name = ZINC65011691
REMARK  6 active torsions:
REMARK  status: ('A' for Active; 'I' for Inactive)
REMARK    1  A    between atoms: C_1  and  C_2
REMARK    2  A    between atoms: C_3  and  C_31
REMARK    3  A    between atoms: C_9  and  C_12
REMARK    4  A    between atoms: C_12  and  N_13
REMARK    5  A    between atoms: N_13  and  S_14
REMARK    6  A    between atoms: S_14  and  C_17
REMARK                            x       y       z     vdW  Elec       q    Type
REMARK                         _______ _______ _______ _____ _____    ______ ____
ROOT
ATOM      1  S   UNL     1      -1.613  -1.541   7.018  0.00  0.00    +0.059 S 
ATOM      2  O   UNL     1      -3.019  -1.423   7.178  0.00  0.00    -0.153 OA
ATOM      3  O   UNL     1      -0.884  -2.668   7.485  0.00  0.00    -0.153 OA
ENDROOT
BRANCH   1   4
ATOM      4  C   UNL     1      -0.898  -0.125   7.785  0.00  0.00    +0.107 A 
ATOM      5  C   UNL     1       0.413  -0.169   8.228  0.00  0.00    +0.030 A 
ATOM      6  C   UNL     1       0.981   0.935   8.831  0.00  0.00    +0.030 A 
ATOM      7  C   UNL     1       0.235   2.098   8.995  0.00  0.00    +0.066 A 
ATOM      8  C   UNL     1      -1.086   2.142   8.548  0.00  0.00    +0.068 A 
ATOM      9  C   UNL     1      -1.645   1.025   7.937  0.00  0.00    +0.056 A 
ATOM     10  N   UNL     1      -1.848   3.297   8.703  0.00  0.00    -0.316 N 
ATOM     11  H   UNL     1      -2.766   3.317   8.390  0.00  0.00    +0.169 HD
ATOM     12  C   UNL     1      -1.313   4.386   9.290  0.00  0.00    +0.314 A 
ATOM     13  O   UNL     1      -1.974   5.396   9.429  0.00  0.00    -0.262 OA
ATOM     14  C   UNL     1       0.100   4.340   9.767  0.00  0.00    +0.314 A 
ATOM     15  O   UNL     1       0.600   5.310  10.298  0.00  0.00    -0.262 OA
ATOM     16  N   UNL     1       0.815   3.208   9.604  0.00  0.00    -0.316 N 
ATOM     17  H   UNL     1       1.734   3.167   9.911  0.00  0.00    +0.169 HD
ENDBRANCH   1   4
BRANCH   1  18
ATOM     18  N   UNL     1      -1.310  -1.423   5.394  0.00  0.00    -0.186 NA
ATOM     19  H   UNL     1      -2.045  -1.314   4.770  0.00  0.00    +0.148 HD
BRANCH  18  20
ATOM     20  C   UNL     1       0.068  -1.482   4.899  0.00  0.00    +0.141 C 
BRANCH  20  29
ATOM     21  C   UNL     1      -0.018   1.503   0.010  0.00  0.00    +0.046 C 
ATOM     22  C   UNL     1       0.002  -0.004   0.002  0.00  0.00    -0.022 A 
ATOM     23  C   UNL     1       0.009  -0.797  -1.081  0.00  0.00    +0.017 A 
ATOM     24  N   UNL     1       0.028  -2.110  -0.699  0.00  0.00    -0.358 N 
ATOM     25  H   UNL     1       0.036  -2.867  -1.305  0.00  0.00    +0.166 HD
ATOM     26  C   UNL     1       0.035  -2.197   0.676  0.00  0.00    +0.047 A 
ATOM     27  C   UNL     1       0.025  -0.882   1.175  0.00  0.00    +0.003 A 
ATOM     28  C   UNL     1       0.035  -0.659   2.553  0.00  0.00    +0.015 A 
ATOM     29  C   UNL     1       0.057  -1.723   3.411  0.00  0.00    -0.031 A 
ATOM     30  C   UNL     1       0.071  -3.022   2.924  0.00  0.00    +0.007 A 
ATOM     31  C   UNL     1       0.052  -3.264   1.567  0.00  0.00    +0.026 A 
ATOM     32  C   UNL     1      -0.004  -0.311  -2.508  0.00  0.00    +0.063 C 
ENDBRANCH  20  29
ENDBRANCH  18  20
ENDBRANCH   1  18
TORSDOF 4
