REMARK  Name = ZINC14550776
REMARK  4 active torsions:
REMARK  status: ('A' for Active; 'I' for Inactive)
REMARK    1  A    between atoms: C_3  and  N_33
REMARK    2  A    between atoms: C_6  and  C_7
REMARK    3  A    between atoms: C_18  and  S_23
REMARK    4  A    between atoms: S_23  and  N_26
REMARK                            x       y       z     vdW  Elec       q    Type
REMARK                         _______ _______ _______ _____ _____    ______ ____
ROOT
ATOM      1  C   UNL     1      -0.765   0.799   2.486  0.00  0.00    +0.105 C 
ATOM      2  C   UNL     1      -0.807   1.618   1.208  0.00  0.00    +0.029 C 
ATOM      3  C   UNL     1      -0.013   1.086   0.008  0.00  0.00    +0.033 C 
ATOM      4  C   UNL     1      -0.827   1.629  -1.167  0.00  0.00    -0.030 C 
ATOM      5  C   UNL     1      -2.087   1.821  -0.796  0.00  0.00    -0.023 C 
ATOM      6  C   UNL     1      -2.235   1.399   0.620  0.00  0.00    +0.049 C 
ATOM      7  C   UNL     1      -3.204   2.045   1.532  0.00  0.00    -0.018 A 
ATOM      8  C   UNL     1      -4.354   2.652   1.078  0.00  0.00    +0.034 A 
ATOM      9  C   UNL     1      -5.236   3.232   1.971  0.00  0.00    +0.106 A 
ATOM     10  C   UNL     1      -4.965   3.202   3.327  0.00  0.00    +0.030 A 
ATOM     11  C   UNL     1      -3.811   2.601   3.794  0.00  0.00    +0.025 A 
ATOM     12  C   UNL     1      -2.915   2.021   2.903  0.00  0.00    +0.031 A 
ATOM     13  N   UNL     1      -1.745   1.431   3.396  0.00  0.00    -0.336 N 
ATOM     14  H   UNL     1      -1.573   1.437   4.350  0.00  0.00    +0.147 HD
ENDROOT
BRANCH   1  20
ATOM     15  C   UNL     1       1.007   1.949   3.829  0.00  0.00    +0.008 A 
ATOM     16  C   UNL     1       2.271   1.993   4.387  0.00  0.00    +0.033 A 
ATOM     17  C   UNL     1       3.146   0.939   4.200  0.00  0.00    +0.126 A 
ATOM     18  C   UNL     1       2.756  -0.160   3.457  0.00  0.00    +0.033 A 
ATOM     19  C   UNL     1       1.490  -0.205   2.902  0.00  0.00    +0.008 A 
ATOM     20  C   UNL     1       0.615   0.848   3.090  0.00  0.00    -0.027 A 
BRANCH  17  21
ATOM     21  N   UNL     1       4.500   0.987   4.794  0.00  0.00    +0.056 N 
ATOM     22  O   UNL     1       5.271   0.059   4.629  0.00  0.00    -0.126 OA
ATOM     23  O   UNL     1       4.844   1.955   5.449  0.00  0.00    -0.126 OA
ENDBRANCH  17  21
ENDBRANCH   1  20
BRANCH   9  24
ATOM     24  S   UNL     1      -6.705   4.007   1.383  0.00  0.00    +0.061 S 
ATOM     25  O   UNL     1      -7.091   4.950   2.373  0.00  0.00    -0.153 OA
ATOM     26  O   UNL     1      -6.456   4.378   0.034  0.00  0.00    -0.153 OA
BRANCH  24  27
ATOM     27  N   UNL     1      -7.888   2.849   1.345  0.00  0.00    -0.177 NA
ATOM     28  C   UNL     1      -8.064   2.077   0.135  0.00  0.00    +0.109 C 
ATOM     29  C   UNL     1      -9.058   2.791  -0.805  0.00  0.00    +0.017 C 
ATOM     30  C   UNL     1     -10.423   2.707  -0.262  0.00  0.00    +0.001 C 
ATOM     31  C   UNL     1     -10.608   3.400   1.084  0.00  0.00    +0.001 C 
ATOM     32  C   UNL     1     -10.210   2.457   2.192  0.00  0.00    +0.017 C 
ATOM     33  C   UNL     1      -8.724   2.652   2.545  0.00  0.00    +0.109 C 
ENDBRANCH  24  27
ENDBRANCH   9  24
TORSDOF 4
