REMARK  Name = ZINC05390907
REMARK  4 active torsions:
REMARK  status: ('A' for Active; 'I' for Inactive)
REMARK    1  A    between atoms: C_4  and  N_25
REMARK    2  A    between atoms: C_5  and  N_7
REMARK    3  A    between atoms: C_8  and  C_10
REMARK    4  A    between atoms: C_10  and  N_11
REMARK                            x       y       z     vdW  Elec       q    Type
REMARK                         _______ _______ _______ _____ _____    ______ ____
ROOT
ATOM      1  C   UNL     1      -2.625   5.080   0.830  0.00  0.00    +0.207 C 
ENDROOT
BRANCH   1   2
ATOM      2  N   UNL     1      -2.509   3.845   0.051  0.00  0.00    -0.289 N 
ATOM      3  C   UNL     1      -1.295   3.149   0.056  0.00  0.00    +0.048 A 
ATOM      4  C   UNL     1      -0.094   3.840   0.062  0.00  0.00    +0.024 A 
ATOM      5  C   UNL     1       1.104   3.146   0.065  0.00  0.00    +0.002 A 
ATOM      6  C   UNL     1       1.111   1.764   0.061  0.00  0.00    +0.001 A 
ATOM      7  C   UNL     1      -0.084   1.063   0.055  0.00  0.00    +0.017 A 
ATOM      8  C   UNL     1      -1.281   1.752   0.047  0.00  0.00    +0.034 A 
ATOM      9  S   UNL     1      -2.820   0.887   0.049  0.00  0.00    -0.086 S 
ATOM     10  C   UNL     1      -3.891   2.027  -0.769  0.00  0.00    +0.034 A 
ATOM     11  C   UNL     1      -3.616   3.394  -0.677  0.00  0.00    +0.048 A 
ATOM     12  C   UNL     1      -4.449   4.299  -1.316  0.00  0.00    +0.024 A 
ATOM     13  C   UNL     1      -5.541   3.846  -2.035  0.00  0.00    +0.002 A 
ATOM     14  C   UNL     1      -5.809   2.494  -2.122  0.00  0.00    +0.001 A 
ATOM     15  C   UNL     1      -4.984   1.580  -1.488  0.00  0.00    +0.017 A 
ENDBRANCH   1   2
BRANCH   1  17
ATOM     16  N   UNL     1      -2.260   7.501   0.482  0.00  0.00    -0.282 N 
ATOM     17  C   UNL     1      -2.230   6.254  -0.028  0.00  0.00    +0.235 C 
ATOM     18  O   UNL     1      -1.885   6.077  -1.177  0.00  0.00    -0.274 OA
ATOM     19  H   UNL     1      -2.596   7.650   1.380  0.00  0.00    +0.155 HD
BRANCH  16  24
ATOM     20  C   UNL     1      -1.564   9.664  -2.409  0.00  0.00    +0.002 A 
ATOM     21  C   UNL     1      -0.906  10.715  -1.796  0.00  0.00    +0.002 A 
ATOM     22  C   UNL     1      -0.696  10.702  -0.430  0.00  0.00    +0.034 A 
ATOM     23  C   UNL     1      -1.144   9.637   0.328  0.00  0.00    +0.147 A 
ATOM     24  C   UNL     1      -1.805   8.581  -0.283  0.00  0.00    +0.064 A 
ATOM     25  C   UNL     1      -2.010   8.595  -1.657  0.00  0.00    +0.025 A 
BRANCH  23  26
ATOM     26  N   UNL     1      -0.918   9.623   1.791  0.00  0.00    +0.058 N 
ATOM     27  O   UNL     1      -0.428  10.593   2.341  0.00  0.00    -0.126 OA
ATOM     28  O   UNL     1      -1.223   8.642   2.445  0.00  0.00    -0.126 OA
ENDBRANCH  23  26
ENDBRANCH  16  24
ENDBRANCH   1  17
TORSDOF 4
