REMARK  Name = ZINC12557206
REMARK  5 active torsions:
REMARK  status: ('A' for Active; 'I' for Inactive)
REMARK    1  A    between atoms: C_10  and  N_11
REMARK    2  A    between atoms: N_11  and  S_12
REMARK    3  A    between atoms: S_12  and  C_15
REMARK    4  A    between atoms: C_18  and  C_21
REMARK    5  A    between atoms: C_22  and  C_23
REMARK                            x       y       z     vdW  Elec       q    Type
REMARK                         _______ _______ _______ _____ _____    ______ ____
ROOT
ATOM      1  S   UNL     1      -3.821   3.075   0.772  0.00  0.00    +0.072 S 
ATOM      2  O   UNL     1      -4.926   3.938   0.543  0.00  0.00    -0.150 OA
ATOM      3  O   UNL     1      -3.822   1.712   0.369  0.00  0.00    -0.150 OA
ENDROOT
BRANCH   1   4
ATOM      4  C   UNL     1      -3.523   3.087   2.508  0.00  0.00    +0.109 A 
ATOM      5  C   UNL     1      -2.880   2.015   3.104  0.00  0.00    +0.029 A 
ATOM      6  C   UNL     1      -2.638   2.020   4.461  0.00  0.00    +0.010 A 
ATOM      7  C   UNL     1      -3.054   3.106   5.238  0.00  0.00    -0.025 A 
ATOM      8  C   UNL     1      -3.709   4.181   4.630  0.00  0.00    +0.010 A 
ATOM      9  C   UNL     1      -3.938   4.164   3.271  0.00  0.00    +0.029 A 
BRANCH   7  10
ATOM     10  C   UNL     1      -2.806   3.116   6.689  0.00  0.00    +0.015 C 
ATOM     11  C   UNL     1      -2.174   2.076   7.272  0.00  0.00    +0.096 C 
BRANCH  11  12
ATOM     12  C   UNL     1      -1.927   2.086   8.714  0.00  0.00    +0.380 C 
ATOM     13  O   UNL     1      -2.291   3.031   9.386  0.00  0.00    -0.241 OA
ATOM     14  O   UNL     1      -1.296   1.046   9.297  0.00  0.00    -0.241 OA
ENDBRANCH  11  12
ENDBRANCH   7  10
ENDBRANCH   1   4
BRANCH   1  15
ATOM     15  N   UNL     1      -2.510   3.780   0.045  0.00  0.00    -0.216 N 
ATOM     16  H   UNL     1      -2.625   4.583  -0.488  0.00  0.00    +0.174 HD
BRANCH  15  26
ATOM     17  C   UNL     1       2.163   5.640   0.452  0.00  0.00    +0.001 A 
ATOM     18  C   UNL     1       0.905   6.219   0.297  0.00  0.00    +0.001 A 
ATOM     19  C   UNL     1      -0.215   5.449   0.213  0.00  0.00    +0.010 A 
ATOM     20  C   UNL     1      -0.105   4.052   0.283  0.00  0.00    +0.004 A 
ATOM     21  C   UNL     1       1.174   3.462   0.441  0.00  0.00    -0.016 A 
ATOM     22  C   UNL     1       2.308   4.289   0.523  0.00  0.00    +0.008 A 
ATOM     23  C   UNL     1       1.286   2.063   0.510  0.00  0.00    +0.008 A 
ATOM     24  C   UNL     1       0.171   1.286   0.427  0.00  0.00    +0.002 A 
ATOM     25  C   UNL     1      -1.090   1.853   0.267  0.00  0.00    +0.025 A 
ATOM     26  C   UNL     1      -1.243   3.222   0.200  0.00  0.00    +0.056 A 
ENDBRANCH  15  26
ENDBRANCH   1  15
TORSDOF 5
