REMARK  Name = ZINC36641331
REMARK  7 active torsions:
REMARK  status: ('A' for Active; 'I' for Inactive)
REMARK    1  A    between atoms: C_1  and  N_2
REMARK    2  A    between atoms: N_2  and  C_3
REMARK    3  A    between atoms: N_2  and  C_4
REMARK    4  A    between atoms: C_4  and  C_5
REMARK    5  A    between atoms: C_5  and  N_6
REMARK    6  A    between atoms: C_18  and  C_20
REMARK    7  A    between atoms: N_25  and  C_27
REMARK                            x       y       z     vdW  Elec       q    Type
REMARK                         _______ _______ _______ _____ _____    ______ ____
ROOT
ATOM      1  N   UNL     1       0.933  -0.964   3.245  0.00  0.00    -0.252 N 
ATOM      2  C   UNL     1       2.063  -0.282   3.669  0.00  0.00    +0.168 A 
ATOM      3  N   UNL     1       2.602   0.806   3.173  0.00  0.00    -0.221 NA
ATOM      4  C   UNL     1       3.716   1.368   3.693  0.00  0.00    +0.116 A 
ATOM      5  C   UNL     1       4.394   2.531   3.255  0.00  0.00    +0.152 A 
ATOM      6  C   UNL     1       5.523   2.969   3.901  0.00  0.00    +0.079 A 
ATOM      7  C   UNL     1       6.039   2.292   4.999  0.00  0.00    +0.127 A 
ATOM      8  C   UNL     1       5.400   1.151   5.453  0.00  0.00    +0.055 A 
ATOM      9  C   UNL     1       4.269   0.707   4.812  0.00  0.00    +0.046 A 
ATOM     10  S   UNL     1       3.152  -0.656   5.037  0.00  0.00    -0.052 S 
ATOM     11  F   UNL     1       7.152   2.743   5.617  0.00  0.00    -0.205 F 
ATOM     12  F   UNL     1       3.925   3.217   2.190  0.00  0.00    -0.203 F 
ATOM     13  C   UNL     1       0.615  -2.150   3.800  0.00  0.00    +0.226 C 
ATOM     14  O   UNL     1      -0.434  -2.690   3.517  0.00  0.00    -0.275 OA
ENDROOT
BRANCH  13  15
ATOM     15  C   UNL     1       1.561  -2.806   4.772  0.00  0.00    +0.102 C 
ATOM     16  C   UNL     1       1.249  -2.375   6.224  0.00  0.00    +0.110 C 
ATOM     17  C   UNL     1       0.316  -3.449   6.738  0.00  0.00    +0.221 C 
ATOM     18  O   UNL     1      -0.382  -3.350   7.725  0.00  0.00    -0.275 OA
ATOM     19  N   UNL     1       0.371  -4.529   5.940  0.00  0.00    -0.271 N 
ATOM     20  C   UNL     1       1.319  -4.330   4.837  0.00  0.00    +0.127 C 
BRANCH  19  21
ATOM     21  C   UNL     1      -0.380  -5.695   6.135  0.00  0.00    +0.036 A 
ATOM     22  C   UNL     1      -1.267  -5.780   7.200  0.00  0.00    +0.026 A 
ATOM     23  C   UNL     1      -2.007  -6.931   7.391  0.00  0.00    +0.040 A 
ATOM     24  C   UNL     1      -1.864  -7.999   6.522  0.00  0.00    +0.124 A 
ATOM     25  C   UNL     1      -0.980  -7.916   5.459  0.00  0.00    +0.040 A 
ATOM     26  C   UNL     1      -0.243  -6.765   5.261  0.00  0.00    +0.026 A 
ATOM     27  F   UNL     1      -2.588  -9.124   6.711  0.00  0.00    -0.205 F 
ENDBRANCH  19  21
ENDBRANCH  13  15
BRANCH   1  28
ATOM     28  C   UNL     1       0.086  -0.396   2.194  0.00  0.00    +0.097 C 
BRANCH  28  29
ATOM     29  C   UNL     1       0.506  -0.963   0.837  0.00  0.00    -0.060 C 
BRANCH  29  31
ATOM     30  C   UNL     1      -0.310   0.963  -0.336  0.00  0.00    -0.097 C 
ATOM     31  N   UNL     1      -0.423  -0.495  -0.199  0.00  0.00    +0.377 N 
ATOM     32  C   UNL     1      -0.092  -1.134  -1.479  0.00  0.00    -0.097 C 
ATOM     33  H   UNL     1      -1.368  -0.736   0.063  0.00  0.00    -0.083 HD
ENDBRANCH  29  31
ENDBRANCH  28  29
ENDBRANCH   1  28
TORSDOF 5
