REMARK  Name = ZINC06726347
REMARK  4 active torsions:
REMARK  status: ('A' for Active; 'I' for Inactive)
REMARK    1  A    between atoms: C_1  and  C_2
REMARK    2  A    between atoms: C_7  and  C_12
REMARK    3  A    between atoms: N_14  and  C_15
REMARK    4  A    between atoms: C_20  and  C_21
REMARK                            x       y       z     vdW  Elec       q    Type
REMARK                         _______ _______ _______ _____ _____    ______ ____
ROOT
ATOM      1  C   UNL     1       1.202   1.553  -0.017  0.00  0.00    +0.249 C 
ATOM      2  O   UNL     1       1.290   2.762  -0.112  0.00  0.00    -0.270 OA
ATOM      3  N   UNL     1      -0.011   0.966   0.007  0.00  0.00    -0.280 N 
ATOM      4  H   UNL     1      -0.082  -0.002   0.017  0.00  0.00    +0.155 HD
ENDROOT
BRANCH   1  10
ATOM      5  C   UNL     1       7.823   2.735   0.085  0.00  0.00    +0.008 C 
ATOM      6  C   UNL     1       6.385   2.306   0.383  0.00  0.00    -0.009 C 
ATOM      7  C   UNL     1       5.423   3.065  -0.536  0.00  0.00    +0.008 C 
ATOM      8  C   UNL     1       3.980   2.836  -0.082  0.00  0.00    +0.037 C 
ATOM      9  C   UNL     1       3.737   1.337   0.041  0.00  0.00    -0.025 A 
ATOM     10  C   UNL     1       2.419   0.731   0.071  0.00  0.00    +0.047 A 
ATOM     11  C   UNL     1       2.345  -0.641   0.178  0.00  0.00    +0.058 A 
ATOM     12  S   UNL     1       4.008  -1.124   0.247  0.00  0.00    -0.101 S 
ATOM     13  C   UNL     1       4.770   0.470   0.135  0.00  0.00    -0.006 A 
ATOM     14  C   UNL     1       6.230   0.801   0.136  0.00  0.00    +0.046 C 
ENDBRANCH   1  10
BRANCH   3  15
ATOM     15  C   UNL     1      -1.164   1.748   0.013  0.00  0.00    +0.051 A 
ATOM     16  C   UNL     1      -1.196   2.947  -0.686  0.00  0.00    +0.024 A 
ATOM     17  C   UNL     1      -2.341   3.719  -0.683  0.00  0.00    +0.002 A 
ATOM     18  C   UNL     1      -3.460   3.311   0.023  0.00  0.00    +0.001 A 
ATOM     19  C   UNL     1      -3.445   2.126   0.728  0.00  0.00    +0.021 A 
ATOM     20  C   UNL     1      -2.295   1.332   0.730  0.00  0.00    +0.073 A 
BRANCH  20  21
ATOM     21  C   UNL     1      -2.273   0.100   1.459  0.00  0.00    +0.101 C 
ATOM     22  N   UNL     1      -2.255  -0.878   2.038  0.00  0.00    -0.191 NA
ENDBRANCH  20  21
ENDBRANCH   3  15
TORSDOF 3
