REMARK  Name = ZINC03334848
REMARK  7 active torsions:
REMARK  status: ('A' for Active; 'I' for Inactive)
REMARK    1  A    between atoms: C_1  and  C_2
REMARK    2  A    between atoms: C_9  and  N_13
REMARK    3  A    between atoms: C_10  and  C_11
REMARK    4  A    between atoms: C_14  and  C_16
REMARK    5  A    between atoms: C_16  and  N_17
REMARK    6  A    between atoms: C_20  and  C_25
REMARK    7  A    between atoms: C_25  and  C_26
REMARK                            x       y       z     vdW  Elec       q    Type
REMARK                         _______ _______ _______ _____ _____    ______ ____
ROOT
ATOM      1  N   UNL     1      -1.795   2.644  -4.954  0.00  0.00    -0.278 N 
ATOM      2  C   UNL     1      -0.825   2.401  -5.858  0.00  0.00    +0.236 C 
ATOM      3  O   UNL     1       0.226   1.912  -5.503  0.00  0.00    -0.274 OA
ATOM      4  H   UNL     1      -2.636   3.035  -5.239  0.00  0.00    +0.155 HD
ENDROOT
BRANCH   1  12
ATOM      5  C   UNL     1      -0.210   0.850   2.494  0.00  0.00    +0.008 C 
ATOM      6  C   UNL     1      -0.742   1.586   1.263  0.00  0.00    -0.009 C 
ATOM      7  C   UNL     1      -2.241   1.310   1.106  0.00  0.00    +0.008 C 
ATOM      8  C   UNL     1      -2.831   2.229   0.035  0.00  0.00    +0.037 C 
ATOM      9  C   UNL     1      -1.996   2.103  -1.234  0.00  0.00    -0.018 A 
ATOM     10  C   UNL     1      -0.747   1.587  -1.197  0.00  0.00    -0.004 A 
ATOM     11  S   UNL     1      -0.187   1.639  -2.875  0.00  0.00    -0.077 S 
ATOM     12  C   UNL     1      -1.589   2.336  -3.617  0.00  0.00    +0.090 A 
ATOM     13  C   UNL     1      -2.457   2.511  -2.549  0.00  0.00    +0.084 A 
ATOM     14  C   UNL     1      -0.013   1.086   0.008  0.00  0.00    +0.046 C 
BRANCH  13  15
ATOM     15  C   UNL     1      -3.760   3.075  -2.737  0.00  0.00    +0.102 C 
ATOM     16  N   UNL     1      -4.794   3.521  -2.886  0.00  0.00    -0.191 NA
ENDBRANCH  13  15
ENDBRANCH   1  12
BRANCH   2  17
ATOM     17  C   UNL     1      -1.048   2.735  -7.311  0.00  0.00    +0.214 C 
BRANCH  17  18
ATOM     18  N   UNL     1       0.145   2.378  -8.083  0.00  0.00    -0.216 N 
ATOM     19  C   UNL     1       1.175   3.215  -8.315  0.00  0.00    +0.244 C 
ATOM     20  O   UNL     1       1.286   4.362  -7.939  0.00  0.00    -0.273 OA
ATOM     21  C   UNL     1       2.168   2.423  -9.143  0.00  0.00    +0.165 C 
ATOM     22  N   UNL     1       1.517   1.111  -9.302  0.00  0.00    -0.287 N 
ATOM     23  C   UNL     1       0.343   1.182  -8.649  0.00  0.00    +0.310 C 
ATOM     24  O   UNL     1      -0.449   0.263  -8.581  0.00  0.00    -0.252 OA
ATOM     25  H   UNL     1       1.867   0.345  -9.784  0.00  0.00    +0.151 HD
BRANCH  21  26
ATOM     26  C   UNL     1       3.500   2.277  -8.405  0.00  0.00    +0.067 C 
BRANCH  26  27
ATOM     27  C   UNL     1       4.468   1.503  -9.263  0.00  0.00    -0.045 A 
ATOM     28  C   UNL     1       4.532   0.126  -9.162  0.00  0.00    +0.004 A 
ATOM     29  C   UNL     1       5.416  -0.584  -9.953  0.00  0.00    +0.000 A 
ATOM     30  C   UNL     1       6.243   0.084 -10.837  0.00  0.00    +0.000 A 
ATOM     31  C   UNL     1       6.182   1.462 -10.934  0.00  0.00    +0.000 A 
ATOM     32  C   UNL     1       5.295   2.171 -10.147  0.00  0.00    +0.004 A 
ENDBRANCH  26  27
ENDBRANCH  21  26
ENDBRANCH  17  18
ENDBRANCH   2  17
TORSDOF 6
