REMARK  Name = ZINC05508550
REMARK  6 active torsions:
REMARK  status: ('A' for Active; 'I' for Inactive)
REMARK    1  A    between atoms: C_10  and  N_12
REMARK    2  A    between atoms: C_13  and  C_15
REMARK    3  A    between atoms: C_15  and  O_16
REMARK    4  A    between atoms: O_16  and  C_17
REMARK    5  A    between atoms: C_17  and  C_19
REMARK    6  A    between atoms: C_22  and  N_26
REMARK                            x       y       z     vdW  Elec       q    Type
REMARK                         _______ _______ _______ _____ _____    ______ ____
ROOT
ATOM      1  N   UNL     1       3.361   2.383  -0.937  0.00  0.00    -0.306 N 
ATOM      2  C   UNL     1       3.982   3.509  -0.535  0.00  0.00    +0.251 C 
ATOM      3  O   UNL     1       3.833   3.912   0.599  0.00  0.00    -0.272 OA
ATOM      4  H   UNL     1       3.480   2.061  -1.845  0.00  0.00    +0.149 HD
ENDROOT
BRANCH   1  14
ATOM      5  C   UNL     1      -1.343   3.509   0.029  0.00  0.00    +0.000 A 
ATOM      6  C   UNL     1      -0.188   4.269   0.019  0.00  0.00    +0.000 A 
ATOM      7  C   UNL     1       1.043   3.645   0.006  0.00  0.00    +0.006 A 
ATOM      8  C   UNL     1       1.131   2.259   0.003  0.00  0.00    -0.024 A 
ATOM      9  C   UNL     1      -0.018   1.502   0.010  0.00  0.00    -0.042 A 
ATOM     10  C   UNL     1      -1.256   2.132   0.019  0.00  0.00    +0.004 A 
ATOM     11  C   UNL     1       0.002  -0.004   0.002  0.00  0.00    +0.035 C 
ATOM     12  C   UNL     1       1.376  -0.525   0.418  0.00  0.00    +0.007 C 
ATOM     13  C   UNL     1       2.438   0.180  -0.434  0.00  0.00    +0.027 C 
ATOM     14  C   UNL     1       2.507   1.644  -0.004  0.00  0.00    +0.104 C 
ENDBRANCH   1  14
BRANCH   2  15
ATOM     15  C   UNL     1       4.861   4.269  -1.496  0.00  0.00    +0.328 C 
BRANCH  15  16
ATOM     16  O   UNL     1       5.410   5.436  -0.829  0.00  0.00    -0.452 OA
BRANCH  16  17
ATOM     17  C   UNL     1       6.223   6.228  -1.554  0.00  0.00    +0.341 C 
ATOM     18  O   UNL     1       6.467   5.951  -2.712  0.00  0.00    -0.245 OA
BRANCH  17  19
ATOM     19  C   UNL     1       6.819   7.433  -0.942  0.00  0.00    +0.077 A 
ATOM     20  C   UNL     1       6.541   7.754   0.388  0.00  0.00    +0.018 A 
ATOM     21  C   UNL     1       7.101   8.880   0.954  0.00  0.00    +0.033 A 
ATOM     22  C   UNL     1       7.936   9.693   0.206  0.00  0.00    +0.128 A 
ATOM     23  C   UNL     1       8.216   9.382  -1.111  0.00  0.00    +0.053 A 
ATOM     24  C   UNL     1       7.668   8.254  -1.690  0.00  0.00    +0.057 A 
ATOM     25 CL   UNL     1       8.026   7.860  -3.342  0.00  0.00    -0.083 Cl
BRANCH  22  26
ATOM     26  N   UNL     1       8.532  10.900   0.821  0.00  0.00    +0.056 N 
ATOM     27  O   UNL     1       8.287  11.177   1.982  0.00  0.00    -0.126 OA
ATOM     28  O   UNL     1       9.268  11.617   0.166  0.00  0.00    -0.126 OA
ENDBRANCH  22  26
ENDBRANCH  17  19
ENDBRANCH  16  17
ENDBRANCH  15  16
ENDBRANCH   2  15
TORSDOF 6
