REMARK  Name = ZINC66910451
REMARK  5 active torsions:
REMARK  status: ('A' for Active; 'I' for Inactive)
REMARK    1  A    between atoms: C_1  and  C_2
REMARK    2  A    between atoms: C_2  and  N_3
REMARK    3  A    between atoms: C_5  and  S_8
REMARK    4  A    between atoms: S_8  and  N_11
REMARK    5  A    between atoms: C_14  and  C_24
REMARK                            x       y       z     vdW  Elec       q    Type
REMARK                         _______ _______ _______ _____ _____    ______ ____
ROOT
ATOM      1  N   UNL     1       2.762  -4.035  -3.379  0.00  0.00    -0.173 NA
ATOM      2  C   UNL     1       2.863  -5.073  -2.341  0.00  0.00    +0.110 C 
ATOM      3  C   UNL     1       3.496  -6.328  -2.948  0.00  0.00    +0.020 C 
ATOM      4  C   UNL     1       2.712  -6.750  -4.195  0.00  0.00    -0.008 C 
ATOM      5  C   UNL     1       2.761  -5.623  -5.225  0.00  0.00    +0.011 C 
ATOM      6  C   UNL     1       2.086  -4.375  -4.635  0.00  0.00    +0.083 C 
ATOM      7  C   UNL     1       2.199  -3.225  -5.635  0.00  0.00    +0.021 C 
ATOM      8  C   UNL     1       1.477  -3.614  -6.928  0.00  0.00    +0.002 C 
ATOM      9  C   UNL     1       2.109  -4.876  -7.516  0.00  0.00    +0.000 C 
ATOM     10  C   UNL     1       2.024  -6.025  -6.501  0.00  0.00    +0.005 C 
ATOM     11  C   UNL     1       1.258  -7.032  -3.812  0.00  0.00    +0.008 C 
ENDROOT
BRANCH   1  12
ATOM     12  S   UNL     1       3.388  -2.521  -3.132  0.00  0.00    +0.064 S 
ATOM     13  O   UNL     1       3.824  -2.051  -4.400  0.00  0.00    -0.153 OA
ATOM     14  O   UNL     1       4.260  -2.620  -2.015  0.00  0.00    -0.153 OA
BRANCH  12  17
ATOM     15  N   UNL     1       0.600  -0.405  -1.417  0.00  0.00    -0.270 N 
ATOM     16  C   UNL     1       1.643  -1.260  -1.370  0.00  0.00    +0.136 A 
ATOM     17  C   UNL     1       2.054  -1.480  -2.640  0.00  0.00    +0.143 A 
ATOM     18  C   UNL     1       1.234  -0.735  -3.493  0.00  0.00    +0.163 A 
ATOM     19  N   UNL     1       0.358  -0.095  -2.762  0.00  0.00    -0.178 NA
BRANCH  15  21
ATOM     20  C   UNL     1      -0.157   1.633  -0.297  0.00  0.00    +0.029 C 
ATOM     21  C   UNL     1      -0.151   0.103  -0.267  0.00  0.00    +0.140 C 
ENDBRANCH  15  21
ENDBRANCH  12  17
ENDBRANCH   1  12
TORSDOF 3
