REMARK  Name = ZINC05487450
REMARK  4 active torsions:
REMARK  status: ('A' for Active; 'I' for Inactive)
REMARK    1  A    between atoms: C_1  and  N_2
REMARK    2  A    between atoms: C_15  and  N_22
REMARK    3  A    between atoms: C_17  and  O_20
REMARK    4  A    between atoms: O_20  and  C_21
REMARK                            x       y       z     vdW  Elec       q    Type
REMARK                         _______ _______ _______ _____ _____    ______ ____
ROOT
ATOM      1  C   UNL     1       3.881   0.439  -2.760  0.00  0.00    +0.137 C 
ATOM      2  N   UNL     1       4.478   1.645  -2.172  0.00  0.00    -0.255 N 
ATOM      3  C   UNL     1       5.773   1.846  -2.649  0.00  0.00    +0.078 A 
ATOM      4  C   UNL     1       6.273   1.764  -3.942  0.00  0.00    +0.027 A 
ATOM      5  C   UNL     1       7.627   2.020  -4.114  0.00  0.00    +0.002 A 
ATOM      6  C   UNL     1       8.443   2.342  -3.050  0.00  0.00    +0.004 A 
ATOM      7  C   UNL     1       7.955   2.428  -1.752  0.00  0.00    +0.048 A 
ATOM      8  C   UNL     1       6.601   2.175  -1.564  0.00  0.00    +0.148 A 
ATOM      9  O   UNL     1       5.874   2.191  -0.423  0.00  0.00    -0.431 OA
ATOM     10  C   UNL     1       4.651   1.493  -0.709  0.00  0.00    +0.357 C 
ATOM     11  C   UNL     1       4.787   0.039  -0.357  0.00  0.00    +0.089 C 
ATOM     12  C   UNL     1       3.706  -0.668  -0.030  0.00  0.00    +0.017 C 
ATOM     13  C   UNL     1       2.399   0.026  -0.018  0.00  0.00    +0.023 A 
ATOM     14  C   UNL     1       1.203  -0.686  -0.011  0.00  0.00    +0.044 A 
ATOM     15  C   UNL     1       0.002  -0.004   0.002  0.00  0.00    +0.130 A 
ATOM     16  C   UNL     1      -0.017   1.380   0.010  0.00  0.00    +0.082 A 
ATOM     17  C   UNL     1       1.169   2.099   0.002  0.00  0.00    +0.164 A 
ATOM     18  C   UNL     1       2.382   1.426  -0.013  0.00  0.00    +0.176 A 
ATOM     19  O   UNL     1       3.563   2.100  -0.022  0.00  0.00    -0.428 OA
ENDROOT
BRANCH  15  20
ATOM     20  N   UNL     1      -1.272  -0.758   0.009  0.00  0.00    +0.057 N 
ATOM     21  O   UNL     1      -2.333  -0.160   0.021  0.00  0.00    -0.126 OA
ATOM     22  O   UNL     1      -1.259  -1.976   0.002  0.00  0.00    -0.126 OA
ENDBRANCH  15  20
BRANCH  17  23
ATOM     23  O   UNL     1       1.143   3.459   0.010  0.00  0.00    -0.491 OA
ATOM     24  C   UNL     1      -0.142   4.083   0.026  0.00  0.00    +0.277 C 
ENDBRANCH  17  23
TORSDOF 2
