REMARK  Name = ZINC08963114
REMARK  8 active torsions:
REMARK  status: ('A' for Active; 'I' for Inactive)
REMARK    1  A    between atoms: C_1  and  N_2
REMARK    2  A    between atoms: C_9  and  C_11
REMARK    3  A    between atoms: C_11  and  C_13
REMARK    4  A    between atoms: C_11  and  N_46
REMARK    5  A    between atoms: C_13  and  N_14
REMARK    6  A    between atoms: C_15  and  C_17
REMARK    7  A    between atoms: C_23  and  N_46
REMARK    8  A    between atoms: C_24  and  N_46
REMARK                            x       y       z     vdW  Elec       q    Type
REMARK                         _______ _______ _______ _____ _____    ______ ____
ROOT
ATOM      1  C   UNL     1      -2.016   4.705   0.134  0.00  0.00    -0.021 C 
ENDROOT
BRANCH   1  10
ATOM      2  C   UNL     1       3.857   2.021  -0.113  0.00  0.00    +0.129 C 
ATOM      3  N   UNL     1       2.592   1.495  -0.643  0.00  0.00    -0.332 N 
ATOM      4  C   UNL     1       2.198   0.254   0.059  0.00  0.00    +0.109 C 
ATOM      5  C   UNL     1       0.654   0.311   0.005  0.00  0.00    +0.056 C 
ATOM      6  C   UNL     1       0.376   1.797  -0.111  0.00  0.00    -0.025 A 
ATOM      7  C   UNL     1       1.557   2.425  -0.488  0.00  0.00    +0.033 A 
ATOM      8  C   UNL     1       1.565   3.809  -0.656  0.00  0.00    +0.023 A 
ATOM      9  C   UNL     1       0.412   4.539  -0.454  0.00  0.00    +0.004 A 
ATOM     10  C   UNL     1      -0.759   3.904  -0.084  0.00  0.00    -0.059 A 
ATOM     11  C   UNL     1      -0.773   2.531   0.092  0.00  0.00    +0.007 A 
ENDBRANCH   1  10
BRANCH   1  14
ATOM     12  C   UNL     1      -2.856   6.842   0.903  0.00  0.00    -0.096 C 
ATOM     13  C   UNL     1      -1.130   5.697   2.158  0.00  0.00    -0.096 C 
ATOM     14  N   UNL     1      -1.664   5.973   0.807  0.00  0.00    +0.382 N 
ATOM     15  H   UNL     1      -0.944   6.455   0.256  0.00  0.00    -0.082 HD
ENDBRANCH   1  14
BRANCH   1  16
ATOM     16  C   UNL     1      -2.660   5.021  -1.218  0.00  0.00    +0.094 C 
BRANCH  16  17
ATOM     17  N   UNL     1      -3.066   3.772  -1.868  0.00  0.00    -0.310 N 
ATOM     18  C   UNL     1      -3.561   3.796  -3.121  0.00  0.00    +0.279 C 
ATOM     19  O   UNL     1      -3.673   4.854  -3.712  0.00  0.00    -0.267 OA
ATOM     20  H   UNL     1      -2.977   2.929  -1.398  0.00  0.00    +0.149 HD
BRANCH  18  21
ATOM     21  C   UNL     1      -3.966   2.547  -3.772  0.00  0.00    +0.191 A 
ATOM     22  C   UNL     1      -4.482   2.429  -5.032  0.00  0.00    +0.056 A 
ATOM     23  C   UNL     1      -4.725   1.063  -5.243  0.00  0.00    +0.058 A 
ATOM     24  C   UNL     1      -4.353   0.414  -4.116  0.00  0.00    +0.171 A 
ATOM     25  O   UNL     1      -3.891   1.311  -3.235  0.00  0.00    -0.444 OA
ATOM     26 BR   UNL     1      -4.459  -1.453  -3.834  0.00  0.00    -0.008 Br
ENDBRANCH  18  21
ENDBRANCH  16  17
ENDBRANCH   1  16
TORSDOF 5
