REMARK  Name = ZINC66121467
REMARK  9 active torsions:
REMARK  status: ('A' for Active; 'I' for Inactive)
REMARK    1  A    between atoms: C_1  and  C_2
REMARK    2  A    between atoms: C_2  and  C_4
REMARK    3  A    between atoms: C_2  and  N_15
REMARK    4  A    between atoms: C_7  and  S_10
REMARK    5  A    between atoms: S_10  and  N_13
REMARK    6  A    between atoms: N_13  and  C_14
REMARK    7  A    between atoms: C_22  and  C_25
REMARK    8  A    between atoms: C_25  and  C_26
REMARK    9  A    between atoms: C_26  and  C_27
REMARK                            x       y       z     vdW  Elec       q    Type
REMARK                         _______ _______ _______ _____ _____    ______ ____
ROOT
ATOM      1  N   UNL     1       0.688  -0.481  -1.201  0.00  0.00    -0.293 N 
ATOM      2  C   UNL     1       2.031  -0.587  -1.215  0.00  0.00    +0.303 C 
ATOM      3  O   UNL     1       2.681  -0.205  -0.261  0.00  0.00    -0.253 OA
ATOM      4  N   UNL     1       2.654  -1.116  -2.286  0.00  0.00    -0.285 N 
ATOM      5  C   UNL     1       1.896  -1.470  -3.494  0.00  0.00    +0.109 C 
ATOM      6  C   UNL     1       2.545  -0.786  -4.702  0.00  0.00    +0.019 C 
ATOM      7  C   UNL     1       4.028  -1.160  -4.758  0.00  0.00    +0.006 C 
ATOM      8  C   UNL     1       4.729  -0.667  -3.490  0.00  0.00    +0.007 C 
ATOM      9  C   UNL     1       4.106  -1.344  -2.271  0.00  0.00    +0.112 C 
ATOM     10  H   UNL     1       0.174  -0.718  -1.990  0.00  0.00    +0.151 HD
ENDROOT
BRANCH   1  12
ATOM     11  C   UNL     1      -0.024   1.522   0.009  0.00  0.00    +0.033 C 
ATOM     12  C   UNL     1       0.002  -0.008   0.004  0.00  0.00    +0.102 C 
BRANCH  12  13
ATOM     13  C   UNL     1      -1.410  -0.534   0.018  0.00  0.00    -0.027 A 
ATOM     14  C   UNL     1      -2.141  -0.582  -1.154  0.00  0.00    +0.007 A 
ATOM     15  C   UNL     1      -3.437  -1.065  -1.141  0.00  0.00    +0.029 A 
ATOM     16  C   UNL     1      -4.000  -1.500   0.044  0.00  0.00    +0.105 A 
ATOM     17  C   UNL     1      -3.268  -1.452   1.216  0.00  0.00    +0.029 A 
ATOM     18  C   UNL     1      -1.972  -0.974   1.202  0.00  0.00    +0.007 A 
BRANCH  16  19
ATOM     19  S   UNL     1      -5.652  -2.114   0.061  0.00  0.00    +0.058 S 
ATOM     20  O   UNL     1      -6.133  -1.949   1.388  0.00  0.00    -0.153 OA
ATOM     21  O   UNL     1      -6.308  -1.545  -1.064  0.00  0.00    -0.153 OA
BRANCH  19  22
ATOM     22  N   UNL     1      -5.570  -3.745  -0.213  0.00  0.00    -0.193 NA
ATOM     23  C   UNL     1      -4.919  -4.621   0.765  0.00  0.00    +0.127 C 
ATOM     24  H   UNL     1      -5.954  -4.121  -1.021  0.00  0.00    +0.148 HD
ENDBRANCH  19  22
ENDBRANCH  16  19
ENDBRANCH  12  13
ENDBRANCH   1  12
BRANCH   8  25
ATOM     25  C   UNL     1       6.218  -1.011  -3.563  0.00  0.00    +0.014 C 
BRANCH  25  26
ATOM     26  C   UNL     1       6.940  -0.410  -2.355  0.00  0.00    +0.096 C 
BRANCH  26  27
ATOM     27  C   UNL     1       8.406  -0.749  -2.427  0.00  0.00    +0.210 C 
ATOM     28  O   UNL     1       8.832  -1.407  -3.352  0.00  0.00    -0.276 OA
ATOM     29  N   UNL     1       9.245  -0.322  -1.462  0.00  0.00    -0.329 N 
ATOM     30  H   UNL     1       8.904   0.204  -0.721  0.00  0.00    +0.145 HD
ATOM     31  H   UNL     1      10.189  -0.540  -1.508  0.00  0.00    +0.145 HD
ENDBRANCH  26  27
ENDBRANCH  25  26
ENDBRANCH   8  25
TORSDOF 7
