REMARK  Name = ZINC01884162
REMARK  5 active torsions:
REMARK  status: ('A' for Active; 'I' for Inactive)
REMARK    1  A    between atoms: C_4  and  N_7
REMARK    2  A    between atoms: N_7  and  C_8
REMARK    3  A    between atoms: C_8  and  N_18
REMARK    4  A    between atoms: C_9  and  C_10
REMARK    5  A    between atoms: C_9  and  N_15
REMARK                            x       y       z     vdW  Elec       q    Type
REMARK                         _______ _______ _______ _____ _____    ______ ____
ROOT
ATOM      1  C   UNL     1       2.982   0.209   0.026  0.00  0.00    +0.159 C 
ATOM      2  C   UNL     1       4.354  -0.255  -0.252  0.00  0.00    +0.186 C 
ENDROOT
BRANCH   1   3
ATOM      3  N   UNL     1       2.658   1.523  -0.148  0.00  0.00    -0.196 N 
ATOM      4  C   UNL     1       1.539   2.021  -0.789  0.00  0.00    +0.096 A 
ATOM      5  C   UNL     1       0.452   1.435  -1.422  0.00  0.00    +0.030 A 
ATOM      6  C   UNL     1      -0.525   2.230  -1.984  0.00  0.00    +0.002 A 
ATOM      7  C   UNL     1      -0.434   3.612  -1.912  0.00  0.00    +0.002 A 
ATOM      8  C   UNL     1       0.637   4.211  -1.288  0.00  0.00    +0.032 A 
ATOM      9  C   UNL     1       1.641   3.420  -0.717  0.00  0.00    +0.113 A 
ATOM     10  N   UNL     1       2.786   3.715  -0.052  0.00  0.00    -0.129 NA
ATOM     11  N   UNL     1       3.395   2.634   0.289  0.00  0.00    -0.058 NA
ENDBRANCH   1   3
BRANCH   2  12
ATOM     12  C   UNL     1       5.240   0.572  -0.877  0.00  0.00    +0.100 C 
ATOM     13  C   UNL     1       6.574   0.173  -1.045  0.00  0.00    +0.104 C 
ATOM     14 CL   UNL     1       7.740   1.288  -1.687  0.00  0.00    -0.074 Cl
ATOM     15 BR   UNL     1       7.103  -1.580  -0.571  0.00  0.00    -0.036 Br
ATOM     16 CL   UNL     1       4.716   2.119  -1.466  0.00  0.00    -0.079 Cl
ENDBRANCH   2  12
BRANCH   2  17
ATOM     17  N   UNL     1       4.769  -1.619   0.147  0.00  0.00    +0.061 N 
ATOM     18  O   UNL     1       4.702  -2.608  -0.720  0.00  0.00    -0.126 OA
ATOM     19  O   UNL     1       5.206  -1.843   1.369  0.00  0.00    -0.126 OA
ENDBRANCH   2  17
BRANCH   1  20
ATOM     20  N   UNL     1       2.056  -0.658   0.450  0.00  0.00    -0.297 N 
ATOM     21  H   UNL     1       1.991  -1.658  -0.003  0.00  0.00    +0.154 HD
BRANCH  20  25
ATOM     22  C   UNL     1      -0.581   0.430   3.476  0.00  0.00    +0.000 A 
ATOM     23  C   UNL     1      -0.589  -0.865   2.986  0.00  0.00    +0.002 A 
ATOM     24  C   UNL     1       0.284  -1.230   1.981  0.00  0.00    +0.023 A 
ATOM     25  C   UNL     1       1.174  -0.294   1.462  0.00  0.00    +0.032 A 
ATOM     26  C   UNL     1       1.183   1.005   1.962  0.00  0.00    +0.023 A 
ATOM     27  C   UNL     1       0.302   1.363   2.962  0.00  0.00    +0.002 A 
ENDBRANCH  20  25
ENDBRANCH   1  20
TORSDOF 5
