REMARK  Name = ZINC30652407
REMARK  6 active torsions:
REMARK  status: ('A' for Active; 'I' for Inactive)
REMARK    1  A    between atoms: C_1  and  C_2
REMARK    2  A    between atoms: C_5  and  C_8
REMARK    3  A    between atoms: C_8  and  N_9
REMARK    4  A    between atoms: N_15  and  C_16
REMARK    5  A    between atoms: C_16  and  C_18
REMARK    6  A    between atoms: N_20  and  C_25
REMARK                            x       y       z     vdW  Elec       q    Type
REMARK                         _______ _______ _______ _____ _____    ______ ____
ROOT
ATOM      1  N   UNL     1      -2.532   5.550  -0.154  0.00  0.00    -0.330 N 
ATOM      2  C   UNL     1      -3.711   6.212  -0.253  0.00  0.00    +0.088 A 
ATOM      3  C   UNL     1      -4.886   5.537  -0.254  0.00  0.00    +0.018 A 
ATOM      4  C   UNL     1      -4.894   4.140  -0.158  0.00  0.00    +0.005 A 
ATOM      5  C   UNL     1      -3.709   3.466  -0.063  0.00  0.00    +0.044 A 
ATOM      6  C   UNL     1      -2.506   4.188  -0.064  0.00  0.00    +0.127 A 
ATOM      7  N   UNL     1      -1.337   3.544   0.028  0.00  0.00    -0.158 NA
ENDROOT
BRANCH   7   8
ATOM      8  C   UNL     1      -1.308   2.209   0.012  0.00  0.00    +0.285 C 
ATOM      9  O   UNL     1      -1.816   1.599  -0.915  0.00  0.00    -0.267 OA
BRANCH   8  10
ATOM     10  C   UNL     1      -0.663   1.475   1.112  0.00  0.00    +0.123 C 
ATOM     11  N   UNL     1      -0.122   2.132   2.089  0.00  0.00    -0.177 NA
ATOM     12  N   UNL     1       0.507   1.469   3.147  0.00  0.00    -0.196 N 
ATOM     13  C   UNL     1       0.907   0.190   3.009  0.00  0.00    +0.235 C 
ATOM     14  O   UNL     1       1.457  -0.379   3.928  0.00  0.00    -0.274 OA
ATOM     15  C   UNL     1       0.669  -0.532   1.706  0.00  0.00    +0.104 C 
ATOM     16  C   UNL     1      -0.636  -0.030   1.084  0.00  0.00    +0.072 C 
ATOM     17  C   UNL     1       0.732   2.169   4.414  0.00  0.00    +0.161 C 
ENDBRANCH   8  10
ENDBRANCH   7   8
BRANCH   1  18
ATOM     18  C   UNL     1      -1.274   6.302  -0.149  0.00  0.00    +0.158 C 
BRANCH  18  23
ATOM     19  C   UNL     1      -1.917  11.151  -3.225  0.00  0.00    +0.044 C 
ATOM     20  C   UNL     1      -1.749   9.887  -2.422  0.00  0.00    -0.050 A 
ATOM     21  C   UNL     1      -2.023   9.886  -1.068  0.00  0.00    +0.004 A 
ATOM     22  C   UNL     1      -1.870   8.726  -0.332  0.00  0.00    +0.005 A 
ATOM     23  C   UNL     1      -1.442   7.566  -0.951  0.00  0.00    -0.028 A 
ATOM     24  C   UNL     1      -1.163   7.568  -2.305  0.00  0.00    +0.005 A 
ATOM     25  C   UNL     1      -1.321   8.727  -3.042  0.00  0.00    +0.004 A 
ENDBRANCH  18  23
ENDBRANCH   1  18
TORSDOF 4
