REMARK  Name = ZINC00038772
REMARK  6 active torsions:
REMARK  status: ('A' for Active; 'I' for Inactive)
REMARK    1  A    between atoms: C_1  and  C_2
REMARK    2  A    between atoms: C_5  and  C_8
REMARK    3  A    between atoms: C_10  and  C_23
REMARK    4  A    between atoms: C_11  and  N_22
REMARK    5  A    between atoms: C_18  and  C_20
REMARK    6  A    between atoms: C_18  and  C_21
REMARK                            x       y       z     vdW  Elec       q    Type
REMARK                         _______ _______ _______ _____ _____    ______ ____
ROOT
ATOM      1  C   UNL     1       2.490   1.048  -0.016  0.00  0.00    +0.101 C 
ATOM      2  C   UNL     1       3.253   1.418  -1.257  0.00  0.00    +0.098 C 
ATOM      3  C   UNL     1       4.272   2.309  -1.194  0.00  0.00    +0.198 C 
ATOM      4  O   UNL     1       4.626   2.887  -0.036  0.00  0.00    -0.445 OA
ATOM      5  C   UNL     1       4.295   2.306   1.132  0.00  0.00    +0.115 C 
ATOM      6  C   UNL     1       3.286   1.418   1.212  0.00  0.00    +0.046 C 
ATOM      7  C   UNL     1       2.943   0.808   2.434  0.00  0.00    +0.164 C 
ATOM      8  O   UNL     1       2.013   0.027   2.470  0.00  0.00    -0.292 OA
ATOM      9  C   UNL     1       3.706   1.107   3.696  0.00  0.00    +0.086 C 
ATOM     10  C   UNL     1       5.142   1.496   3.325  0.00  0.00    -0.021 C 
ATOM     11  C   UNL     1       5.089   2.682   2.361  0.00  0.00    +0.081 C 
ATOM     12  C   UNL     1       5.835   0.312   2.646  0.00  0.00    +0.012 C 
ATOM     13  C   UNL     1       5.914   1.890   4.585  0.00  0.00    +0.012 C 
ENDROOT
BRANCH   1  18
ATOM     14  C   UNL     1      -2.553   3.869   0.044  0.00  0.00    +0.044 C 
ATOM     15  C   UNL     1      -1.238   3.133   0.029  0.00  0.00    -0.050 A 
ATOM     16  C   UNL     1      -1.219   1.751   0.017  0.00  0.00    +0.003 A 
ATOM     17  C   UNL     1      -0.013   1.076   0.008  0.00  0.00    +0.005 A 
ATOM     18  C   UNL     1       1.175   1.783   0.000  0.00  0.00    -0.035 A 
ATOM     19  C   UNL     1       1.156   3.165   0.008  0.00  0.00    +0.005 A 
ATOM     20  C   UNL     1      -0.050   3.840   0.022  0.00  0.00    +0.003 A 
ENDBRANCH   1  18
BRANCH   3  21
ATOM     21  N   UNL     1       4.958   2.627  -2.340  0.00  0.00    -0.328 N 
ATOM     22  H   UNL     1       5.689   3.264  -2.307  0.00  0.00    +0.145 HD
ATOM     23  H   UNL     1       4.711   2.215  -3.183  0.00  0.00    +0.145 HD
ENDBRANCH   3  21
BRANCH   2  24
ATOM     24  C   UNL     1       2.902   0.825  -2.512  0.00  0.00    +0.101 C 
ATOM     25  N   UNL     1       2.623   0.355  -3.508  0.00  0.00    -0.191 NA
ENDBRANCH   2  24
TORSDOF 3
