REMARK  Name = ZINC62130075
REMARK  6 active torsions:
REMARK  status: ('A' for Active; 'I' for Inactive)
REMARK    1  A    between atoms: C_1  and  C_2
REMARK    2  A    between atoms: C_2  and  C_3
REMARK    3  A    between atoms: C_2  and  C_4
REMARK    4  A    between atoms: N_8  and  C_9
REMARK    5  A    between atoms: C_9  and  C_10
REMARK    6  A    between atoms: C_16  and  C_18
REMARK                            x       y       z     vdW  Elec       q    Type
REMARK                         _______ _______ _______ _____ _____    ______ ____
ROOT
ATOM      1  C   UNL     1      -0.482  -3.590  -0.831  0.00  0.00    +0.012 C 
ATOM      2  C   UNL     1       0.646  -3.026   0.036  0.00  0.00    +0.024 C 
ATOM      3  C   UNL     1       1.279  -4.162   0.846  0.00  0.00    +0.108 C 
ATOM      4  N   UNL     1       1.702  -5.223  -0.078  0.00  0.00    -0.301 N 
ATOM      5  C   UNL     1       0.717  -5.774  -1.019  0.00  0.00    +0.108 C 
ATOM      6  C   UNL     1       0.090  -4.620  -1.808  0.00  0.00    +0.024 C 
ATOM      7  C   UNL     1       2.969  -5.683  -0.062  0.00  0.00    +0.219 C 
ATOM      8  O   UNL     1       3.772  -5.220   0.719  0.00  0.00    -0.275 OA
ENDROOT
BRANCH   7   9
ATOM      9  C   UNL     1       3.387  -6.772  -1.017  0.00  0.00    +0.075 C 
ATOM     10  C   UNL     1       3.026  -8.186  -0.533  0.00  0.00    +0.013 C 
ATOM     11  C   UNL     1       4.394  -8.635  -1.074  0.00  0.00    +0.001 C 
ATOM     12  C   UNL     1       4.861  -7.184  -0.873  0.00  0.00    +0.013 C 
ENDBRANCH   7   9
BRANCH   1  13
ATOM     13  C   UNL     1      -1.139  -2.453  -1.615  0.00  0.00    +0.126 C 
BRANCH  13  18
ATOM     14  C   UNL     1      -3.021  -1.703  -0.127  0.00  0.00    +0.090 A 
ATOM     15  N   UNL     1      -3.268  -0.684   0.650  0.00  0.00    -0.349 N 
ATOM     16  C   UNL     1      -2.228   0.163   0.614  0.00  0.00    +0.101 A 
ATOM     17  C   UNL     1      -1.302  -0.350  -0.218  0.00  0.00    +0.104 A 
ATOM     18  N   UNL     1      -1.802  -1.536  -0.684  0.00  0.00    -0.335 N 
ATOM     19  H   UNL     1      -4.076  -0.559   1.172  0.00  0.00    +0.166 HD
BRANCH  14  21
ATOM     20  C   UNL     1      -4.679  -3.207   0.938  0.00  0.00    +0.015 C 
ATOM     21  C   UNL     1      -3.940  -2.874  -0.360  0.00  0.00    +0.047 C 
ATOM     22  C   UNL     1      -4.956  -2.517  -1.447  0.00  0.00    +0.015 C 
ENDBRANCH  14  21
ENDBRANCH  13  18
ENDBRANCH   1  13
TORSDOF 4
