REMARK  Name = ZINC36049206
REMARK  4 active torsions:
REMARK  status: ('A' for Active; 'I' for Inactive)
REMARK    1  A    between atoms: C_1  and  C_2
REMARK    2  A    between atoms: C_7  and  C_23
REMARK    3  A    between atoms: C_13  and  C_14
REMARK    4  A    between atoms: C_20  and  C_22
REMARK                            x       y       z     vdW  Elec       q    Type
REMARK                         _______ _______ _______ _____ _____    ______ ____
ROOT
ATOM      1  C   UNL     1      -0.019   1.526   0.010  0.00  0.00    +0.008 C 
ATOM      2  C   UNL     1       0.002  -0.004   0.002  0.00  0.00    -0.009 C 
ATOM      3  C   UNL     1       0.679  -0.478  -1.282  0.00  0.00    +0.015 C 
ATOM      4  C   UNL     1       0.601  -2.005  -1.329  0.00  0.00    +0.070 C 
ATOM      5  C   UNL     1       1.404  -2.580  -2.508  0.00  0.00    +0.176 C 
ATOM      6  N   UNL     1       2.077  -3.737  -1.875  0.00  0.00    -0.182 N 
ATOM      7  N   UNL     1       2.113  -3.505  -0.495  0.00  0.00    -0.181 NA
ATOM      8  C   UNL     1       1.376  -2.503  -0.115  0.00  0.00    +0.068 C 
ATOM      9  C   UNL     1       1.326  -1.841   1.132  0.00  0.00    -0.021 C 
ATOM     10  C   UNL     1       1.857  -2.436   2.226  0.00  0.00    +0.051 C 
ATOM     11  C   UNL     1       0.698  -0.488   1.258  0.00  0.00    +0.040 C 
ATOM     12  C   UNL     1       2.567  -4.819  -2.512  0.00  0.00    +0.232 C 
ATOM     13  O   UNL     1       2.475  -4.906  -3.719  0.00  0.00    -0.274 OA
ATOM     14  C   UNL     1       3.228  -5.922  -1.726  0.00  0.00    +0.111 C 
ENDROOT
BRANCH  10  15
ATOM     15  C   UNL     1       1.811  -1.760   3.521  0.00  0.00    +0.128 A 
ATOM     16  C   UNL     1       2.312  -2.243   4.698  0.00  0.00    +0.049 A 
ATOM     17  C   UNL     1       2.050  -1.269   5.678  0.00  0.00    +0.042 A 
ATOM     18  C   UNL     1       1.412  -0.250   5.065  0.00  0.00    +0.195 A 
ATOM     19  O   UNL     1       1.274  -0.547   3.763  0.00  0.00    -0.464 OA
ENDBRANCH  10  15
BRANCH   5  20
ATOM     20  C   UNL     1       0.488  -3.029  -3.618  0.00  0.00    +0.128 A 
ATOM     21  C   UNL     1       0.219  -2.340  -4.742  0.00  0.00    +0.046 A 
ATOM     22  C   UNL     1      -0.682  -3.126  -5.497  0.00  0.00    +0.041 A 
ATOM     23  C   UNL     1      -0.910  -4.247  -4.789  0.00  0.00    +0.195 A 
ATOM     24  O   UNL     1      -0.194  -4.185  -3.655  0.00  0.00    -0.466 OA
ENDBRANCH   5  20
TORSDOF 2
