REMARK  Name = ZINC04085050
REMARK  8 active torsions:
REMARK  status: ('A' for Active; 'I' for Inactive)
REMARK    1  A    between atoms: C_1  and  C_2
REMARK    2  A    between atoms: C_9  and  C_24
REMARK    3  A    between atoms: C_10  and  C_17
REMARK    4  A    between atoms: C_15  and  C_16
REMARK    5  A    between atoms: C_17  and  C_18
REMARK    6  A    between atoms: N_20  and  C_21
REMARK    7  A    between atoms: C_21  and  C_22
REMARK    8  A    between atoms: C_21  and  C_23
REMARK                            x       y       z     vdW  Elec       q    Type
REMARK                         _______ _______ _______ _____ _____    ______ ____
ROOT
ATOM      1  C   UNL     1      -6.407  -2.463  -4.695  0.00  0.00    +0.047 C 
ATOM      2  C   UNL     1      -6.512  -2.570  -3.196  0.00  0.00    -0.005 A 
ATOM      3  C   UNL     1      -7.369  -3.328  -2.502  0.00  0.00    +0.199 A 
ATOM      4  O   UNL     1      -7.170  -3.168  -1.181  0.00  0.00    -0.462 OA
ATOM      5  C   UNL     1      -6.170  -2.294  -0.947  0.00  0.00    +0.141 A 
ATOM      6  C   UNL     1      -5.693  -1.863  -2.201  0.00  0.00    +0.024 A 
ATOM      7  C   UNL     1      -4.652  -0.949  -2.282  0.00  0.00    +0.023 A 
ATOM      8  C   UNL     1      -4.080  -0.460  -1.107  0.00  0.00    +0.022 A 
ATOM      9  C   UNL     1      -2.982   0.511  -1.155  0.00  0.00    -0.029 A 
ATOM     10  C   UNL     1      -2.462   0.950   0.019  0.00  0.00    +0.049 A 
ATOM     11  C   UNL     1      -2.987   0.476   1.240  0.00  0.00    +0.341 A 
ATOM     12  O   UNL     1      -2.514   0.881   2.286  0.00  0.00    -0.245 OA
ATOM     13  O   UNL     1      -3.995  -0.409   1.279  0.00  0.00    -0.422 OA
ATOM     14  C   UNL     1      -4.557  -0.891   0.148  0.00  0.00    +0.146 A 
ATOM     15  C   UNL     1      -5.596  -1.803   0.217  0.00  0.00    +0.035 A 
ATOM     16  C   UNL     1      -6.105  -2.263   1.559  0.00  0.00    +0.051 C 
ATOM     17  C   UNL     1      -2.443   1.005  -2.473  0.00  0.00    +0.045 C 
ENDROOT
BRANCH  10  18
ATOM     18  C   UNL     1      -1.330   1.944   0.019  0.00  0.00    +0.138 C 
BRANCH  18  19
ATOM     19  C   UNL     1      -0.014   1.209   0.009  0.00  0.00    +0.218 C 
ATOM     20  O   UNL     1       0.002  -0.004   0.002  0.00  0.00    -0.275 OA
ATOM     21  N   UNL     1       1.143   1.898   0.001  0.00  0.00    -0.313 N 
ATOM     22  H   UNL     1       1.130   2.868   0.007  0.00  0.00    +0.149 HD
BRANCH  21  23
ATOM     23  C   UNL     1       2.422   1.183  -0.015  0.00  0.00    +0.067 C 
ATOM     24  C   UNL     1       3.499   2.078  -0.630  0.00  0.00    +0.027 C 
ATOM     25  C   UNL     1       2.819   0.817   1.417  0.00  0.00    +0.027 C 
ENDBRANCH  21  23
ENDBRANCH  18  19
ENDBRANCH  10  18
TORSDOF 3
