REMARK  Name = ZINC05727375
REMARK  5 active torsions:
REMARK  status: ('A' for Active; 'I' for Inactive)
REMARK    1  A    between atoms: C_1  and  C_2
REMARK    2  A    between atoms: C_2  and  C_3
REMARK    3  A    between atoms: C_2  and  C_4
REMARK    4  A    between atoms: C_4  and  C_6
REMARK    5  A    between atoms: C_4  and  N_9
REMARK                            x       y       z     vdW  Elec       q    Type
REMARK                         _______ _______ _______ _____ _____    ______ ____
ROOT
ATOM      1  N   UNL     1      -0.504   0.016   0.871  0.00  0.00    -0.222 N 
ATOM      2  C   UNL     1      -0.397  -1.183   0.271  0.00  0.00    +0.254 C 
ATOM      3  O   UNL     1      -0.146  -1.369  -0.902  0.00  0.00    -0.270 OA
ATOM      4  C   UNL     1      -0.633  -2.237   1.280  0.00  0.00    +0.049 A 
ATOM      5  C   UNL     1      -0.649  -3.623   1.247  0.00  0.00    +0.014 A 
ATOM      6  C   UNL     1      -0.918  -4.335   2.405  0.00  0.00    +0.001 A 
ATOM      7  C   UNL     1      -1.169  -3.673   3.592  0.00  0.00    +0.001 A 
ATOM      8  C   UNL     1      -1.156  -2.288   3.641  0.00  0.00    +0.014 A 
ATOM      9  C   UNL     1      -0.889  -1.562   2.491  0.00  0.00    +0.049 A 
ATOM     10  C   UNL     1      -0.795  -0.121   2.178  0.00  0.00    +0.254 C 
ATOM     11  O   UNL     1      -0.954   0.788   2.967  0.00  0.00    -0.270 OA
ENDROOT
BRANCH   1  12
ATOM     12  C   UNL     1      -0.332   1.302   0.191  0.00  0.00    +0.170 C 
BRANCH  12  14
ATOM     13  C   UNL     1       1.204   2.671  -1.226  0.00  0.00    +0.009 C 
ATOM     14  C   UNL     1       1.025   1.328  -0.515  0.00  0.00    +0.012 C 
ATOM     15  C   UNL     1       2.140   1.144   0.517  0.00  0.00    +0.009 C 
ENDBRANCH  12  14
BRANCH  12  16
ATOM     16  C   UNL     1      -1.430   1.483  -0.825  0.00  0.00    +0.243 C 
ATOM     17  O   UNL     1      -1.951   0.517  -1.331  0.00  0.00    -0.277 OA
ATOM     18 CL   UNL     1      -1.947   3.080  -1.270  0.00  0.00    -0.042 Cl
ENDBRANCH  12  16
ENDBRANCH   1  12
TORSDOF 3
