REMARK  Name = ZINC39959026
REMARK  2 active torsions:
REMARK  status: ('A' for Active; 'I' for Inactive)
REMARK    1  A    between atoms: C_4  and  C_7
REMARK    2  A    between atoms: C_13  and  C_14
REMARK                            x       y       z     vdW  Elec       q    Type
REMARK                         _______ _______ _______ _____ _____    ______ ____
ROOT
ATOM      1  C   UNL     1       4.809   0.057   0.658  0.00  0.00    +0.130 C 
ATOM      2  N   UNL     1       4.705  -1.237   0.839  0.00  0.00    -0.164 NA
ATOM      3  N   UNL     1       5.657  -2.102   0.340  0.00  0.00    -0.152 N 
ATOM      4  C   UNL     1       5.598  -3.512   0.394  0.00  0.00    +0.153 C 
ATOM      5  N   UNL     1       4.484  -4.179   0.533  0.00  0.00    -0.283 NA
ATOM      6  C   UNL     1       6.934  -4.163   0.277  0.00  0.00    +0.080 C 
ATOM      7  C   UNL     1       7.228  -5.349   0.932  0.00  0.00    +0.022 C 
ATOM      8  C   UNL     1       7.932  -3.474  -0.580  0.00  0.00    +0.273 C 
ATOM      9  O   UNL     1       8.843  -4.093  -1.105  0.00  0.00    -0.268 OA
ATOM     10  N   UNL     1       7.802  -2.146  -0.760  0.00  0.00    -0.152 NA
ATOM     11  C   UNL     1       6.744  -1.534  -0.289  0.00  0.00    +0.181 C 
ATOM     12  S   UNL     1       6.331   0.190  -0.269  0.00  0.00    -0.033 S 
ATOM     13  H   UNL     1       3.641  -3.705   0.605  0.00  0.00    +0.188 HD
ENDROOT
BRANCH   7  14
ATOM     14  C   UNL     1       8.545  -5.631   1.308  0.00  0.00    -0.018 C 
ATOM     15  C   UNL     1       9.033  -6.824   1.831  0.00  0.00    +0.003 A 
ATOM     16  C   UNL     1       8.421  -8.059   2.138  0.00  0.00    +0.010 A 
ATOM     17  C   UNL     1       9.154  -9.076   2.650  0.00  0.00    +0.001 A 
ATOM     18  C   UNL     1      10.528  -8.960   2.897  0.00  0.00    +0.002 A 
ATOM     19  C   UNL     1      11.207  -7.819   2.636  0.00  0.00    +0.026 A 
ATOM     20  C   UNL     1      10.483  -6.668   2.079  0.00  0.00    +0.043 A 
ATOM     21  N   UNL     1      10.881  -5.470   1.739  0.00  0.00    -0.380 N 
ATOM     22  C   UNL     1       9.739  -4.706   1.225  0.00  0.00    +0.149 C 
ATOM     23  H   UNL     1      11.789  -5.138   1.813  0.00  0.00    +0.160 HD
ENDBRANCH   7  14
BRANCH   1  27
ATOM     24  C   UNL     1       2.184   3.146   1.933  0.00  0.00    +0.000 A 
ATOM     25  C   UNL     1       3.326   3.463   1.219  0.00  0.00    +0.001 A 
ATOM     26  C   UNL     1       4.182   2.465   0.802  0.00  0.00    +0.010 A 
ATOM     27  C   UNL     1       3.895   1.133   1.103  0.00  0.00    +0.009 A 
ATOM     28  C   UNL     1       2.743   0.820   1.824  0.00  0.00    +0.010 A 
ATOM     29  C   UNL     1       1.894   1.827   2.235  0.00  0.00    +0.001 A 
ENDBRANCH   1  27
TORSDOF 2
