REMARK  Name = ZINC52211648
REMARK  3 active torsions:
REMARK  status: ('A' for Active; 'I' for Inactive)
REMARK    1  A    between atoms: C_4  and  N_7
REMARK    2  A    between atoms: C_12  and  N_16
REMARK    3  A    between atoms: N_16  and  C_17
REMARK                            x       y       z     vdW  Elec       q    Type
REMARK                         _______ _______ _______ _____ _____    ______ ____
ROOT
ATOM      1  N   UNL     1       3.623  -0.651  -0.037  0.00  0.00    -0.214 N 
ATOM      2  C   UNL     1       3.885  -1.839   0.585  0.00  0.00    +0.168 A 
ATOM      3  C   UNL     1       5.230  -2.150   0.304  0.00  0.00    +0.079 A 
ATOM      4  C   UNL     1       5.737  -1.105  -0.499  0.00  0.00    +0.148 A 
ATOM      5  N   UNL     1       4.786  -0.236  -0.697  0.00  0.00    -0.172 NA
ATOM      6  C   UNL     1       5.764  -3.340   0.832  0.00  0.00    +0.133 A 
ATOM      7  N   UNL     1       4.975  -4.113   1.570  0.00  0.00    -0.220 NA
ATOM      8  C   UNL     1       3.719  -3.780   1.807  0.00  0.00    +0.225 A 
ATOM      9  N   UNL     1       3.175  -2.679   1.335  0.00  0.00    -0.216 NA
ENDROOT
BRANCH   1  13
ATOM     10  C   UNL     1      -0.017   1.379   0.010  0.00  0.00    +0.000 A 
ATOM     11  C   UNL     1       1.170   2.089   0.002  0.00  0.00    +0.002 A 
ATOM     12  C   UNL     1       2.377   1.419  -0.013  0.00  0.00    +0.028 A 
ATOM     13  C   UNL     1       2.400   0.031  -0.021  0.00  0.00    +0.068 A 
ATOM     14  C   UNL     1       1.206  -0.680  -0.013  0.00  0.00    +0.028 A 
ATOM     15  C   UNL     1       0.002  -0.004   0.002  0.00  0.00    +0.002 A 
ENDBRANCH   1  13
BRANCH   6  16
ATOM     16  N   UNL     1       7.076  -3.696   0.589  0.00  0.00    -0.326 N 
ATOM     17  H   UNL     1       7.642  -3.123   0.049  0.00  0.00    +0.148 HD
BRANCH  16  18
ATOM     18  C   UNL     1       7.614  -4.939   1.148  0.00  0.00    +0.072 C 
ATOM     19  C   UNL     1       8.599  -4.718   2.308  0.00  0.00    +0.022 C 
ATOM     20  C   UNL     1       9.439  -5.858   1.708  0.00  0.00    +0.004 C 
ATOM     21  C   UNL     1       8.800  -5.510   0.353  0.00  0.00    +0.022 C 
ENDBRANCH  16  18
ENDBRANCH   6  16
TORSDOF 3
