REMARK  Name = ZINC19993703
REMARK  3 active torsions:
REMARK  status: ('A' for Active; 'I' for Inactive)
REMARK    1  A    between atoms: N_9  and  C_12
REMARK    2  A    between atoms: C_12  and  C_13
REMARK    3  A    between atoms: C_13  and  N_14
REMARK                            x       y       z     vdW  Elec       q    Type
REMARK                         _______ _______ _______ _____ _____    ______ ____
ROOT
ATOM      1  C   UNL     1       3.844   3.365  -1.861  0.00  0.00    +0.136 C 
ENDROOT
BRANCH   1  10
ATOM      2  C   UNL     1       8.743   0.105  -3.407  0.00  0.00    +0.001 A 
ATOM      3  C   UNL     1       9.405   1.304  -3.221  0.00  0.00    +0.001 A 
ATOM      4  C   UNL     1       8.707   2.440  -2.840  0.00  0.00    +0.014 A 
ATOM      5  C   UNL     1       7.338   2.371  -2.643  0.00  0.00    +0.049 A 
ATOM      6  C   UNL     1       6.663   1.148  -2.832  0.00  0.00    +0.049 A 
ATOM      7  C   UNL     1       7.373   0.021  -3.213  0.00  0.00    +0.014 A 
ATOM      8  C   UNL     1       5.239   1.423  -2.545  0.00  0.00    +0.254 C 
ATOM      9  O   UNL     1       4.336   0.613  -2.599  0.00  0.00    -0.270 OA
ATOM     10  N   UNL     1       5.112   2.720  -2.213  0.00  0.00    -0.233 N 
ATOM     11  C   UNL     1       6.300   3.349  -2.252  0.00  0.00    +0.254 C 
ATOM     12  O   UNL     1       6.490   4.523  -2.005  0.00  0.00    -0.270 OA
ENDBRANCH   1  10
BRANCH   1  13
ATOM     13  C   UNL     1       3.618   3.256  -0.352  0.00  0.00    +0.133 C 
BRANCH  13  14
ATOM     14  N   UNL     1       2.350   3.901  -0.001  0.00  0.00    -0.264 N 
ATOM     15  C   UNL     1       1.156   3.166   0.008  0.00  0.00    +0.078 A 
ATOM     16  C   UNL     1       1.177   1.781   0.000  0.00  0.00    +0.027 A 
ATOM     17  C   UNL     1      -0.013   1.076   0.008  0.00  0.00    +0.002 A 
ATOM     18  C   UNL     1      -1.220   1.749   0.017  0.00  0.00    +0.004 A 
ATOM     19  C   UNL     1      -1.248   3.131   0.031  0.00  0.00    +0.047 A 
ATOM     20  C   UNL     1      -0.062   3.845   0.023  0.00  0.00    +0.142 A 
ATOM     21  O   UNL     1      -0.070   5.204   0.030  0.00  0.00    -0.481 OA
ATOM     22  C   UNL     1       1.006   5.850   0.715  0.00  0.00    +0.325 C 
ATOM     23  C   UNL     1       2.314   5.213   0.320  0.00  0.00    +0.258 C 
ATOM     24  O   UNL     1       3.329   5.875   0.289  0.00  0.00    -0.272 OA
ENDBRANCH  13  14
ENDBRANCH   1  13
TORSDOF 3
