REMARK  Name = ZINC14539899
REMARK  12 active torsions:
REMARK  status: ('A' for Active; 'I' for Inactive)
REMARK    1  A    between atoms: C_1  and  C_2
REMARK    2  A    between atoms: C_3  and  C_8
REMARK    3  A    between atoms: C_8  and  N_9
REMARK    4  A    between atoms: N_17  and  C_26
REMARK    5  A    between atoms: N_20  and  C_21
REMARK    6  A    between atoms: C_21  and  C_22
REMARK    7  A    between atoms: C_22  and  C_23
REMARK    8  A    between atoms: C_23  and  C_24
REMARK    9  A    between atoms: C_23  and  C_25
REMARK   10  A    between atoms: C_26  and  C_27
REMARK   11  A    between atoms: C_27  and  C_28
REMARK   12  A    between atoms: C_27  and  C_29
REMARK                            x       y       z     vdW  Elec       q    Type
REMARK                         _______ _______ _______ _____ _____    ______ ____
ROOT
ATOM      1  N   UNL     1       1.680   0.034  -3.195  0.00  0.00    -0.297 NA
ATOM      2  C   UNL     1       1.208  -0.903  -2.167  0.00  0.00    +0.087 C 
ATOM      3  C   UNL     1       1.251  -2.331  -2.719  0.00  0.00    +0.051 C 
ATOM      4  C   UNL     1       2.677  -2.664  -3.148  0.00  0.00    +0.118 C 
ATOM      5  C   UNL     1       3.181  -1.643  -4.163  0.00  0.00    +0.051 C 
ATOM      6  C   UNL     1       3.075  -0.237  -3.564  0.00  0.00    +0.087 C 
ATOM      7  C   UNL     1       2.744  -4.059  -3.723  0.00  0.00    +0.247 C 
ATOM      8  O   UNL     1       2.163  -4.479  -4.700  0.00  0.00    -0.273 OA
ATOM      9  N   UNL     1       3.588  -4.739  -2.919  0.00  0.00    -0.224 N 
ATOM     10  C   UNL     1       4.054  -3.968  -1.929  0.00  0.00    +0.312 C 
ATOM     11  O   UNL     1       4.830  -4.357  -1.077  0.00  0.00    -0.252 OA
ATOM     12  N   UNL     1       3.567  -2.714  -1.981  0.00  0.00    -0.271 N 
ENDROOT
BRANCH   1  13
ATOM     13  C   UNL     1       1.512   1.425  -2.757  0.00  0.00    +0.139 C 
BRANCH  13  16
ATOM     14  C   UNL     1      -0.406   2.071  -5.146  0.00  0.00    +0.065 C 
ATOM     15  C   UNL     1      -0.785   2.026  -3.688  0.00  0.00    +0.035 A 
ATOM     16  C   UNL     1       0.043   1.749  -2.663  0.00  0.00    +0.050 A 
ATOM     17  N   UNL     1      -0.707   1.816  -1.519  0.00  0.00    -0.349 N 
ATOM     18  H   UNL     1      -0.391   1.665  -0.615  0.00  0.00    +0.166 HD
ATOM     19  C   UNL     1      -1.967   2.133  -1.886  0.00  0.00    +0.171 A 
ATOM     20  N   UNL     1      -2.005   2.262  -3.184  0.00  0.00    -0.350 N 
ATOM     21  H   UNL     1      -2.793   2.490  -3.702  0.00  0.00    +0.166 HD
ENDBRANCH  13  16
ENDBRANCH   1  13
BRANCH  12  22
ATOM     22  C   UNL     1       3.866  -1.616  -1.058  0.00  0.00    +0.110 C 
BRANCH  22  23
ATOM     23  C   UNL     1       5.340  -1.227  -1.190  0.00  0.00    +0.022 C 
BRANCH  23  24
ATOM     24  C   UNL     1       5.664  -0.114  -0.192  0.00  0.00    -0.016 C 
ATOM     25  C   UNL     1       5.492  -0.641   1.234  0.00  0.00    +0.007 C 
ATOM     26  C   UNL     1       7.109   0.347  -0.393  0.00  0.00    +0.007 C 
ENDBRANCH  23  24
ENDBRANCH  22  23
ENDBRANCH  12  22
BRANCH   9  27
ATOM     27  C   UNL     1       3.949  -6.146  -3.107  0.00  0.00    +0.121 C 
BRANCH  27  28
ATOM     28  C   UNL     1       5.186  -6.240  -4.003  0.00  0.00    +0.001 C 
ATOM     29  C   UNL     1       6.382  -5.607  -3.289  0.00  0.00    +0.009 C 
ATOM     30  C   UNL     1       5.489  -7.710  -4.301  0.00  0.00    +0.009 C 
ENDBRANCH  27  28
ENDBRANCH   9  27
TORSDOF 7
