REMARK  Name = ZINC02979808
REMARK  7 active torsions:
REMARK  status: ('A' for Active; 'I' for Inactive)
REMARK    1  A    between atoms: C_1  and  C_2
REMARK    2  A    between atoms: C_2  and  O_3
REMARK    3  A    between atoms: O_3  and  C_4
REMARK    4  A    between atoms: C_7  and  C_13
REMARK    5  A    between atoms: C_9  and  N_10
REMARK    6  A    between atoms: N_15  and  C_16
REMARK    7  A    between atoms: C_18  and  C_23
REMARK                            x       y       z     vdW  Elec       q    Type
REMARK                         _______ _______ _______ _____ _____    ______ ____
ROOT
ATOM      1  C   UNL     1       1.385   2.497   4.773  0.00  0.00    +0.248 C 
ATOM      2  O   UNL     1       1.959   2.105   3.776  0.00  0.00    -0.270 OA
ATOM      3  N   UNL     1       0.072   2.799   4.720  0.00  0.00    -0.280 N 
ATOM      4  H   UNL     1      -0.371   3.173   5.498  0.00  0.00    +0.155 HD
ENDROOT
BRANCH   3   5
ATOM      5  C   UNL     1      -0.651   2.572   3.544  0.00  0.00    +0.053 A 
ATOM      6  C   UNL     1      -0.041   2.741   2.308  0.00  0.00    +0.037 A 
ATOM      7  C   UNL     1      -0.757   2.516   1.149  0.00  0.00    +0.057 A 
ATOM      8  C   UNL     1      -2.083   2.127   1.218  0.00  0.00    +0.014 A 
ATOM      9  C   UNL     1      -2.692   1.952   2.446  0.00  0.00    +0.022 A 
ATOM     10  C   UNL     1      -1.981   2.175   3.611  0.00  0.00    +0.062 A 
ATOM     11 CL   UNL     1      -2.749   1.961   5.153  0.00  0.00    -0.082 Cl
BRANCH   7  12
ATOM     12  C   UNL     1      -0.096   2.700  -0.192  0.00  0.00    +0.417 C 
ATOM     13  F   UNL     1       0.486   1.493  -0.595  0.00  0.00    -0.166 F 
ATOM     14  F   UNL     1       0.893   3.684  -0.093  0.00  0.00    -0.166 F 
ATOM     15  F   UNL     1      -1.052   3.094  -1.134  0.00  0.00    -0.166 F 
ENDBRANCH   7  12
ENDBRANCH   3   5
BRANCH   1  19
ATOM     16  C   UNL     1       3.515   2.916   8.423  0.00  0.00    +0.151 A 
ATOM     17  C   UNL     1       2.161   3.228   8.370  0.00  0.00    +0.049 A 
ATOM     18  C   UNL     1       1.468   3.099   7.188  0.00  0.00    +0.017 A 
ATOM     19  C   UNL     1       2.125   2.643   6.041  0.00  0.00    +0.039 A 
ATOM     20  C   UNL     1       3.486   2.331   6.098  0.00  0.00    +0.049 A 
ATOM     21  C   UNL     1       4.173   2.468   7.284  0.00  0.00    +0.168 A 
BRANCH  21  22
ATOM     22  N   UNL     1       5.614   2.138   7.345  0.00  0.00    +0.060 N 
ATOM     23  O   UNL     1       6.192   1.745   6.347  0.00  0.00    -0.126 OA
ATOM     24  O   UNL     1       6.223   2.259   8.393  0.00  0.00    -0.126 OA
ENDBRANCH  21  22
BRANCH  16  25
ATOM     25  O   UNL     1       4.195   3.050   9.589  0.00  0.00    -0.490 OA
BRANCH  25  27
ATOM     26  C   UNL     1       4.386   3.602  11.934  0.00  0.00    +0.048 C 
ATOM     27  C   UNL     1       3.458   3.515  10.721  0.00  0.00    +0.226 C 
ENDBRANCH  25  27
ENDBRANCH  16  25
ENDBRANCH   1  19
TORSDOF 6
