REMARK  Name = ZINC04106748
REMARK  4 active torsions:
REMARK  status: ('A' for Active; 'I' for Inactive)
REMARK    1  A    between atoms: C_6  and  C_7
REMARK    2  A    between atoms: C_7  and  N_8
REMARK    3  A    between atoms: C_12  and  C_13
REMARK    4  A    between atoms: C_16  and  N_19
REMARK                            x       y       z     vdW  Elec       q    Type
REMARK                         _______ _______ _______ _____ _____    ______ ____
ROOT
ATOM      1  N   UNL     1      -3.243   2.599  -0.086  0.00  0.00    -0.216 N 
ATOM      2  C   UNL     1      -2.518   1.466   0.010  0.00  0.00    +0.269 C 
ATOM      3  O   UNL     1      -2.945   0.333   0.130  0.00  0.00    -0.268 OA
ATOM      4  C   UNL     1      -1.107   1.876  -0.053  0.00  0.00    +0.098 C 
ATOM      5  C   UNL     1      -0.013   1.076   0.008  0.00  0.00    +0.036 C 
ATOM      6  N   UNL     1      -1.135   3.271  -0.197  0.00  0.00    -0.265 N 
ATOM      7  C   UNL     1      -2.424   3.655  -0.212  0.00  0.00    +0.313 C 
ATOM      8  O   UNL     1      -2.798   4.807  -0.324  0.00  0.00    -0.252 OA
ATOM      9  H   UNL     1      -0.364   3.853  -0.273  0.00  0.00    +0.157 HD
ENDROOT
BRANCH   5  10
ATOM     10  C   UNL     1       1.320   1.633  -0.255  0.00  0.00    -0.023 A 
ATOM     11  C   UNL     1       1.456   2.795  -1.025  0.00  0.00    +0.010 A 
ATOM     12  C   UNL     1       2.702   3.316  -1.262  0.00  0.00    +0.024 A 
ATOM     13  C   UNL     1       3.832   2.684  -0.750  0.00  0.00    +0.030 A 
ATOM     14  C   UNL     1       3.702   1.525   0.011  0.00  0.00    +0.024 A 
ATOM     15  C   UNL     1       2.459   1.001   0.259  0.00  0.00    +0.010 A 
BRANCH  13  16
ATOM     16  N   UNL     1       5.095   3.212  -0.999  0.00  0.00    -0.330 N 
ATOM     17  C   UNL     1       5.755   3.631   0.264  0.00  0.00    +0.105 C 
ATOM     18  C   UNL     1       7.256   3.676  -0.119  0.00  0.00    +0.020 C 
ATOM     19  C   UNL     1       7.406   2.470  -1.075  0.00  0.00    +0.020 C 
ATOM     20  C   UNL     1       5.985   2.196  -1.602  0.00  0.00    +0.105 C 
ENDBRANCH  13  16
ENDBRANCH   5  10
BRANCH   1  21
ATOM     21  C   UNL     1      -4.706   2.667  -0.065  0.00  0.00    +0.153 C 
BRANCH  21  27
ATOM     22  C   UNL     1      -5.430   3.677  -2.237  0.00  0.00    +0.006 A 
ATOM     23  C   UNL     1      -5.910   3.565  -3.529  0.00  0.00    +0.020 A 
ATOM     24  C   UNL     1      -6.206   2.318  -4.050  0.00  0.00    +0.041 A 
ATOM     25  C   UNL     1      -6.016   1.184  -3.280  0.00  0.00    +0.020 A 
ATOM     26  C   UNL     1      -5.531   1.297  -1.991  0.00  0.00    +0.006 A 
ATOM     27  C   UNL     1      -5.235   2.543  -1.471  0.00  0.00    -0.029 A 
ATOM     28 CL   UNL     1      -6.815   2.176  -5.669  0.00  0.00    -0.084 Cl
ENDBRANCH  21  27
ENDBRANCH   1  21
TORSDOF 4
