REMARK  Name = ZINC29007468
REMARK  7 active torsions:
REMARK  status: ('A' for Active; 'I' for Inactive)
REMARK    1  A    between atoms: C_2  and  O_3
REMARK    2  A    between atoms: O_3  and  C_4
REMARK    3  A    between atoms: C_4  and  C_5
REMARK    4  A    between atoms: C_5  and  C_6
REMARK    5  A    between atoms: C_6  and  N_7
REMARK    6  A    between atoms: N_7  and  C_8
REMARK    7  A    between atoms: C_8  and  C_18
REMARK                            x       y       z     vdW  Elec       q    Type
REMARK                         _______ _______ _______ _____ _____    ______ ____
ROOT
ATOM      1  C   UNL     1      -3.752  -0.801   0.009  0.00  0.00    +0.068 C 
ATOM      2  C   UNL     1      -4.856   0.055   0.078  0.00  0.00    +0.122 C 
ATOM      3  C   UNL     1      -4.700   1.516   0.004  0.00  0.00    +0.256 C 
ATOM      4  O   UNL     1      -3.599   2.021  -0.119  0.00  0.00    -0.270 OA
ATOM      5  N   UNL     1      -5.809   2.281   0.073  0.00  0.00    -0.263 N 
ATOM      6  C   UNL     1      -7.026   1.738   0.215  0.00  0.00    +0.143 C 
ATOM      7  S   UNL     1      -8.377   2.786   0.300  0.00  0.00    -0.018 S 
ATOM      8  N   UNL     1      -7.240   0.417   0.294  0.00  0.00    -0.263 N 
ATOM      9  C   UNL     1      -6.222  -0.466   0.234  0.00  0.00    +0.256 C 
ATOM     10  O   UNL     1      -6.429  -1.664   0.307  0.00  0.00    -0.270 OA
ATOM     11  H   UNL     1      -5.726   3.376   0.012  0.00  0.00    +0.157 HD
ATOM     12  H   UNL     1      -8.264   0.032   0.410  0.00  0.00    +0.157 HD
ENDROOT
BRANCH   1  13
ATOM     13  C   UNL     1      -2.424  -0.261  -0.304  0.00  0.00    +0.065 A 
ATOM     14  C   UNL     1      -2.195   0.248  -1.545  0.00  0.00    +0.036 A 
ATOM     15  C   UNL     1      -0.875   0.788  -1.866  0.00  0.00    -0.011 A 
ATOM     16  C   UNL     1      -0.585   1.323  -3.123  0.00  0.00    +0.009 A 
ATOM     17  C   UNL     1       0.675   1.819  -3.376  0.00  0.00    +0.001 A 
ATOM     18  C   UNL     1       1.658   1.793  -2.395  0.00  0.00    +0.001 A 
ATOM     19  C   UNL     1       1.394   1.269  -1.147  0.00  0.00    +0.014 A 
ATOM     20  C   UNL     1       0.127   0.762  -0.868  0.00  0.00    +0.046 A 
ATOM     21  C   UNL     1      -0.204   0.188   0.445  0.00  0.00    +0.257 A 
ATOM     22  O   UNL     1       0.635   0.148   1.326  0.00  0.00    -0.267 OA
ATOM     23  N   UNL     1      -1.445  -0.286   0.667  0.00  0.00    -0.321 N 
ATOM     24  H   UNL     1      -1.668  -0.702   1.661  0.00  0.00    +0.169 HD
ENDBRANCH   1  13
BRANCH   1  25
ATOM     25  N   UNL     1      -3.911  -2.141   0.234  0.00  0.00    -0.341 N 
ATOM     26  H   UNL     1      -4.917  -2.558   0.384  0.00  0.00    +0.146 HD
BRANCH  25  27
ATOM     27  C   UNL     1      -2.740  -3.020   0.275  0.00  0.00    +0.105 C 
BRANCH  27  28
ATOM     28  C   UNL     1      -3.182  -4.443   0.622  0.00  0.00    +0.059 C 
BRANCH  28  29
ATOM     29  C   UNL     1      -1.959  -5.362   0.665  0.00  0.00    +0.229 C 
BRANCH  29  30
ATOM     30  O   UNL     1      -2.373  -6.690   0.989  0.00  0.00    -0.500 OA
BRANCH  30  32
ATOM     31  C   UNL     1      -1.717  -8.880   1.363  0.00  0.00    +0.049 C 
ATOM     32  C   UNL     1      -1.402  -7.635   1.068  0.00  0.00    +0.179 C 
ENDBRANCH  30  32
ENDBRANCH  29  30
ENDBRANCH  28  29
ENDBRANCH  27  28
ENDBRANCH  25  27
ENDBRANCH   1  25
TORSDOF 7
