REMARK  Name = ZINC39961022
REMARK  7 active torsions:
REMARK  status: ('A' for Active; 'I' for Inactive)
REMARK    1  A    between atoms: C_1  and  C_2
REMARK    2  A    between atoms: C_10  and  C_14
REMARK    3  A    between atoms: C_16  and  C_23
REMARK    4  A    between atoms: C_17  and  O_22
REMARK    5  A    between atoms: C_18  and  O_20
REMARK    6  A    between atoms: O_20  and  C_21
REMARK    7  A    between atoms: C_23  and  C_24
REMARK                            x       y       z     vdW  Elec       q    Type
REMARK                         _______ _______ _______ _____ _____    ______ ____
ROOT
ATOM      1  C   UNL     1      -0.019   1.526   0.010  0.00  0.00    +0.007 C 
ATOM      2  C   UNL     1       0.002  -0.004   0.002  0.00  0.00    -0.012 C 
ATOM      3  C   UNL     1      -1.433  -0.525  -0.005  0.00  0.00    +0.008 C 
ATOM      4  C   UNL     1      -2.203   0.012   1.209  0.00  0.00    +0.033 C 
ATOM      5  C   UNL     1      -1.371  -0.334   2.442  0.00  0.00    -0.042 C 
ATOM      6  C   UNL     1      -1.822  -1.007   3.499  0.00  0.00    +0.071 C 
ATOM      7  C   UNL     1      -0.841  -1.432   4.534  0.00  0.00    +0.112 C 
ATOM      8  N   UNL     1      -1.186  -2.135   5.583  0.00  0.00    -0.223 NA
ATOM      9  C   UNL     1      -2.479  -2.470   5.711  0.00  0.00    +0.154 C 
ATOM     10  N   UNL     1      -3.433  -2.150   4.858  0.00  0.00    -0.157 NA
ATOM     11  C   UNL     1      -3.240  -1.442   3.735  0.00  0.00    +0.272 C 
ATOM     12  O   UNL     1      -4.147  -1.172   2.965  0.00  0.00    -0.268 OA
ATOM     13  S   UNL     1       0.704  -0.776   3.986  0.00  0.00    -0.097 S 
ATOM     14  C   UNL     1       0.100   0.086   2.483  0.00  0.00    +0.080 C 
ATOM     15  C   UNL     1       0.760  -0.504   1.236  0.00  0.00    +0.022 C 
ENDROOT
BRANCH   9  16
ATOM     16  C   UNL     1      -2.865  -3.260   6.899  0.00  0.00    +0.021 A 
ATOM     17  C   UNL     1      -4.195  -3.644   7.084  0.00  0.00    +0.019 A 
ATOM     18  C   UNL     1      -4.553  -4.381   8.192  0.00  0.00    +0.002 A 
ATOM     19  C   UNL     1      -3.593  -4.744   9.127  0.00  0.00    +0.162 A 
ATOM     20  C   UNL     1      -2.264  -4.363   8.950  0.00  0.00    +0.162 A 
ATOM     21  C   UNL     1      -1.898  -3.630   7.838  0.00  0.00    +0.060 A 
BRANCH  20  22
ATOM     22  O   UNL     1      -1.326  -4.720   9.868  0.00  0.00    -0.491 OA
ATOM     23  C   UNL     1       0.016  -4.296   9.622  0.00  0.00    +0.277 C 
ENDBRANCH  20  22
BRANCH  19  24
ATOM     24  O   UNL     1      -3.951  -5.470  10.218  0.00  0.00    -0.503 OA
ATOM     25  H   UNL     1      -3.901  -6.427  10.087  0.00  0.00    +0.292 HD
ENDBRANCH  19  24
BRANCH  18  26
ATOM     26  C   UNL     1      -5.989  -4.793   8.389  0.00  0.00    +0.065 C 
BRANCH  26  27
ATOM     27  C   UNL     1      -6.682  -3.792   9.277  0.00  0.00    -0.030 C 
ATOM     28  C   UNL     1      -7.779  -3.204   8.869  0.00  0.00    +0.004 C 
ENDBRANCH  26  27
ENDBRANCH  18  26
ENDBRANCH   9  16
TORSDOF 5
