REMARK  Name = ZINC63804113
REMARK  12 active torsions:
REMARK  status: ('A' for Active; 'I' for Inactive)
REMARK    1  A    between atoms: C_1  and  C_2
REMARK    2  A    between atoms: C_3  and  C_14
REMARK    3  A    between atoms: C_4  and  C_13
REMARK    4  A    between atoms: C_8  and  C_11
REMARK    5  A    between atoms: C_14  and  C_15
REMARK    6  A    between atoms: C_15  and  C_16
REMARK    7  A    between atoms: N_18  and  C_19
REMARK    8  A    between atoms: C_19  and  C_20
REMARK    9  A    between atoms: C_20  and  C_21
REMARK   10  A    between atoms: C_20  and  N_27
REMARK   11  A    between atoms: N_27  and  C_28
REMARK   12  A    between atoms: N_27  and  C_29
REMARK                            x       y       z     vdW  Elec       q    Type
REMARK                         _______ _______ _______ _____ _____    ______ ____
ROOT
ATOM      1  C   UNL     1      -4.808   0.810   1.510  0.00  0.00    +0.213 C 
ATOM      2  O   UNL     1      -5.312   1.272   0.508  0.00  0.00    -0.276 OA
ATOM      3  N   UNL     1      -5.279   1.159   2.723  0.00  0.00    -0.317 N 
ATOM      4  H   UNL     1      -4.876   0.789   3.524  0.00  0.00    +0.149 HD
ENDROOT
BRANCH   1   5
ATOM      5  C   UNL     1      -3.655  -0.155   1.397  0.00  0.00    +0.100 C 
BRANCH   5   6
ATOM      6  C   UNL     1      -3.320  -0.380  -0.079  0.00  0.00    +0.048 C 
BRANCH   6   9
ATOM      7  C   UNL     1      -0.578   0.585   0.105  0.00  0.00    +0.066 C 
ATOM      8  C   UNL     1      -0.849  -0.883  -0.103  0.00  0.00    +0.046 A 
ATOM      9  C   UNL     1      -2.168  -1.344  -0.191  0.00  0.00    -0.005 A 
ATOM     10  C   UNL     1      -2.399  -2.668  -0.378  0.00  0.00    +0.047 A 
ATOM     11  N   UNL     1      -1.338  -3.520  -0.475  0.00  0.00    -0.217 N 
ATOM     12  C   UNL     1      -0.065  -3.030  -0.384  0.00  0.00    +0.173 A 
ATOM     13  N   UNL     1       0.154  -1.726  -0.206  0.00  0.00    -0.232 NA
ATOM     14  C   UNL     1       0.803  -4.130  -0.520  0.00  0.00    +0.115 A 
ATOM     15  C   UNL     1      -0.003  -5.269  -0.692  0.00  0.00    +0.156 A 
ATOM     16  N   UNL     1      -1.258  -4.904  -0.665  0.00  0.00    -0.172 NA
ATOM     17  C   UNL     1      -3.809  -3.191  -0.475  0.00  0.00    +0.066 C 
BRANCH  14  18
ATOM     18  C   UNL     1       2.234  -4.096  -0.489  0.00  0.00    +0.104 C 
ATOM     19  N   UNL     1       3.369  -4.068  -0.464  0.00  0.00    -0.191 NA
ENDBRANCH  14  18
ENDBRANCH   6   9
ENDBRANCH   5   6
ENDBRANCH   1   5
BRANCH   3  20
ATOM     20  C   UNL     1      -6.399   2.096   2.832  0.00  0.00    +0.089 C 
BRANCH  20  21
ATOM     21  C   UNL     1      -6.599   2.484   4.299  0.00  0.00    -0.049 C 
BRANCH  21  22
ATOM     22  C   UNL     1      -7.860   3.339   4.433  0.00  0.00    -0.023 C 
ATOM     23  C   UNL     1      -8.003   3.814   5.881  0.00  0.00    +0.002 C 
ATOM     24  C   UNL     1      -9.265   4.669   6.015  0.00  0.00    +0.000 C 
ATOM     25  C   UNL     1     -10.489   3.837   5.628  0.00  0.00    +0.000 C 
ATOM     26  C   UNL     1     -10.346   3.362   4.181  0.00  0.00    +0.000 C 
ATOM     27  C   UNL     1      -9.085   2.507   4.046  0.00  0.00    +0.002 C 
ENDBRANCH  21  22
BRANCH  21  28
ATOM     28  N   UNL     1      -5.436   3.250   4.766  0.00  0.00    +0.379 N 
ATOM     29  C   UNL     1      -4.246   2.389   4.755  0.00  0.00    -0.096 C 
ATOM     30  C   UNL     1      -5.218   4.399   3.876  0.00  0.00    -0.096 C 
ATOM     31  H   UNL     1      -5.604   3.579   5.704  0.00  0.00    -0.082 HD
ENDBRANCH  21  28
ENDBRANCH  20  21
ENDBRANCH   3  20
TORSDOF 8
