REMARK  Name = ZINC64151765
REMARK  10 active torsions:
REMARK  status: ('A' for Active; 'I' for Inactive)
REMARK    1  A    between atoms: C_1  and  C_2
REMARK    2  A    between atoms: C_2  and  C_4
REMARK    3  A    between atoms: C_2  and  N_13
REMARK    4  A    between atoms: C_14  and  C_16
REMARK    5  A    between atoms: N_18  and  C_27
REMARK    6  A    between atoms: C_20  and  C_23
REMARK    7  A    between atoms: N_25  and  C_26
REMARK    8  A    between atoms: C_27  and  C_28
REMARK    9  A    between atoms: C_28  and  C_29
REMARK   10  A    between atoms: C_29  and  C_30
REMARK                            x       y       z     vdW  Elec       q    Type
REMARK                         _______ _______ _______ _____ _____    ______ ____
ROOT
ATOM      1  C   UNL     1      -3.387  -1.263  -1.147  0.00  0.00    +0.100 A 
ATOM      2  C   UNL     1      -4.058  -1.492  -2.329  0.00  0.00    +0.102 A 
ATOM      3  N   UNL     1      -5.284  -2.038  -2.344  0.00  0.00    -0.352 N 
ATOM      4  C   UNL     1      -5.945  -2.400  -1.232  0.00  0.00    +0.102 A 
ATOM      5  C   UNL     1      -5.393  -2.228   0.019  0.00  0.00    +0.100 A 
ATOM      6  C   UNL     1      -4.047  -1.640   0.114  0.00  0.00    +0.206 A 
ATOM      7  O   UNL     1      -3.503  -1.467   1.192  0.00  0.00    -0.286 OA
ENDROOT
BRANCH   5   8
ATOM      8  C   UNL     1      -6.130  -2.628   1.230  0.00  0.00    +0.249 C 
ATOM      9  O   UNL     1      -7.193  -3.211   1.131  0.00  0.00    -0.270 OA
ATOM     10  N   UNL     1      -5.625  -2.349   2.449  0.00  0.00    -0.314 N 
ATOM     11  C   UNL     1      -6.407  -2.647   3.651  0.00  0.00    +0.128 C 
ATOM     12  H   UNL     1      -4.744  -1.952   2.529  0.00  0.00    +0.149 HD
ENDBRANCH   5   8
BRANCH   1  14
ATOM     13  N   UNL     1      -1.356  -0.549   0.008  0.00  0.00    -0.305 N 
ATOM     14  C   UNL     1      -2.042  -0.662  -1.146  0.00  0.00    +0.250 C 
ATOM     15  O   UNL     1      -1.551  -0.268  -2.187  0.00  0.00    -0.270 OA
ATOM     16  H   UNL     1      -1.775  -0.795   0.848  0.00  0.00    +0.149 HD
BRANCH  13  18
ATOM     17  C   UNL     1       0.018   1.474   0.019  0.00  0.00    +0.032 C 
ATOM     18  C   UNL     1       0.024  -0.056  -0.005  0.00  0.00    +0.113 C 
BRANCH  18  19
ATOM     19  C   UNL     1       0.765  -0.582   1.225  0.00  0.00    +0.194 C 
ATOM     20  N   UNL     1       0.144  -0.063   2.449  0.00  0.00    -0.362 N 
ATOM     21  C   UNL     1       1.045   0.634   3.079  0.00  0.00    +0.060 A 
ATOM     22  C   UNL     1       1.024   1.387   4.341  0.00  0.00    +0.027 A 
ATOM     23  C   UNL     1       2.137   2.027   4.752  0.00  0.00    +0.002 A 
ATOM     24  C   UNL     1       3.337   2.008   4.020  0.00  0.00    +0.002 A 
ATOM     25  C   UNL     1       3.464   1.349   2.851  0.00  0.00    +0.027 A 
ATOM     26  C   UNL     1       2.316   0.614   2.304  0.00  0.00    +0.060 A 
ATOM     27  N   UNL     1       2.151  -0.095   1.225  0.00  0.00    -0.362 N 
ATOM     28  H   UNL     1      -0.771  -0.211   2.736  0.00  0.00    +0.162 HD
ATOM     29  H   UNL     1       2.820  -0.270   0.545  0.00  0.00    +0.162 HD
ENDBRANCH  18  19
ENDBRANCH  13  18
ENDBRANCH   1  14
BRANCH   3  30
ATOM     30  C   UNL     1      -5.935  -2.250  -3.639  0.00  0.00    +0.121 C 
BRANCH  30  31
ATOM     31  C   UNL     1      -5.575  -3.639  -4.170  0.00  0.00    +0.026 C 
BRANCH  31  32
ATOM     32  C   UNL     1      -6.255  -3.861  -5.522  0.00  0.00    +0.037 C 
BRANCH  32  33
ATOM     33  C   UNL     1      -5.900  -5.229  -6.045  0.00  0.00    -0.047 A 
ATOM     34  C   UNL     1      -4.779  -5.398  -6.835  0.00  0.00    +0.003 A 
ATOM     35  C   UNL     1      -4.453  -6.653  -7.315  0.00  0.00    +0.000 A 
ATOM     36  C   UNL     1      -5.249  -7.739  -7.003  0.00  0.00    +0.000 A 
ATOM     37  C   UNL     1      -6.370  -7.571  -6.212  0.00  0.00    +0.000 A 
ATOM     38  C   UNL     1      -6.693  -6.317  -5.729  0.00  0.00    +0.003 A 
ENDBRANCH  32  33
ENDBRANCH  31  32
ENDBRANCH  30  31
ENDBRANCH   3  30
TORSDOF 8
