REMARK  Name = ZINC49544441
REMARK  5 active torsions:
REMARK  status: ('A' for Active; 'I' for Inactive)
REMARK    1  A    between atoms: C_1  and  N_2
REMARK    2  A    between atoms: C_8  and  C_22
REMARK    3  A    between atoms: N_13  and  C_14
REMARK    4  A    between atoms: C_17  and  O_20
REMARK    5  A    between atoms: O_20  and  C_21
REMARK                            x       y       z     vdW  Elec       q    Type
REMARK                         _______ _______ _______ _____ _____    ______ ____
ROOT
ATOM      1  C   UNL     1      -0.155   1.556   0.841  0.00  0.00    +0.154 C 
ATOM      2  N   UNL     1      -0.059   0.095   0.779  0.00  0.00    -0.293 N 
ATOM      3  C   UNL     1      -1.168  -0.654   0.490  0.00  0.00    +0.126 A 
ATOM      4  C   UNL     1      -0.963  -1.988   0.452  0.00  0.00    +0.042 A 
ATOM      5  S   UNL     1       0.756  -2.151   0.826  0.00  0.00    -0.029 S 
ATOM      6  C   UNL     1       1.123  -0.517   1.001  0.00  0.00    +0.292 A 
ATOM      7  O   UNL     1       2.198  -0.009   1.267  0.00  0.00    -0.259 OA
ATOM      8  C   UNL     1      -1.992  -3.024   0.149  0.00  0.00    +0.068 C 
ATOM      9  C   UNL     1      -3.364  -2.470   0.561  0.00  0.00    +0.110 C 
ATOM     10  C   UNL     1      -3.491  -1.028   0.159  0.00  0.00    +0.226 C 
ATOM     11  O   UNL     1      -4.565  -0.630  -0.241  0.00  0.00    -0.275 OA
ATOM     12  N   UNL     1      -2.466  -0.159   0.224  0.00  0.00    -0.225 N 
ENDROOT
BRANCH   8  13
ATOM     13  C   UNL     1      -1.988  -3.329  -1.326  0.00  0.00    -0.037 A 
ATOM     14  C   UNL     1      -2.246  -2.324  -2.240  0.00  0.00    +0.007 A 
ATOM     15  C   UNL     1      -2.242  -2.602  -3.594  0.00  0.00    +0.040 A 
ATOM     16  C   UNL     1      -1.981  -3.888  -4.036  0.00  0.00    +0.142 A 
ATOM     17  C   UNL     1      -1.723  -4.895  -3.119  0.00  0.00    +0.076 A 
ATOM     18  C   UNL     1      -1.722  -4.613  -1.765  0.00  0.00    +0.027 A 
ATOM     19 CL   UNL     1      -1.395  -6.508  -3.671  0.00  0.00    -0.081 Cl
ATOM     20  F   UNL     1      -1.977  -4.161  -5.359  0.00  0.00    -0.204 F 
ENDBRANCH   8  13
BRANCH  12  21
ATOM     21  C   UNL     1      -2.681   1.213   0.032  0.00  0.00    +0.043 A 
ATOM     22  C   UNL     1      -2.466   1.782  -1.216  0.00  0.00    +0.027 A 
ATOM     23  C   UNL     1      -2.678   3.133  -1.405  0.00  0.00    +0.047 A 
ATOM     24  C   UNL     1      -3.104   3.923  -0.347  0.00  0.00    +0.120 A 
ATOM     25  C   UNL     1      -3.319   3.355   0.901  0.00  0.00    +0.047 A 
ATOM     26  C   UNL     1      -3.114   2.003   1.089  0.00  0.00    +0.027 A 
BRANCH  24  27
ATOM     27  O   UNL     1      -3.312   5.253  -0.533  0.00  0.00    -0.495 OA
ATOM     28  C   UNL     1      -3.751   6.006   0.600  0.00  0.00    +0.277 C 
ENDBRANCH  24  27
ENDBRANCH  12  21
TORSDOF 3
