REMARK  Name = ZINC64880112
REMARK  5 active torsions:
REMARK  status: ('A' for Active; 'I' for Inactive)
REMARK    1  A    between atoms: C_1  and  O_2
REMARK    2  A    between atoms: O_2  and  C_3
REMARK    3  A    between atoms: C_7  and  N_9
REMARK    4  A    between atoms: C_10  and  C_12
REMARK    5  A    between atoms: C_17  and  N_18
REMARK                            x       y       z     vdW  Elec       q    Type
REMARK                         _______ _______ _______ _____ _____    ______ ____
ROOT
ATOM      1  N   UNL     1       1.236  -3.987  -2.253  0.00  0.00    -0.280 N 
ATOM      2  C   UNL     1       0.806  -4.757  -1.234  0.00  0.00    +0.250 C 
ATOM      3  O   UNL     1       0.264  -4.245  -0.273  0.00  0.00    -0.270 OA
ATOM      4  H   UNL     1       1.613  -4.399  -3.046  0.00  0.00    +0.155 HD
ENDROOT
BRANCH   1   9
ATOM      5  C   UNL     1      -0.028  -0.631  -1.429  0.00  0.00    +0.122 A 
ATOM      6  C   UNL     1       0.954   0.166  -2.001  0.00  0.00    +0.047 A 
ATOM      7  C   UNL     1       2.025  -0.416  -2.654  0.00  0.00    +0.025 A 
ATOM      8  C   UNL     1       2.121  -1.792  -2.739  0.00  0.00    +0.062 A 
ATOM      9  C   UNL     1       1.140  -2.594  -2.167  0.00  0.00    +0.056 A 
ATOM     10  C   UNL     1       0.067  -2.011  -1.507  0.00  0.00    +0.070 A 
ATOM     11 CL   UNL     1       3.466  -2.519  -3.561  0.00  0.00    -0.082 Cl
BRANCH   5  13
ATOM     12  C   UNL     1      -1.114   1.371  -0.745  0.00  0.00    +0.277 C 
ATOM     13  O   UNL     1      -1.080  -0.057  -0.787  0.00  0.00    -0.495 OA
ENDBRANCH   5  13
ENDBRANCH   1   9
BRANCH   2  14
ATOM     14  C   UNL     1       0.992  -6.222  -1.284  0.00  0.00    +0.067 A 
ATOM     15  C   UNL     1       0.504  -6.953  -2.369  0.00  0.00    +0.017 A 
ATOM     16  C   UNL     1       0.681  -8.320  -2.411  0.00  0.00    +0.021 A 
ATOM     17  C   UNL     1       1.341  -8.967  -1.379  0.00  0.00    +0.043 A 
ATOM     18  C   UNL     1       1.826  -8.247  -0.300  0.00  0.00    +0.053 A 
ATOM     19  C   UNL     1       1.661  -6.879  -0.250  0.00  0.00    +0.140 A 
ATOM     20 CL   UNL     1       1.560 -10.689  -1.438  0.00  0.00    -0.083 Cl
BRANCH  19  21
ATOM     21  N   UNL     1       2.186  -6.110   0.900  0.00  0.00    +0.057 N 
ATOM     22  O   UNL     1       2.658  -6.690   1.850  0.00  0.00    -0.126 OA
ATOM     23  O   UNL     1       2.142  -4.902   0.890  0.00  0.00    -0.126 OA
ENDBRANCH  19  21
ENDBRANCH   2  14
TORSDOF 4
