REMARK  Name = ZINC13100499
REMARK  8 active torsions:
REMARK  status: ('A' for Active; 'I' for Inactive)
REMARK    1  A    between atoms: C_1  and  C_2
REMARK    2  A    between atoms: C_2  and  N_3
REMARK    3  A    between atoms: N_12  and  C_13
REMARK    4  A    between atoms: C_13  and  C_15
REMARK    5  A    between atoms: C_15  and  S_16
REMARK    6  A    between atoms: S_16  and  C_17
REMARK    7  A    between atoms: C_17  and  C_18
REMARK    8  A    between atoms: C_23  and  C_26
REMARK                            x       y       z     vdW  Elec       q    Type
REMARK                         _______ _______ _______ _____ _____    ______ ____
ROOT
ATOM      1  C   UNL     1      -3.013  -3.074  -0.089  0.00  0.00    +0.248 C 
ATOM      2  O   UNL     1      -4.041  -2.426  -0.138  0.00  0.00    -0.273 OA
ENDROOT
BRANCH   1  12
ATOM      3  N   UNL     1      -4.490  -6.358  -0.069  0.00  0.00    -0.321 N 
ATOM      4  C   UNL     1      -5.793  -6.822  -0.096  0.00  0.00    +0.058 A 
ATOM      5  C   UNL     1      -6.244  -8.151  -0.082  0.00  0.00    +0.030 A 
ATOM      6  C   UNL     1      -7.588  -8.438  -0.120  0.00  0.00    +0.040 A 
ATOM      7  C   UNL     1      -8.537  -7.429  -0.175  0.00  0.00    +0.125 A 
ATOM      8  C   UNL     1      -8.118  -6.108  -0.191  0.00  0.00    +0.055 A 
ATOM      9  C   UNL     1      -6.774  -5.822  -0.152  0.00  0.00    +0.042 A 
ATOM     10  S   UNL     1      -5.826  -4.321  -0.154  0.00  0.00    -0.052 S 
ATOM     11  C   UNL     1      -4.241  -5.022  -0.086  0.00  0.00    +0.166 A 
ATOM     12  N   UNL     1      -3.064  -4.401  -0.061  0.00  0.00    -0.156 NA
ATOM     13  F   UNL     1      -9.854  -7.729  -0.212  0.00  0.00    -0.205 F 
BRANCH   3  15
ATOM     14  C   UNL     1      -2.211  -6.775  -0.853  0.00  0.00    +0.027 C 
ATOM     15  C   UNL     1      -3.376  -7.309  -0.017  0.00  0.00    +0.121 C 
ENDBRANCH   3  15
ENDBRANCH   1  12
BRANCH   1  16
ATOM     16  C   UNL     1      -1.680  -2.371  -0.061  0.00  0.00    +0.167 C 
BRANCH  16  17
ATOM     17  S   UNL     1      -1.942  -0.576  -0.110  0.00  0.00    -0.142 S 
BRANCH  17  18
ATOM     18  C   UNL     1      -0.265   0.113  -0.070  0.00  0.00    +0.165 C 
BRANCH  18  19
ATOM     19  C   UNL     1      -0.339   1.618  -0.107  0.00  0.00    +0.228 C 
ATOM     20  O   UNL     1      -1.417   2.171  -0.160  0.00  0.00    -0.275 OA
ATOM     21  N   UNL     1       0.792   2.349  -0.086  0.00  0.00    -0.267 N 
ATOM     22  C   UNL     1       0.724   3.742  -0.120  0.00  0.00    +0.168 A 
ATOM     23  C   UNL     1      -0.452   4.537  -0.183  0.00  0.00    +0.091 A 
ATOM     24  C   UNL     1       0.012   5.807  -0.191  0.00  0.00    +0.136 A 
ATOM     25  O   UNL     1       1.350   5.726  -0.145  0.00  0.00    -0.358 OA
ATOM     26  N   UNL     1       1.728   4.579  -0.106  0.00  0.00    -0.063 NA
ATOM     27  C   UNL     1      -0.813   7.067  -0.247  0.00  0.00    +0.089 C 
ATOM     28  H   UNL     1       1.655   1.907  -0.048  0.00  0.00    +0.156 HD
ENDBRANCH  18  19
ENDBRANCH  17  18
ENDBRANCH  16  17
ENDBRANCH   1  16
TORSDOF 6
