REMARK  Name = ZINC31849215
REMARK  4 active torsions:
REMARK  status: ('A' for Active; 'I' for Inactive)
REMARK    1  A    between atoms: C_1  and  N_2
REMARK    2  A    between atoms: C_6  and  C_7
REMARK    3  A    between atoms: C_7  and  S_8
REMARK    4  A    between atoms: S_8  and  C_9
REMARK                            x       y       z     vdW  Elec       q    Type
REMARK                         _______ _______ _______ _____ _____    ______ ____
ROOT
ATOM      1  C   UNL     1       0.047  -2.353   1.406  0.00  0.00    +0.191 A 
ATOM      2  N   UNL     1       0.073  -3.191   2.435  0.00  0.00    -0.207 NA
ATOM      3  C   UNL     1       0.085  -4.503   2.272  0.00  0.00    +0.129 A 
ATOM      4  C   UNL     1       0.080  -5.042   0.956  0.00  0.00    +0.047 A 
ATOM      5  C   UNL     1       0.096  -6.429   0.521  0.00  0.00    +0.021 A 
ATOM      6  C   UNL     1       0.087  -6.704  -0.791  0.00  0.00    +0.048 A 
ATOM      7  S   UNL     1       0.058  -5.093  -1.554  0.00  0.00    -0.077 S 
ATOM      8  C   UNL     1       0.057  -4.093  -0.089  0.00  0.00    +0.114 A 
ATOM      9  N   UNL     1       0.042  -2.798   0.156  0.00  0.00    -0.215 NA
ATOM     10  N   UNL     1       0.106  -5.343   3.371  0.00  0.00    -0.343 N 
ATOM     11  H   UNL     1       0.116  -6.434   3.229  0.00  0.00    +0.144 HD
ATOM     12  H   UNL     1       0.114  -4.920   4.386  0.00  0.00    +0.144 HD
ENDROOT
BRANCH   1  13
ATOM     13  S   UNL     1       0.026  -0.617   1.705  0.00  0.00    -0.078 S 
BRANCH  13  14
ATOM     14  C   UNL     1       0.002  -0.004   0.002  0.00  0.00    +0.151 C 
BRANCH  14  20
ATOM     15  C   UNL     1      -2.515   1.805   0.022  0.00  0.00    +0.151 C 
ATOM     16  N   UNL     1      -1.127   2.275   0.019  0.00  0.00    -0.321 N 
ATOM     17  C   UNL     1      -0.712   3.580   0.028  0.00  0.00    +0.129 A 
ATOM     18  C   UNL     1       0.636   3.559   0.015  0.00  0.00    +0.151 A 
ATOM     19  N   UNL     1       1.032   2.277   0.004  0.00  0.00    -0.238 NA
ATOM     20  C   UNL     1      -0.018   1.503   0.010  0.00  0.00    +0.121 A 
ATOM     21 CL   UNL     1      -1.726   4.989   0.045  0.00  0.00    -0.062 Cl
ENDBRANCH  14  20
ENDBRANCH  13  14
ENDBRANCH   1  13
TORSDOF 3
