REMARK  Name = ZINC35036032
REMARK  10 active torsions:
REMARK  status: ('A' for Active; 'I' for Inactive)
REMARK    1  A    between atoms: C_1  and  C_2
REMARK    2  A    between atoms: C_2  and  C_3
REMARK    3  A    between atoms: C_3  and  N_4
REMARK    4  A    between atoms: C_14  and  C_15
REMARK    5  A    between atoms: C_15  and  C_17
REMARK    6  A    between atoms: C_15  and  N_19
REMARK    7  A    between atoms: C_17  and  C_18
REMARK    8  A    between atoms: C_23  and  C_26
REMARK    9  A    between atoms: C_27  and  C_29
REMARK   10  A    between atoms: C_32  and  C_35
REMARK                            x       y       z     vdW  Elec       q    Type
REMARK                         _______ _______ _______ _____ _____    ______ ____
ROOT
ATOM      1  C   UNL     1       0.326  -1.524   2.401  0.00  0.00    -0.001 C 
ENDROOT
BRANCH   1  12
ATOM      2  N   UNL     1       0.874  -2.002   0.049  0.00  0.00    -0.297 N 
ATOM      3  C   UNL     1       0.670  -2.621  -1.137  0.00  0.00    +0.262 A 
ATOM      4  O   UNL     1       1.405  -2.424  -2.087  0.00  0.00    -0.267 OA
ATOM      5  C   UNL     1      -0.472  -3.542  -1.233  0.00  0.00    +0.065 A 
ATOM      6  C   UNL     1      -0.768  -4.229  -2.408  0.00  0.00    +0.015 A 
ATOM      7  C   UNL     1      -1.851  -5.080  -2.442  0.00  0.00    +0.001 A 
ATOM      8  C   UNL     1      -2.647  -5.256  -1.318  0.00  0.00    +0.002 A 
ATOM      9  C   UNL     1      -2.372  -4.586  -0.147  0.00  0.00    +0.028 A 
ATOM     10  C   UNL     1      -1.279  -3.718  -0.087  0.00  0.00    +0.078 A 
ATOM     11  N   UNL     1      -0.971  -3.039   1.046  0.00  0.00    -0.235 NA
ATOM     12  C   UNL     1       0.048  -2.236   1.102  0.00  0.00    +0.099 A 
BRANCH   2  13
ATOM     13  C   UNL     1       1.998  -1.074   0.201  0.00  0.00    +0.126 C 
BRANCH  13  15
ATOM     14  C   UNL     1       4.378  -0.856   0.926  0.00  0.00    +0.005 C 
ATOM     15  C   UNL     1       3.205  -1.824   0.768  0.00  0.00    +0.018 C 
ENDBRANCH  13  15
ENDBRANCH   2  13
ENDBRANCH   1  12
BRANCH   1  16
ATOM     16  N   UNL     1      -0.032  -2.399   3.526  0.00  0.00    +0.388 N 
ATOM     17  C   UNL     1       0.299  -1.729   4.789  0.00  0.00    -0.059 C 
ATOM     18  C   UNL     1      -0.178  -2.590   5.963  0.00  0.00    +0.090 C 
ATOM     19  N   UNL     1       0.400  -3.935   5.820  0.00  0.00    -0.298 N 
ATOM     20  C   UNL     1       0.257  -4.617   4.525  0.00  0.00    +0.057 C 
ATOM     21  C   UNL     1       0.713  -3.660   3.419  0.00  0.00    -0.055 C 
ATOM     22  C   UNL     1       1.123  -5.878   4.509  0.00  0.00    +0.026 C 
ATOM     23  C   UNL     1       1.044  -4.525   6.847  0.00  0.00    +0.247 C 
ATOM     24  O   UNL     1       1.612  -5.587   6.678  0.00  0.00    -0.270 OA
ATOM     25  H   UNL     1      -1.022  -2.591   3.499  0.00  0.00    -0.081 HD
BRANCH  23  26
ATOM     26  C   UNL     1       1.060  -3.882   8.178  0.00  0.00    +0.037 A 
ATOM     27  C   UNL     1       0.024  -3.027   8.555  0.00  0.00    +0.013 A 
ATOM     28  C   UNL     1       0.044  -2.430   9.799  0.00  0.00    +0.004 A 
ATOM     29  C   UNL     1       1.090  -2.677  10.671  0.00  0.00    -0.050 A 
ATOM     30  C   UNL     1       2.121  -3.523  10.302  0.00  0.00    +0.004 A 
ATOM     31  C   UNL     1       2.109  -4.131   9.064  0.00  0.00    +0.013 A 
ATOM     32  C   UNL     1       1.106  -2.021  12.027  0.00  0.00    +0.044 C 
ENDBRANCH  23  26
ENDBRANCH   1  16
BRANCH   1  33
ATOM     33  C   UNL     1      -0.506  -0.242   2.468  0.00  0.00    -0.011 C 
ATOM     34  C   UNL     1      -1.994  -0.599   2.459  0.00  0.00    +0.002 C 
ENDBRANCH   1  33
TORSDOF 6
