REMARK  Name = ZINC08074983
REMARK  4 active torsions:
REMARK  status: ('A' for Active; 'I' for Inactive)
REMARK    1  A    between atoms: C_1  and  C_2
REMARK    2  A    between atoms: C_9  and  C_11
REMARK    3  A    between atoms: N_13  and  C_14
REMARK    4  A    between atoms: C_18  and  N_20
REMARK                            x       y       z     vdW  Elec       q    Type
REMARK                         _______ _______ _______ _____ _____    ______ ____
ROOT
ATOM      1  C   UNL     1      -1.809   2.639   5.042  0.00  0.00    +0.255 C 
ATOM      2  O   UNL     1      -2.865   3.134   5.392  0.00  0.00    -0.269 OA
ATOM      3  N   UNL     1      -0.845   2.394   5.951  0.00  0.00    -0.281 N 
ATOM      4  H   UNL     1      -0.031   1.939   5.684  0.00  0.00    +0.155 HD
ENDROOT
BRANCH   1  12
ATOM      5  C   UNL     1      -3.000   1.548  -2.361  0.00  0.00    +0.008 C 
ATOM      6  C   UNL     1      -2.272   1.295  -1.040  0.00  0.00    -0.009 C 
ATOM      7  C   UNL     1      -0.776   1.567  -1.224  0.00  0.00    +0.009 C 
ATOM      8  C   UNL     1      -0.025   1.054   0.013  0.00  0.00    +0.043 C 
ATOM      9  C   UNL     1      -0.733   1.552   1.236  0.00  0.00    -0.006 A 
ATOM     10  C   UNL     1      -1.991   2.081   1.300  0.00  0.00    -0.036 A 
ATOM     11  C   UNL     1      -2.438   2.477   2.551  0.00  0.00    +0.024 A 
ATOM     12  C   UNL     1      -1.587   2.309   3.631  0.00  0.00    +0.075 A 
ATOM     13  S   UNL     1      -0.151   1.585   2.857  0.00  0.00    -0.088 S 
ATOM     14  C   UNL     1      -2.840   2.217   0.039  0.00  0.00    +0.039 C 
ENDBRANCH   1  12
BRANCH   3  15
ATOM     15  C   UNL     1      -1.018   2.797   7.280  0.00  0.00    +0.036 A 
ATOM     16  C   UNL     1      -2.279   2.758   7.860  0.00  0.00    +0.026 A 
ATOM     17  C   UNL     1      -2.448   3.155   9.171  0.00  0.00    +0.042 A 
ATOM     18  C   UNL     1      -1.360   3.593   9.908  0.00  0.00    +0.154 A 
ATOM     19  C   UNL     1      -0.102   3.633   9.332  0.00  0.00    +0.163 A 
ATOM     20  C   UNL     1       0.072   3.231   8.022  0.00  0.00    +0.059 A 
ATOM     21  F   UNL     1      -1.527   3.982  11.192  0.00  0.00    -0.203 F 
BRANCH  19  22
ATOM     22  N   UNL     1       1.059   4.101  10.122  0.00  0.00    +0.059 N 
ATOM     23  O   UNL     1       2.166   4.137   9.616  0.00  0.00    -0.126 OA
ATOM     24  O   UNL     1       0.907   4.452  11.279  0.00  0.00    -0.126 OA
ENDBRANCH  19  22
ENDBRANCH   3  15
TORSDOF 3
