REMARK  Name = ZINC43649573
REMARK  1 active torsions:
REMARK  status: ('A' for Active; 'I' for Inactive)
REMARK    1  A    between atoms: C_15  and  C_18
REMARK                            x       y       z     vdW  Elec       q    Type
REMARK                         _______ _______ _______ _____ _____    ______ ____
ROOT
ATOM      1  C   UNL     1       1.805  -4.655  -0.047  0.00  0.00    +0.000 A 
ATOM      2  C   UNL     1       3.186  -4.583  -0.060  0.00  0.00    +0.002 A 
ATOM      3  C   UNL     1       3.816  -3.357  -0.059  0.00  0.00    +0.024 A 
ATOM      4  C   UNL     1       3.067  -2.180  -0.044  0.00  0.00    +0.041 A 
ATOM      5  C   UNL     1       1.683  -2.263  -0.031  0.00  0.00    -0.024 A 
ATOM      6  C   UNL     1       1.056  -3.494  -0.032  0.00  0.00    +0.005 A 
ATOM      7  C   UNL     1       1.117  -0.861  -0.016  0.00  0.00    +0.056 C 
ATOM      8  C   UNL     1       2.352   0.056  -0.022  0.00  0.00    +0.120 C 
ATOM      9  N   UNL     1       3.503  -0.851  -0.039  0.00  0.00    -0.255 N 
ATOM     10  C   UNL     1       4.793  -0.461  -0.049  0.00  0.00    +0.312 C 
ATOM     11  O   UNL     1       5.679  -1.290   0.030  0.00  0.00    -0.252 OA
ATOM     12  N   UNL     1       5.101   0.847  -0.146  0.00  0.00    -0.248 N 
ATOM     13  C   UNL     1       6.429   1.242  -0.263  0.00  0.00    +0.166 A 
ATOM     14  N   UNL     1       6.913   2.461  -0.362  0.00  0.00    -0.229 NA
ATOM     15  C   UNL     1       8.213   2.672  -0.467  0.00  0.00    +0.054 A 
ATOM     16  C   UNL     1       9.016   1.580  -0.467  0.00  0.00    +0.072 A 
ATOM     17  S   UNL     1       7.807   0.277  -0.303  0.00  0.00    -0.060 S 
ATOM     18  H   UNL     1       4.396   1.514  -0.135  0.00  0.00    +0.158 HD
ENDROOT
BRANCH  15  19
ATOM     19  C   UNL     1       8.777   4.064  -0.581  0.00  0.00    +0.038 C 
ATOM     20  C   UNL     1      10.273   4.244  -0.315  0.00  0.00    +0.010 C 
ATOM     21  C   UNL     1       9.248   4.744   0.706  0.00  0.00    +0.010 C 
ENDBRANCH  15  19
TORSDOF 1
