REMARK  Name = ZINC46865408
REMARK  7 active torsions:
REMARK  status: ('A' for Active; 'I' for Inactive)
REMARK    1  A    between atoms: C_1  and  C_2
REMARK    2  A    between atoms: C_6  and  C_8
REMARK    3  A    between atoms: C_8  and  N_9
REMARK    4  A    between atoms: C_12  and  N_15
REMARK    5  A    between atoms: C_16  and  C_18
REMARK    6  A    between atoms: C_18  and  N_19
REMARK    7  A    between atoms: C_27  and  C_29
REMARK                            x       y       z     vdW  Elec       q    Type
REMARK                         _______ _______ _______ _____ _____    ______ ____
ROOT
ATOM      1  N   UNL     1       5.051  -3.196   5.080  0.00  0.00    -0.311 N 
ATOM      2  C   UNL     1       5.421  -3.516   6.336  0.00  0.00    +0.231 C 
ATOM      3  O   UNL     1       4.590  -3.569   7.218  0.00  0.00    -0.274 OA
ATOM      4  H   UNL     1       5.716  -3.154   4.375  0.00  0.00    +0.149 HD
ENDROOT
BRANCH   1   8
ATOM      5  N   UNL     1       1.444  -3.074   2.904  0.00  0.00    +0.382 N 
ATOM      6  C   UNL     1       2.087  -1.785   3.190  0.00  0.00    -0.077 C 
ATOM      7  C   UNL     1       3.558  -2.012   3.545  0.00  0.00    +0.003 C 
ATOM      8  C   UNL     1       3.646  -2.913   4.780  0.00  0.00    +0.069 C 
ATOM      9  C   UNL     1       2.908  -4.225   4.496  0.00  0.00    +0.003 C 
ATOM     10  C   UNL     1       1.461  -3.916   4.106  0.00  0.00    -0.077 C 
ATOM     11  H   UNL     1       1.944  -3.539   2.161  0.00  0.00    -0.081 HD
BRANCH   5  12
ATOM     12  C   UNL     1       0.054  -2.845   2.489  0.00  0.00    -0.043 C 
BRANCH  12  18
ATOM     13  C   UNL     1      -0.018   1.503   0.010  0.00  0.00    +0.044 C 
ATOM     14  C   UNL     1       0.002  -0.004   0.002  0.00  0.00    -0.050 A 
ATOM     15  C   UNL     1       0.006  -0.689  -1.199  0.00  0.00    +0.003 A 
ATOM     16  C   UNL     1       0.025  -2.071  -1.207  0.00  0.00    +0.000 A 
ATOM     17  C   UNL     1       0.040  -2.768  -0.013  0.00  0.00    +0.002 A 
ATOM     18  C   UNL     1       0.037  -2.084   1.188  0.00  0.00    -0.064 A 
ATOM     19  C   UNL     1       0.023  -0.702   1.195  0.00  0.00    +0.005 A 
ENDBRANCH  12  18
ENDBRANCH   5  12
ENDBRANCH   1   8
BRANCH   2  20
ATOM     20  C   UNL     1       6.867  -3.807   6.645  0.00  0.00    +0.213 C 
BRANCH  20  21
ATOM     21  N   UNL     1       7.008  -4.125   8.068  0.00  0.00    -0.215 N 
ATOM     22  C   UNL     1       7.245  -3.209   9.030  0.00  0.00    +0.247 C 
ATOM     23  O   UNL     1       7.378  -2.013   8.887  0.00  0.00    -0.273 OA
ATOM     24  C   UNL     1       7.311  -3.990  10.323  0.00  0.00    +0.115 C 
ATOM     25  C   UNL     1       6.216  -3.529  11.278  0.00  0.00    +0.035 C 
ATOM     26  C   UNL     1       6.281  -4.351  12.568  0.00  0.00    +0.003 C 
ATOM     27  C   UNL     1       7.655  -4.173  13.216  0.00  0.00    +0.000 C 
ATOM     28  C   UNL     1       8.741  -4.661  12.255  0.00  0.00    +0.006 C 
ATOM     29  C   UNL     1       8.686  -3.840  10.965  0.00  0.00    +0.018 C 
ATOM     30  C   UNL     1       9.758  -4.341   9.995  0.00  0.00    +0.010 C 
ATOM     31  N   UNL     1       7.083  -5.381   9.912  0.00  0.00    -0.285 N 
ATOM     32  C   UNL     1       6.911  -5.360   8.576  0.00  0.00    +0.310 C 
ATOM     33  O   UNL     1       6.696  -6.351   7.907  0.00  0.00    -0.252 OA
ATOM     34  H   UNL     1       7.058  -6.160  10.489  0.00  0.00    +0.151 HD
ENDBRANCH  20  21
ENDBRANCH   2  20
TORSDOF 5
