REMARK  Name = ZINC20962477
REMARK  3 active torsions:
REMARK  status: ('A' for Active; 'I' for Inactive)
REMARK    1  A    between atoms: C_4  and  C_6
REMARK    2  A    between atoms: C_4  and  C_8
REMARK    3  A    between atoms: N_10  and  C_11
REMARK                            x       y       z     vdW  Elec       q    Type
REMARK                         _______ _______ _______ _____ _____    ______ ____
ROOT
ATOM      1  C   UNL     1      -0.018   1.503   0.010  0.00  0.00    +0.234 C 
ATOM      2  O   UNL     1       1.024   2.123   0.004  0.00  0.00    -0.274 OA
ATOM      3  N   UNL     1      -1.195   2.161   0.019  0.00  0.00    -0.308 N 
ATOM      4  H   UNL     1      -2.140   1.598   0.021  0.00  0.00    +0.149 HD
ENDROOT
BRANCH   3   5
ATOM      5  C   UNL     1      -1.214   3.626   0.028  0.00  0.00    +0.035 C 
ATOM      6  C   UNL     1      -0.494   4.138   1.276  0.00  0.00    +0.029 C 
ATOM      7  C   UNL     1      -0.515   5.668   1.285  0.00  0.00    -0.008 C 
ATOM      8  C   UNL     1      -1.964   6.159   1.294  0.00  0.00    +0.007 C 
ATOM      9  C   UNL     1      -2.684   5.646   0.045  0.00  0.00    -0.008 C 
ATOM     10  C   UNL     1      -2.664   4.116   0.037  0.00  0.00    +0.029 C 
ATOM     11  C   UNL     1      -1.976   6.172  -1.204  0.00  0.00    +0.007 C 
ATOM     12  C   UNL     1      -0.527   5.682  -1.214  0.00  0.00    -0.008 C 
ATOM     13  C   UNL     1       0.193   6.195   0.035  0.00  0.00    +0.007 C 
ATOM     14  C   UNL     1      -0.506   4.152  -1.222  0.00  0.00    +0.029 C 
ENDBRANCH   3   5
BRANCH   1  18
ATOM     15  C   UNL     1       0.211  -1.794   1.646  0.00  0.00    +0.002 C 
ATOM     16  C   UNL     1       1.645  -1.346   1.269  0.00  0.00    +0.002 C 
ATOM     17  C   UNL     1       1.455  -0.511  -0.015  0.00  0.00    +0.031 C 
ATOM     18  C   UNL     1       0.002  -0.004   0.002  0.00  0.00    +0.133 C 
ATOM     19  C   UNL     1      -0.640  -0.548   1.295  0.00  0.00    +0.031 C 
BRANCH  18  20
ATOM     20  C   UNL     1      -0.723  -0.511  -1.175  0.00  0.00    +0.079 C 
ATOM     21  N   UNL     1      -1.282  -0.903  -2.083  0.00  0.00    -0.195 NA
ENDBRANCH  18  20
ENDBRANCH   1  18
TORSDOF 3
