REMARK  Name = ZINC43631360
REMARK  5 active torsions:
REMARK  status: ('A' for Active; 'I' for Inactive)
REMARK    1  A    between atoms: C_4  and  O_7
REMARK    2  A    between atoms: O_7  and  C_8
REMARK    3  A    between atoms: C_8  and  C_9
REMARK    4  A    between atoms: C_9  and  C_10
REMARK    5  A    between atoms: C_24  and  C_26
REMARK                            x       y       z     vdW  Elec       q    Type
REMARK                         _______ _______ _______ _____ _____    ______ ____
ROOT
ATOM      1  C   UNL     1       4.542  -4.767  -0.025  0.00  0.00    +0.219 C 
ATOM      2  O   UNL     1       3.583  -5.494  -0.176  0.00  0.00    -0.275 OA
ATOM      3  N   UNL     1       5.787  -5.282  -0.048  0.00  0.00    -0.301 N 
ATOM      4  C   UNL     1       6.962  -4.418   0.140  0.00  0.00    +0.109 C 
ATOM      5  C   UNL     1       7.806  -4.983   1.284  0.00  0.00    +0.042 C 
ATOM      6  C   UNL     1       8.160  -6.444   0.989  0.00  0.00    +0.082 C 
ATOM      7  C   UNL     1       6.875  -7.265   0.849  0.00  0.00    +0.027 C 
ATOM      8  C   UNL     1       6.002  -6.720  -0.254  0.00  0.00    +0.113 C 
ATOM      9  C   UNL     1       6.099  -7.221   2.166  0.00  0.00    +0.008 C 
ATOM     10  C   UNL     1       6.944  -7.854   3.274  0.00  0.00    +0.019 C 
ATOM     11  C   UNL     1       8.247  -7.066   3.436  0.00  0.00    +0.108 C 
ATOM     12  N   UNL     1       8.935  -6.973   2.125  0.00  0.00    -0.293 N 
ATOM     13  C   UNL     1      10.213  -7.368   1.964  0.00  0.00    +0.267 C 
ATOM     14  O   UNL     1      10.704  -7.402   0.852  0.00  0.00    -0.268 OA
ENDROOT
BRANCH  13  15
ATOM     15  C   UNL     1      11.018  -7.760   3.138  0.00  0.00    +0.144 A 
ATOM     16  C   UNL     1      12.270  -8.303   3.106  0.00  0.00    +0.125 A 
ATOM     17  N   UNL     1      12.649  -8.513   4.397  0.00  0.00    -0.306 N 
ATOM     18  C   UNL     1      13.788  -9.028   4.950  0.00  0.00    +0.093 A 
ATOM     19  C   UNL     1      13.917  -9.131   6.288  0.00  0.00    +0.018 A 
ATOM     20  C   UNL     1      12.878  -8.710   7.136  0.00  0.00    +0.005 A 
ATOM     21  C   UNL     1      11.739  -8.196   6.603  0.00  0.00    +0.047 A 
ATOM     22  C   UNL     1      11.617  -8.093   5.200  0.00  0.00    +0.138 A 
ATOM     23  N   UNL     1      10.646  -7.638   4.426  0.00  0.00    -0.223 NA
ENDBRANCH  13  15
BRANCH   1  24
ATOM     24  C   UNL     1       4.341  -3.289   0.188  0.00  0.00    +0.137 C 
BRANCH  24  25
ATOM     25  C   UNL     1       2.845  -2.969   0.170  0.00  0.00    +0.238 C 
BRANCH  25  26
ATOM     26  O   UNL     1       2.655  -1.567   0.372  0.00  0.00    -0.491 OA
BRANCH  26  30
ATOM     27  C   UNL     1      -1.234  -0.190   0.407  0.00  0.00    +0.000 A 
ATOM     28  C   UNL     1      -0.186   0.695   0.586  0.00  0.00    +0.004 A 
ATOM     29  C   UNL     1       1.117   0.236   0.575  0.00  0.00    +0.045 A 
ATOM     30  C   UNL     1       1.374  -1.114   0.384  0.00  0.00    +0.121 A 
ATOM     31  C   UNL     1       0.322  -2.000   0.204  0.00  0.00    +0.045 A 
ATOM     32  C   UNL     1      -0.980  -1.536   0.216  0.00  0.00    +0.004 A 
ENDBRANCH  26  30
ENDBRANCH  25  26
ENDBRANCH  24  25
ENDBRANCH   1  24
TORSDOF 5
