REMARK  Name = ZINC05644984
REMARK  4 active torsions:
REMARK  status: ('A' for Active; 'I' for Inactive)
REMARK    1  A    between atoms: C_1  and  C_2
REMARK    2  A    between atoms: C_2  and  C_23
REMARK    3  A    between atoms: C_6  and  C_13
REMARK    4  A    between atoms: N_11  and  C_12
REMARK                            x       y       z     vdW  Elec       q    Type
REMARK                         _______ _______ _______ _____ _____    ______ ____
ROOT
ATOM      1  C   UNL     1       4.242   6.631  -2.896  0.00  0.00    +0.011 C 
ATOM      2  C   UNL     1       3.694   5.514  -3.787  0.00  0.00    -0.023 C 
ATOM      3  C   UNL     1       4.321   4.179  -3.380  0.00  0.00    +0.058 C 
ATOM      4  C   UNL     1       3.951   3.860  -1.953  0.00  0.00    +0.024 C 
ATOM      5  C   UNL     1       2.776   4.289  -1.438  0.00  0.00    +0.037 C 
ATOM      6  C   UNL     1       2.453   3.935  -0.001  0.00  0.00    +0.143 C 
ATOM      7  N   UNL     1       3.457   3.145   0.732  0.00  0.00    -0.288 N 
ATOM      8  C   UNL     1       4.585   2.791   0.086  0.00  0.00    +0.307 C 
ATOM      9  O   UNL     1       5.422   2.140   0.680  0.00  0.00    -0.252 OA
ATOM     10  N   UNL     1       4.818   3.131  -1.187  0.00  0.00    -0.262 N 
ATOM     11  C   UNL     1       6.077   2.697  -1.796  0.00  0.00    +0.139 C 
ATOM     12  C   UNL     1       1.868   5.043  -2.190  0.00  0.00    +0.163 C 
ATOM     13  O   UNL     1       0.820   5.396  -1.687  0.00  0.00    -0.292 OA
ATOM     14  C   UNL     1       2.174   5.420  -3.616  0.00  0.00    +0.086 C 
ATOM     15  C   UNL     1       4.031   5.814  -5.249  0.00  0.00    +0.011 C 
ATOM     16  H   UNL     1       3.309   2.886   1.655  0.00  0.00    +0.151 HD
ENDROOT
BRANCH   6  17
ATOM     17  C   UNL     1       1.158   3.165   0.007  0.00  0.00    +0.013 A 
ATOM     18  C   UNL     1      -0.002   3.768   0.456  0.00  0.00    +0.008 A 
ATOM     19  C   UNL     1      -1.190   3.061   0.465  0.00  0.00    +0.001 A 
ATOM     20  C   UNL     1      -1.219   1.749   0.029  0.00  0.00    +0.003 A 
ATOM     21  C   UNL     1      -0.061   1.146  -0.424  0.00  0.00    +0.039 A 
ATOM     22  C   UNL     1       1.129   1.853  -0.433  0.00  0.00    +0.129 A 
ATOM     23  F   UNL     1       2.263   1.262  -0.872  0.00  0.00    -0.205 F 
ENDBRANCH   6  17
TORSDOF 1
