REMARK  Name = ZINC24144208
REMARK  6 active torsions:
REMARK  status: ('A' for Active; 'I' for Inactive)
REMARK    1  A    between atoms: C_6  and  N_7
REMARK    2  A    between atoms: C_8  and  C_28
REMARK    3  A    between atoms: C_11  and  S_12
REMARK    4  A    between atoms: S_12  and  C_13
REMARK    5  A    between atoms: C_13  and  C_14
REMARK    6  A    between atoms: C_28  and  N_29
REMARK                            x       y       z     vdW  Elec       q    Type
REMARK                         _______ _______ _______ _____ _____    ______ ____
ROOT
ATOM      1  N   UNL     1      -1.695   0.876   1.939  0.00  0.00    -0.276 N 
ATOM      2  C   UNL     1      -0.652   1.514   1.320  0.00  0.00    +0.122 A 
ATOM      3  N   UNL     1      -0.520   2.680   1.886  0.00  0.00    -0.135 NA
ATOM      4  N   UNL     1      -1.405   2.828   2.806  0.00  0.00    -0.122 NA
ATOM      5  C   UNL     1      -2.152   1.751   2.886  0.00  0.00    +0.197 A 
ENDROOT
BRANCH   1  11
ATOM      6  C   UNL     1      -2.818  -0.659   0.447  0.00  0.00    +0.029 A 
ATOM      7  C   UNL     1      -3.302  -1.923   0.171  0.00  0.00    +0.040 A 
ATOM      8  C   UNL     1      -3.170  -2.935   1.107  0.00  0.00    +0.124 A 
ATOM      9  C   UNL     1      -2.549  -2.683   2.319  0.00  0.00    +0.040 A 
ATOM     10  C   UNL     1      -2.059  -1.421   2.596  0.00  0.00    +0.029 A 
ATOM     11  C   UNL     1      -2.191  -0.406   1.659  0.00  0.00    +0.050 A 
ATOM     12  F   UNL     1      -3.647  -4.170   0.838  0.00  0.00    -0.205 F 
ENDBRANCH   1  11
BRANCH   5  13
ATOM     13  S   UNL     1      -3.489   1.483   4.001  0.00  0.00    -0.076 S 
BRANCH  13  14
ATOM     14  C   UNL     1      -3.468   3.054   4.901  0.00  0.00    +0.173 C 
BRANCH  14  15
ATOM     15  C   UNL     1      -4.560   3.053   5.939  0.00  0.00    +0.226 C 
ATOM     16  O   UNL     1      -5.281   2.085   6.059  0.00  0.00    -0.275 OA
ATOM     17  N   UNL     1      -4.734   4.127   6.734  0.00  0.00    -0.297 N 
ATOM     18  C   UNL     1      -3.870   5.310   6.606  0.00  0.00    +0.108 C 
ATOM     19  C   UNL     1      -3.273   5.646   7.975  0.00  0.00    +0.019 C 
ATOM     20  C   UNL     1      -4.396   5.789   9.007  0.00  0.00    +0.007 C 
ATOM     21  C   UNL     1      -5.155   4.467   9.108  0.00  0.00    +0.010 C 
ATOM     22  C   UNL     1      -5.795   4.149   7.748  0.00  0.00    +0.079 C 
ATOM     23  C   UNL     1      -6.492   2.792   7.825  0.00  0.00    +0.023 C 
ATOM     24  C   UNL     1      -7.595   2.858   8.887  0.00  0.00    +0.002 C 
ATOM     25  C   UNL     1      -6.987   3.208  10.246  0.00  0.00    +0.000 C 
ATOM     26  C   UNL     1      -6.254   4.555  10.166  0.00  0.00    +0.005 C 
ENDBRANCH  14  15
ENDBRANCH  13  14
ENDBRANCH   5  13
BRANCH   2  27
ATOM     27  C   UNL     1       0.190   0.965   0.197  0.00  0.00    -0.001 C 
BRANCH  27  28
ATOM     28  N   UNL     1       1.270   0.139   0.753  0.00  0.00    +0.384 N 
ATOM     29  C   UNL     1       2.280   0.972   1.419  0.00  0.00    -0.078 C 
ATOM     30  C   UNL     1       3.309   0.073   2.110  0.00  0.00    -0.019 C 
ATOM     31  C   UNL     1       3.972  -0.830   1.067  0.00  0.00    -0.004 C 
ATOM     32  C   UNL     1       2.894  -1.651   0.354  0.00  0.00    -0.019 C 
ATOM     33  C   UNL     1       1.877  -0.703  -0.285  0.00  0.00    -0.078 C 
ATOM     34  H   UNL     1       0.832  -0.527   1.511  0.00  0.00    -0.081 HD
ENDBRANCH  27  28
ENDBRANCH   2  27
TORSDOF 6
