REMARK  Name = ZINC12650562
REMARK  7 active torsions:
REMARK  status: ('A' for Active; 'I' for Inactive)
REMARK    1  A    between atoms: C_1  and  C_2
REMARK    2  A    between atoms: C_2  and  C_3
REMARK    3  A    between atoms: C_3  and  C_28
REMARK    4  A    between atoms: N_4  and  N_5
REMARK    5  A    between atoms: C_15  and  C_17
REMARK    6  A    between atoms: C_15  and  C_18
REMARK    7  A    between atoms: N_21  and  C_22
REMARK                            x       y       z     vdW  Elec       q    Type
REMARK                         _______ _______ _______ _____ _____    ______ ____
ROOT
ATOM      1  N   UNL     1       2.127  -2.521  -2.249  0.00  0.00    -0.206 N 
ATOM      2  C   UNL     1       3.481  -2.742  -2.160  0.00  0.00    +0.224 A 
ATOM      3  N   UNL     1       4.039  -2.894  -0.977  0.00  0.00    -0.207 NA
ATOM      4  C   UNL     1       5.343  -3.115  -0.863  0.00  0.00    +0.118 A 
ATOM      5  C   UNL     1       6.191  -3.186  -1.982  0.00  0.00    +0.076 A 
ATOM      6  C   UNL     1       7.603  -3.430  -1.695  0.00  0.00    -0.018 A 
ATOM      7  C   UNL     1       7.952  -3.562  -0.397  0.00  0.00    +0.021 A 
ATOM      8  S   UNL     1       6.443  -3.371   0.507  0.00  0.00    -0.071 S 
ATOM      9  C   UNL     1       9.332  -3.816   0.128  0.00  0.00    +0.203 C 
ATOM     10  O   UNL     1      10.159  -4.210  -0.978  0.00  0.00    -0.368 OA
ATOM     11  C   UNL     1      10.041  -3.349  -2.114  0.00  0.00    +0.068 C 
ATOM     12  C   UNL     1       8.674  -3.538  -2.778  0.00  0.00    +0.071 C 
ATOM     13  C   UNL     1      10.191  -1.894  -1.666  0.00  0.00    +0.041 C 
ATOM     14  C   UNL     1      11.142  -3.686  -3.122  0.00  0.00    +0.041 C 
ATOM     15  C   UNL     1       5.559  -3.011  -3.254  0.00  0.00    +0.268 A 
ATOM     16  O   UNL     1       6.214  -3.057  -4.281  0.00  0.00    -0.266 OA
ATOM     17  N   UNL     1       4.231  -2.796  -3.301  0.00  0.00    -0.247 N 
ATOM     18  H   UNL     1       1.698  -2.482  -3.118  0.00  0.00    +0.177 HD
ENDROOT
BRANCH  17  19
ATOM     19  C   UNL     1       3.607  -2.624  -4.544  0.00  0.00    +0.053 A 
ATOM     20  C   UNL     1       3.469  -1.352  -5.083  0.00  0.00    +0.026 A 
ATOM     21  C   UNL     1       2.858  -1.186  -6.311  0.00  0.00    +0.002 A 
ATOM     22  C   UNL     1       2.374  -2.284  -6.997  0.00  0.00    +0.000 A 
ATOM     23  C   UNL     1       2.504  -3.552  -6.460  0.00  0.00    +0.002 A 
ATOM     24  C   UNL     1       3.119  -3.725  -5.236  0.00  0.00    +0.026 A 
ENDBRANCH  17  19
BRANCH   1  26
ATOM     25  C   UNL     1       0.107  -2.146  -1.166  0.00  0.00    +0.034 C 
ATOM     26  N   UNL     1       1.368  -2.352  -1.084  0.00  0.00    -0.189 NA
ATOM     27  C   UNL     1      -0.560  -2.085  -2.516  0.00  0.00    +0.062 C 
BRANCH  25  29
ATOM     28  C   UNL     1      -1.275  -0.542   0.125  0.00  0.00    +0.010 C 
ATOM     29  C   UNL     1      -0.710  -1.964   0.087  0.00  0.00    +0.049 C 
ENDBRANCH  25  29
ENDBRANCH   1  26
TORSDOF 3
