REMARK  Name = ZINC20722354
REMARK  1 active torsions:
REMARK  status: ('A' for Active; 'I' for Inactive)
REMARK    1  A    between atoms: C_10  and  C_11
REMARK                            x       y       z     vdW  Elec       q    Type
REMARK                         _______ _______ _______ _____ _____    ______ ____
ROOT
ATOM      1  C   UNL     1       4.960   0.161  -0.046  0.00  0.00    +0.112 C 
ATOM      2  C   UNL     1       5.272   0.558  -1.454  0.00  0.00    +0.029 A 
ATOM      3  C   UNL     1       4.299   0.696  -2.402  0.00  0.00    +0.111 A 
ATOM      4  N   UNL     1       4.886   1.056  -3.556  0.00  0.00    -0.283 N 
ATOM      5  H   UNL     1       4.435   1.223  -4.399  0.00  0.00    +0.188 HD
ATOM      6  N   UNL     1       6.259   1.147  -3.327  0.00  0.00    -0.158 NA
ATOM      7  C   UNL     1       6.498   0.847  -2.054  0.00  0.00    +0.151 A 
ATOM      8  N   UNL     1       7.784   0.860  -1.547  0.00  0.00    -0.268 N 
ATOM      9  C   UNL     1       8.308   0.580  -0.392  0.00  0.00    +0.228 C 
ATOM     10  O   UNL     1       9.521   0.618  -0.364  0.00  0.00    -0.275 OA
ATOM     11  C   UNL     1       7.673   0.225   0.892  0.00  0.00    +0.166 C 
ATOM     12  S   UNL     1       6.243  -0.848   0.703  0.00  0.00    -0.138 S 
ATOM     13  H   UNL     1       8.442   1.141  -2.201  0.00  0.00    +0.156 HD
ENDROOT
BRANCH   1  23
ATOM     14  C   UNL     1      -0.016   1.357   0.009  0.00  0.00    +0.001 A 
ATOM     15  C   UNL     1       1.169   2.091   0.002  0.00  0.00    +0.001 A 
ATOM     16  C   UNL     1       2.378   1.468  -0.013  0.00  0.00    +0.009 A 
ATOM     17  C   UNL     1       2.438   0.064  -0.021  0.00  0.00    -0.013 A 
ATOM     18  C   UNL     1       1.233  -0.683  -0.013  0.00  0.00    -0.018 A 
ATOM     19  C   UNL     1       0.002  -0.004   0.002  0.00  0.00    +0.008 A 
ATOM     20  C   UNL     1       1.292  -2.087  -0.021  0.00  0.00    +0.008 A 
ATOM     21  C   UNL     1       2.502  -2.709  -0.036  0.00  0.00    +0.001 A 
ATOM     22  C   UNL     1       3.687  -1.976  -0.043  0.00  0.00    +0.005 A 
ATOM     23  C   UNL     1       3.668  -0.615  -0.037  0.00  0.00    -0.022 A 
ENDBRANCH   1  23
TORSDOF 1
