REMARK  Name = ZINC12136573
REMARK  8 active torsions:
REMARK  status: ('A' for Active; 'I' for Inactive)
REMARK    1  A    between atoms: C_1  and  C_2
REMARK    2  A    between atoms: C_8  and  C_10
REMARK    3  A    between atoms: C_10  and  C_12
REMARK    4  A    between atoms: C_10  and  S_13
REMARK    5  A    between atoms: S_13  and  C_14
REMARK    6  A    between atoms: C_17  and  C_26
REMARK    7  A    between atoms: N_18  and  C_19
REMARK    8  A    between atoms: C_26  and  N_63
REMARK                            x       y       z     vdW  Elec       q    Type
REMARK                         _______ _______ _______ _____ _____    ______ ____
ROOT
ATOM      1  C   UNL     1      -0.106  -0.755   2.553  0.00  0.00    +0.197 A 
ATOM      2  N   UNL     1      -0.763  -1.352   1.585  0.00  0.00    -0.122 NA
ATOM      3  N   UNL     1      -0.750  -2.624   1.767  0.00  0.00    -0.135 NA
ATOM      4  C   UNL     1      -0.090  -2.915   2.853  0.00  0.00    +0.122 A 
ATOM      5  N   UNL     1       0.349  -1.735   3.391  0.00  0.00    -0.276 N 
ENDROOT
BRANCH   5   6
ATOM      6  C   UNL     1       1.107  -1.566   4.560  0.00  0.00    +0.050 A 
ATOM      7  C   UNL     1       2.401  -2.063   4.626  0.00  0.00    +0.029 A 
ATOM      8  C   UNL     1       3.147  -1.893   5.776  0.00  0.00    +0.040 A 
ATOM      9  C   UNL     1       2.602  -1.235   6.865  0.00  0.00    +0.124 A 
ATOM     10  C   UNL     1       1.309  -0.743   6.803  0.00  0.00    +0.040 A 
ATOM     11  C   UNL     1       0.561  -0.907   5.653  0.00  0.00    +0.029 A 
ATOM     12  F   UNL     1       3.331  -1.073   7.991  0.00  0.00    -0.205 F 
ENDBRANCH   5   6
BRANCH   1  13
ATOM     13  S   UNL     1       0.147   0.980   2.733  0.00  0.00    -0.073 S 
BRANCH  13  14
ATOM     14  C   UNL     1      -0.729   1.579   1.267  0.00  0.00    +0.137 C 
ATOM     15  C   UNL     1      -0.013   1.086   0.008  0.00  0.00    +0.029 C 
BRANCH  14  23
ATOM     16  C   UNL     1      -3.084   5.568  -2.979  0.00  0.00    +0.007 C 
ATOM     17  C   UNL     1      -3.001   5.054  -1.541  0.00  0.00    -0.011 C 
ATOM     18  C   UNL     1      -1.813   5.710  -0.833  0.00  0.00    +0.022 C 
ATOM     19  C   UNL     1      -1.754   5.219   0.617  0.00  0.00    +0.108 C 
ATOM     20  N   UNL     1      -1.721   3.751   0.618  0.00  0.00    -0.301 N 
ATOM     21  C   UNL     1      -2.763   3.020  -0.115  0.00  0.00    +0.108 C 
ATOM     22  C   UNL     1      -2.815   3.535  -1.552  0.00  0.00    +0.022 C 
ATOM     23  C   UNL     1      -0.749   3.086   1.275  0.00  0.00    +0.229 C 
ATOM     24  O   UNL     1       0.108   3.701   1.873  0.00  0.00    -0.274 OA
ENDBRANCH  14  23
ENDBRANCH  13  14
ENDBRANCH   1  13
BRANCH   4  25
ATOM     25  C   UNL     1       0.149  -4.295   3.409  0.00  0.00    -0.001 C 
BRANCH  25  31
ATOM     26  C   UNL     1       1.277  -5.054   1.406  0.00  0.00    -0.078 C 
ATOM     27  C   UNL     1       2.633  -5.479   0.839  0.00  0.00    -0.019 C 
ATOM     28  C   UNL     1       3.090  -6.766   1.531  0.00  0.00    -0.004 C 
ATOM     29  C   UNL     1       3.159  -6.527   3.041  0.00  0.00    -0.019 C 
ATOM     30  C   UNL     1       1.788  -6.072   3.545  0.00  0.00    -0.078 C 
ATOM     31  N   UNL     1       1.417  -4.816   2.858  0.00  0.00    +0.384 N 
ATOM     32  H   UNL     1       2.158  -4.122   3.011  0.00  0.00    -0.081 HD
ENDBRANCH  25  31
ENDBRANCH   4  25
TORSDOF 6
