REMARK  Name = ZINC54698741
REMARK  8 active torsions:
REMARK  status: ('A' for Active; 'I' for Inactive)
REMARK    1  A    between atoms: C_1  and  C_2
REMARK    2  A    between atoms: C_3  and  C_18
REMARK    3  A    between atoms: C_6  and  C_7
REMARK    4  A    between atoms: C_9  and  C_13
REMARK    5  A    between atoms: N_11  and  C_12
REMARK    6  A    between atoms: C_13  and  C_14
REMARK    7  A    between atoms: C_13  and  C_15
REMARK    8  A    between atoms: C_13  and  C_16
REMARK                            x       y       z     vdW  Elec       q    Type
REMARK                         _______ _______ _______ _____ _____    ______ ____
ROOT
ATOM      1  C   UNL     1      -1.128  -0.696  -1.824  0.00  0.00    +0.161 A 
ATOM      2  N   UNL     1      -0.690  -1.268  -0.721  0.00  0.00    -0.211 NA
ATOM      3  C   UNL     1      -0.720  -2.591  -0.858  0.00  0.00    +0.157 A 
ATOM      4  N   UNL     1      -1.177  -2.890  -2.046  0.00  0.00    -0.154 NA
ATOM      5  N   UNL     1      -1.456  -1.677  -2.696  0.00  0.00    -0.248 N 
ATOM      6  C   UNL     1      -1.993  -1.507  -4.049  0.00  0.00    +0.174 C 
ENDROOT
BRANCH   1  12
ATOM      7  C   UNL     1      -2.901   0.869  -0.241  0.00  0.00    +0.041 C 
ATOM      8  C   UNL     1      -2.065   1.485  -1.333  0.00  0.00    -0.046 C 
ATOM      9  C   UNL     1      -2.128   2.969  -1.633  0.00  0.00    +0.076 C 
ATOM     10  S   UNL     1      -0.929   3.122  -3.018  0.00  0.00    -0.098 S 
ATOM     11  C   UNL     1      -0.447   1.406  -3.130  0.00  0.00    +0.099 C 
ATOM     12  C   UNL     1      -1.246   0.759  -2.063  0.00  0.00    +0.050 C 
ATOM     13  N   UNL     1       0.406   0.856  -3.950  0.00  0.00    -0.292 NA
ATOM     14  C   UNL     1      -3.534   3.378  -2.078  0.00  0.00    +0.024 C 
ATOM     15  H   UNL     1       0.563  -0.101  -3.916  0.00  0.00    +0.187 HD
ENDBRANCH   1  12
BRANCH   3  16
ATOM     16  C   UNL     1      -0.296  -3.587   0.191  0.00  0.00    +0.024 C 
ATOM     17  C   UNL     1      -1.153  -3.403   1.445  0.00  0.00    +0.019 C 
ATOM     18  C   UNL     1      -0.481  -5.006  -0.350  0.00  0.00    +0.019 C 
ATOM     19  C   UNL     1       1.176  -3.363   0.541  0.00  0.00    +0.019 C 
ENDBRANCH   3  16
TORSDOF 2
