REMARK  Name = ZINC62607088
REMARK  2 active torsions:
REMARK  status: ('A' for Active; 'I' for Inactive)
REMARK    1  A    between atoms: C_3  and  C_9
REMARK    2  A    between atoms: C_9  and  C_10
REMARK                            x       y       z     vdW  Elec       q    Type
REMARK                         _______ _______ _______ _____ _____    ______ ____
ROOT
ATOM      1  C   UNL     1       4.243   2.225   1.371  0.00  0.00    +0.114 A 
ATOM      2  N   UNL     1       5.403   2.875   1.588  0.00  0.00    -0.310 N 
ATOM      3  H   UNL     1       5.861   3.312   0.853  0.00  0.00    +0.170 HD
ATOM      4  C   UNL     1       5.925   2.917   2.833  0.00  0.00    +0.255 A 
ATOM      5  O   UNL     1       6.974   3.501   3.048  0.00  0.00    -0.268 OA
ATOM      6  C   UNL     1       5.233   2.272   3.878  0.00  0.00    +0.038 A 
ATOM      7  C   UNL     1       4.066   1.632   3.595  0.00  0.00    +0.052 A 
ATOM      8  N   UNL     1       3.601   1.632   2.340  0.00  0.00    -0.238 NA
ATOM      9  C   UNL     1       3.496   1.014   4.854  0.00  0.00    +0.056 C 
ATOM     10  C   UNL     1       4.671   0.984   5.855  0.00  0.00    +0.011 C 
ATOM     11  C   UNL     1       5.557   2.144   5.349  0.00  0.00    +0.043 C 
ENDROOT
BRANCH   1  12
ATOM     12  C   UNL     1       3.671   2.186  -0.023  0.00  0.00    +0.110 C 
BRANCH  12  15
ATOM     13  C   UNL     1      -0.017   1.380   0.010  0.00  0.00    +0.039 A 
ATOM     14  C   UNL     1       1.171   2.088   0.002  0.00  0.00    +0.008 A 
ATOM     15  C   UNL     1       2.377   1.414  -0.013  0.00  0.00    -0.022 A 
ATOM     16  C   UNL     1       2.398   0.030  -0.021  0.00  0.00    +0.047 A 
ATOM     17  C   UNL     1       1.211  -0.679  -0.013  0.00  0.00    +0.058 A 
ATOM     18  C   UNL     1       0.002  -0.004   0.002  0.00  0.00    +0.125 A 
ATOM     19  F   UNL     1      -1.158  -0.696   0.010  0.00  0.00    -0.205 F 
ATOM     20 CL   UNL     1       3.914  -0.815  -0.041  0.00  0.00    -0.083 Cl
ENDBRANCH  12  15
ENDBRANCH   1  12
TORSDOF 2
