REMARK  Name = ZINC48608546
REMARK  4 active torsions:
REMARK  status: ('A' for Active; 'I' for Inactive)
REMARK    1  A    between atoms: C_1  and  N_2
REMARK    2  A    between atoms: C_5  and  N_17
REMARK    3  A    between atoms: C_6  and  S_7
REMARK    4  A    between atoms: S_7  and  C_8
REMARK                            x       y       z     vdW  Elec       q    Type
REMARK                         _______ _______ _______ _____ _____    ______ ____
ROOT
ATOM      1  S   UNL     1       0.404  -0.125   2.553  0.00  0.00    -0.062 S 
ENDROOT
BRANCH   1   2
ATOM      2  C   UNL     1       2.121   0.272   2.588  0.00  0.00    +0.085 A 
ATOM      3  C   UNL     1       3.070  -0.720   2.899  0.00  0.00    +0.143 A 
ATOM      4  C   UNL     1       4.410  -0.401   2.924  0.00  0.00    +0.078 A 
ATOM      5  C   UNL     1       4.825   0.896   2.642  0.00  0.00    +0.129 A 
ATOM      6  C   UNL     1       3.895   1.882   2.333  0.00  0.00    +0.078 A 
ATOM      7  C   UNL     1       2.551   1.580   2.299  0.00  0.00    +0.143 A 
ATOM      8  F   UNL     1       1.649   2.539   1.993  0.00  0.00    -0.204 F 
ATOM      9  F   UNL     1       6.142   1.200   2.669  0.00  0.00    -0.205 F 
ATOM     10  F   UNL     1       2.669  -1.980   3.174  0.00  0.00    -0.204 F 
ENDBRANCH   1   2
BRANCH   1  16
ATOM     11  C   UNL     1       0.278   1.362  -0.349  0.00  0.00    +0.151 C 
ATOM     12  N   UNL     1       0.126  -0.083  -0.163  0.00  0.00    -0.326 N 
ATOM     13  C   UNL     1      -0.078  -0.994  -1.132  0.00  0.00    +0.202 A 
ATOM     14  N   UNL     1      -0.172  -2.212  -0.628  0.00  0.00    -0.212 NA
ATOM     15  C   UNL     1      -0.038  -2.177   0.682  0.00  0.00    +0.247 A 
ATOM     16  C   UNL     1       0.170  -0.763   1.039  0.00  0.00    +0.131 A 
BRANCH  15  17
ATOM     17  N   UNL     1      -0.082  -3.329   1.611  0.00  0.00    +0.078 N 
ATOM     18  O   UNL     1      -0.254  -4.548   1.141  0.00  0.00    -0.125 OA
ATOM     19  O   UNL     1       0.051  -3.136   2.907  0.00  0.00    -0.125 OA
ENDBRANCH  15  17
ENDBRANCH   1  16
TORSDOF 3
