REMARK  Name = ZINC32818808
REMARK  5 active torsions:
REMARK  status: ('A' for Active; 'I' for Inactive)
REMARK    1  A    between atoms: C_1  and  N_2
REMARK    2  A    between atoms: N_2  and  C_3
REMARK    3  A    between atoms: N_2  and  C_4
REMARK    4  A    between atoms: C_7  and  C_10
REMARK    5  A    between atoms: C_22  and  C_26
REMARK                            x       y       z     vdW  Elec       q    Type
REMARK                         _______ _______ _______ _____ _____    ______ ____
ROOT
ATOM      1  C   UNL     1      -0.250   5.670  -0.122  0.00  0.00    +0.158 C 
ATOM      2  C   UNL     1      -0.580   6.207  -1.498  0.00  0.00    +0.038 C 
ATOM      3  C   UNL     1      -1.762   6.791  -1.780  0.00  0.00    +0.019 C 
ATOM      4  C   UNL     1      -2.089   7.215  -3.195  0.00  0.00    +0.052 C 
ATOM      5  C   UNL     1      -0.815   7.696  -3.891  0.00  0.00    +0.014 C 
ATOM      6  C   UNL     1       0.196   6.545  -3.896  0.00  0.00    +0.080 C 
ATOM      7  C   UNL     1       0.414   6.074  -2.486  0.00  0.00    +0.163 C 
ATOM      8  O   UNL     1       1.477   5.564  -2.191  0.00  0.00    -0.292 OA
ATOM      9  N   UNL     1      -2.716   7.033  -0.822  0.00  0.00    -0.291 N 
ATOM     10  C   UNL     1      -2.489   6.596   0.472  0.00  0.00    +0.177 C 
ATOM     11  N   UNL     1      -3.304   6.611   1.475  0.00  0.00    -0.339 N 
ATOM     12  C   UNL     1      -2.545   6.195   2.669  0.00  0.00    +0.199 C 
ATOM     13  N   UNL     1      -1.136   6.197   2.205  0.00  0.00    -0.211 NA
ATOM     14  N   UNL     1      -1.238   6.139   0.846  0.00  0.00    -0.226 N 
ATOM     15  H   UNL     1      -3.641   7.566  -1.089  0.00  0.00    +0.154 HD
ATOM     16  H   UNL     1      -0.636   5.397   2.565  0.00  0.00    +0.147 HD
ATOM     17  H   UNL     1      -4.354   6.903   1.326  0.00  0.00    +0.164 HD
ENDROOT
BRANCH  12  18
ATOM     18  C   UNL     1      -2.961   4.814   3.107  0.00  0.00    +0.009 A 
ATOM     19  C   UNL     1      -2.022   3.941   3.623  0.00  0.00    +0.008 A 
ATOM     20  C   UNL     1      -2.403   2.674   4.024  0.00  0.00    +0.000 A 
ATOM     21  C   UNL     1      -3.724   2.281   3.911  0.00  0.00    +0.001 A 
ATOM     22  C   UNL     1      -4.663   3.153   3.395  0.00  0.00    +0.020 A 
ATOM     23  C   UNL     1      -4.283   4.423   2.997  0.00  0.00    +0.047 A 
ATOM     24 CL   UNL     1      -5.464   5.522   2.357  0.00  0.00    -0.083 Cl
ENDBRANCH  12  18
BRANCH   1  28
ATOM     25  C   UNL     1      -0.278   1.397  -0.223  0.00  0.00    +0.029 A 
ATOM     26  C   UNL     1      -1.472   2.099  -0.128  0.00  0.00    +0.023 A 
ATOM     27  C   UNL     1      -1.460   3.479  -0.091  0.00  0.00    +0.007 A 
ATOM     28  C   UNL     1      -0.260   4.163  -0.158  0.00  0.00    -0.021 A 
ATOM     29  C   UNL     1       0.932   3.468  -0.258  0.00  0.00    +0.007 A 
ATOM     30  C   UNL     1       0.926   2.087  -0.291  0.00  0.00    +0.023 A 
BRANCH  25  32
ATOM     31  C   UNL     1       0.974  -0.738  -0.363  0.00  0.00    +0.129 C 
ATOM     32  N   UNL     1      -0.287   0.001  -0.257  0.00  0.00    -0.336 N 
ATOM     33  C   UNL     1      -1.557  -0.725  -0.186  0.00  0.00    +0.129 C 
ENDBRANCH  25  32
ENDBRANCH   1  28
TORSDOF 3
