REMARK  Name = ZINC11614610
REMARK  10 active torsions:
REMARK  status: ('A' for Active; 'I' for Inactive)
REMARK    1  A    between atoms: C_1  and  C_2
REMARK    2  A    between atoms: N_16  and  C_27
REMARK    3  A    between atoms: C_17  and  C_19
REMARK    4  A    between atoms: C_24  and  O_25
REMARK    5  A    between atoms: O_25  and  C_26
REMARK    6  A    between atoms: C_27  and  C_28
REMARK    7  A    between atoms: C_28  and  C_29
REMARK    8  A    between atoms: C_29  and  N_56
REMARK    9  A    between atoms: C_30  and  N_56
REMARK   10  A    between atoms: C_31  and  N_56
REMARK                            x       y       z     vdW  Elec       q    Type
REMARK                         _______ _______ _______ _____ _____    ______ ____
ROOT
ATOM      1  C   UNL     1       5.329  -2.418   0.397  0.00  0.00    +0.045 C 
ATOM      2  C   UNL     1       3.965  -1.790   0.274  0.00  0.00    -0.029 A 
ATOM      3  C   UNL     1       3.842  -0.418   0.303  0.00  0.00    +0.051 A 
ATOM      4  C   UNL     1       2.586   0.171   0.191  0.00  0.00    +0.140 A 
ATOM      5  C   UNL     1       1.456  -0.653   0.049  0.00  0.00    +0.066 A 
ATOM      6  C   UNL     1       1.592  -2.039   0.020  0.00  0.00    +0.035 A 
ATOM      7  C   UNL     1       2.846  -2.601   0.133  0.00  0.00    +0.045 A 
ATOM      8 CL   UNL     1       3.027  -4.328   0.099  0.00  0.00    -0.083 Cl
ATOM      9  C   UNL     1       0.135  -0.006  -0.069  0.00  0.00    +0.199 A 
ATOM     10  O   UNL     1      -0.887  -0.657  -0.195  0.00  0.00    -0.287 OA
ATOM     11  C   UNL     1       0.113   1.459  -0.026  0.00  0.00    +0.072 A 
ATOM     12  C   UNL     1       1.272   2.147   0.115  0.00  0.00    +0.199 A 
ATOM     13  O   UNL     1       2.455   1.510   0.219  0.00  0.00    -0.450 OA
ATOM     14  C   UNL     1       0.956   3.597   0.126  0.00  0.00    +0.283 C 
ATOM     15  O   UNL     1       1.776   4.487   0.238  0.00  0.00    -0.267 OA
ATOM     16  N   UNL     1      -0.368   3.785  -0.006  0.00  0.00    -0.284 N 
ATOM     17  C   UNL     1      -1.003   2.466  -0.117  0.00  0.00    +0.148 C 
ENDROOT
BRANCH  17  18
ATOM     18  C   UNL     1      -1.710   2.339  -1.442  0.00  0.00    +0.019 A 
ATOM     19  C   UNL     1      -1.304   3.103  -2.519  0.00  0.00    +0.009 A 
ATOM     20  C   UNL     1      -1.953   2.987  -3.735  0.00  0.00    +0.001 A 
ATOM     21  C   UNL     1      -3.008   2.105  -3.876  0.00  0.00    +0.004 A 
ATOM     22  C   UNL     1      -3.417   1.338  -2.803  0.00  0.00    +0.046 A 
ATOM     23  C   UNL     1      -2.766   1.450  -1.583  0.00  0.00    +0.125 A 
BRANCH  23  24
ATOM     24  O   UNL     1      -3.163   0.693  -0.527  0.00  0.00    -0.495 OA
ATOM     25  C   UNL     1      -4.257  -0.202  -0.745  0.00  0.00    +0.277 C 
ENDBRANCH  23  24
ENDBRANCH  17  18
BRANCH  16  26
ATOM     26  C   UNL     1      -1.056   5.078  -0.039  0.00  0.00    +0.107 C 
BRANCH  26  27
ATOM     27  C   UNL     1      -1.377   5.522   1.390  0.00  0.00    +0.000 C 
BRANCH  27  28
ATOM     28  C   UNL     1      -2.139   6.848   1.354  0.00  0.00    -0.078 C 
BRANCH  28  31
ATOM     29  C   UNL     1      -2.965   8.648   2.747  0.00  0.00    -0.097 C 
ATOM     30  C   UNL     1      -3.389   6.346   3.366  0.00  0.00    -0.097 C 
ATOM     31  N   UNL     1      -2.422   7.273   2.741  0.00  0.00    +0.376 N 
ATOM     32  H   UNL     1      -1.549   7.256   3.280  0.00  0.00    -0.083 HD
ENDBRANCH  28  31
ENDBRANCH  27  28
ENDBRANCH  26  27
ENDBRANCH  16  26
TORSDOF 6
