REMARK  Name = ZINC01298542
REMARK  10 active torsions:
REMARK  status: ('A' for Active; 'I' for Inactive)
REMARK    1  A    between atoms: C_1  and  C_2
REMARK    2  A    between atoms: C_2  and  C_38
REMARK    3  A    between atoms: N_11  and  C_29
REMARK    4  A    between atoms: N_14  and  C_15
REMARK    5  A    between atoms: C_15  and  C_16
REMARK    6  A    between atoms: N_18  and  C_19
REMARK    7  A    between atoms: C_22  and  O_27
REMARK    8  A    between atoms: C_24  and  O_25
REMARK    9  A    between atoms: O_25  and  C_26
REMARK   10  A    between atoms: O_27  and  C_28
REMARK                            x       y       z     vdW  Elec       q    Type
REMARK                         _______ _______ _______ _____ _____    ______ ____
ROOT
ATOM      1  C   UNL     1      -1.496   1.022  -3.037  0.00  0.00    +0.041 C 
ATOM      2  C   UNL     1      -1.078  -0.358  -2.525  0.00  0.00    +0.068 C 
ATOM      3  C   UNL     1       0.030  -0.919  -3.422  0.00  0.00    +0.071 C 
ATOM      4  C   UNL     1       0.591  -2.166  -2.753  0.00  0.00    -0.018 A 
ATOM      5  C   UNL     1       0.359  -2.391  -1.438  0.00  0.00    +0.021 A 
ATOM      6  S   UNL     1       1.176  -3.920  -1.088  0.00  0.00    -0.073 S 
ATOM      7  C   UNL     1       1.794  -4.254  -2.592  0.00  0.00    +0.098 A 
ATOM      8  C   UNL     1       1.384  -3.187  -3.408  0.00  0.00    +0.074 A 
ATOM      9  C   UNL     1       1.800  -3.220  -4.829  0.00  0.00    +0.270 A 
ATOM     10  O   UNL     1       1.491  -2.339  -5.611  0.00  0.00    -0.266 OA
ATOM     11  N   UNL     1       2.542  -4.286  -5.208  0.00  0.00    -0.228 N 
ATOM     12  C   UNL     1       2.898  -5.272  -4.373  0.00  0.00    +0.338 A 
ATOM     13  O   UNL     1       3.567  -6.188  -4.811  0.00  0.00    -0.246 OA
ATOM     14  N   UNL     1       2.550  -5.297  -3.064  0.00  0.00    -0.278 N 
ATOM     15  C   UNL     1      -0.425  -1.506  -0.521  0.00  0.00    +0.203 C 
ATOM     16  O   UNL     1      -0.609  -0.242  -1.178  0.00  0.00    -0.368 OA
ATOM     17  C   UNL     1      -2.283  -1.300  -2.563  0.00  0.00    +0.041 C 
ENDROOT
BRANCH  11  18
ATOM     18  C   UNL     1       2.960  -4.364  -6.543  0.00  0.00    +0.054 A 
ATOM     19  C   UNL     1       2.310  -5.214  -7.428  0.00  0.00    +0.028 A 
ATOM     20  C   UNL     1       2.723  -5.288  -8.743  0.00  0.00    +0.022 A 
ATOM     21  C   UNL     1       3.785  -4.516  -9.180  0.00  0.00    +0.041 A 
ATOM     22  C   UNL     1       4.435  -3.668  -8.301  0.00  0.00    +0.022 A 
ATOM     23  C   UNL     1       4.022  -3.586  -6.986  0.00  0.00    +0.028 A 
ATOM     24 CL   UNL     1       4.303  -4.612 -10.835  0.00  0.00    -0.084 Cl
ENDBRANCH  11  18
BRANCH  14  25
ATOM     25  C   UNL     1       2.963  -6.395  -2.187  0.00  0.00    +0.223 C 
BRANCH  25  26
ATOM     26  C   UNL     1       1.918  -7.481  -2.216  0.00  0.00    +0.237 C 
ATOM     27  O   UNL     1       0.926  -7.351  -2.903  0.00  0.00    -0.274 OA
ATOM     28  N   UNL     1       2.086  -8.598  -1.481  0.00  0.00    -0.281 N 
ATOM     29  H   UNL     1       2.841  -8.671  -0.876  0.00  0.00    +0.155 HD
BRANCH  28  30
ATOM     30  C   UNL     1       1.169  -9.654  -1.589  0.00  0.00    +0.076 A 
ATOM     31  C   UNL     1       0.364  -9.762  -2.714  0.00  0.00    +0.030 A 
ATOM     32  C   UNL     1      -0.539 -10.802  -2.820  0.00  0.00    +0.047 A 
ATOM     33  C   UNL     1      -0.644 -11.740  -1.803  0.00  0.00    +0.124 A 
ATOM     34  C   UNL     1       0.158 -11.636  -0.677  0.00  0.00    +0.093 A 
ATOM     35  C   UNL     1       1.069 -10.598  -0.570  0.00  0.00    +0.145 A 
BRANCH  35  36
ATOM     36  O   UNL     1       1.860 -10.497   0.532  0.00  0.00    -0.493 OA
ATOM     37  C   UNL     1       1.703 -11.501   1.537  0.00  0.00    +0.277 C 
ENDBRANCH  35  36
BRANCH  33  38
ATOM     38  O   UNL     1      -1.534 -12.762  -1.911  0.00  0.00    -0.495 OA
ATOM     39  C   UNL     1      -2.328 -12.809  -3.099  0.00  0.00    +0.277 C 
ENDBRANCH  33  38
ENDBRANCH  28  30
ENDBRANCH  25  26
ENDBRANCH  14  25
TORSDOF 6
