REMARK  Name = ZINC26691144
REMARK  9 active torsions:
REMARK  status: ('A' for Active; 'I' for Inactive)
REMARK    1  A    between atoms: C_1  and  C_2
REMARK    2  A    between atoms: C_2  and  C_3
REMARK    3  A    between atoms: C_3  and  C_4
REMARK    4  A    between atoms: C_4  and  C_6
REMARK    5  A    between atoms: C_4  and  N_19
REMARK    6  A    between atoms: N_8  and  N_9
REMARK    7  A    between atoms: C_10  and  C_12
REMARK    8  A    between atoms: N_22  and  C_23
REMARK    9  A    between atoms: C_23  and  C_24
REMARK                            x       y       z     vdW  Elec       q    Type
REMARK                         _______ _______ _______ _____ _____    ______ ____
ROOT
ATOM      1  C   UNL     1      -0.018   1.503   0.010  0.00  0.00    +0.162 C 
ENDROOT
BRANCH   1   2
ATOM      2  N   UNL     1       1.356   2.010  -0.000  0.00  0.00    -0.288 N 
ATOM      3  C   UNL     1       1.627   3.233   0.497  0.00  0.00    +0.300 C 
ATOM      4  O   UNL     1       0.731   3.915   0.955  0.00  0.00    -0.253 OA
ATOM      5  N   UNL     1       2.891   3.699   0.488  0.00  0.00    -0.295 N 
ATOM      6  H   UNL     1       2.167   1.393  -0.414  0.00  0.00    +0.151 HD
ATOM      7  H   UNL     1       3.702   3.082   0.074  0.00  0.00    +0.151 HD
BRANCH   5   8
ATOM      8  C   UNL     1       3.186   5.029   1.028  0.00  0.00    +0.141 C 
BRANCH   8   9
ATOM      9  C   UNL     1       4.661   5.308   0.899  0.00  0.00    -0.030 A 
ATOM     10  C   UNL     1       5.522   4.961   1.924  0.00  0.00    +0.008 A 
ATOM     11  C   UNL     1       6.875   5.212   1.804  0.00  0.00    +0.038 A 
ATOM     12  C   UNL     1       7.368   5.822   0.663  0.00  0.00    +0.123 A 
ATOM     13  C   UNL     1       6.504   6.174  -0.360  0.00  0.00    +0.038 A 
ATOM     14  C   UNL     1       5.152   5.917  -0.241  0.00  0.00    +0.008 A 
ATOM     15  F   UNL     1       8.691   6.072   0.547  0.00  0.00    -0.205 F 
ENDBRANCH   8   9
ENDBRANCH   5   8
ENDBRANCH   1   2
BRANCH   1  16
ATOM     16  C   UNL     1       0.002  -0.004   0.002  0.00  0.00    +0.249 C 
ATOM     17  O   UNL     1       1.060  -0.596  -0.011  0.00  0.00    -0.272 OA
ATOM     18  N   UNL     1      -1.156  -0.694   0.009  0.00  0.00    -0.233 N 
ATOM     19  H   UNL     1      -2.116  -0.157   0.021  0.00  0.00    +0.173 HD
BRANCH  18  20
ATOM     20  N   UNL     1      -1.137  -2.095   0.002  0.00  0.00    -0.230 N 
ATOM     21  C   UNL     1      -2.295  -2.784   0.009  0.00  0.00    +0.263 C 
ATOM     22  O   UNL     1      -3.356  -2.191   0.022  0.00  0.00    -0.269 OA
ATOM     23  H   UNL     1      -0.177  -2.632  -0.010  0.00  0.00    +0.173 HD
BRANCH  21  24
ATOM     24  C   UNL     1      -2.275  -4.261   0.001  0.00  0.00    +0.073 A 
ATOM     25  C   UNL     1      -1.058  -4.946  -0.020  0.00  0.00    +0.016 A 
ATOM     26  C   UNL     1      -1.046  -6.325  -0.022  0.00  0.00    +0.001 A 
ATOM     27  C   UNL     1      -2.236  -7.032  -0.015  0.00  0.00    +0.003 A 
ATOM     28  C   UNL     1      -3.446  -6.363   0.001  0.00  0.00    +0.039 A 
ATOM     29  C   UNL     1      -3.474  -4.980   0.009  0.00  0.00    +0.136 A 
ATOM     30  F   UNL     1      -4.656  -4.326   0.023  0.00  0.00    -0.205 F 
ENDBRANCH  21  24
ENDBRANCH  18  20
ENDBRANCH   1  16
BRANCH   1  31
ATOM     31  C   UNL     1      -0.758   2.010  -1.229  0.00  0.00    +0.031 C 
BRANCH  31  33
ATOM     32  C   UNL     1      -1.628   4.039  -2.398  0.00  0.00    +0.004 C 
ATOM     33  C   UNL     1      -0.888   3.532  -1.159  0.00  0.00    -0.001 C 
ENDBRANCH  31  33
ENDBRANCH   1  31
TORSDOF 8
