REMARK  Name = ZINC56766748
REMARK  7 active torsions:
REMARK  status: ('A' for Active; 'I' for Inactive)
REMARK    1  A    between atoms: C_1  and  C_2
REMARK    2  A    between atoms: C_5  and  C_8
REMARK    3  A    between atoms: C_8  and  C_10
REMARK    4  A    between atoms: C_8  and  N_11
REMARK    5  A    between atoms: N_11  and  C_12
REMARK    6  A    between atoms: N_15  and  C_16
REMARK    7  A    between atoms: C_19  and  N_22
REMARK                            x       y       z     vdW  Elec       q    Type
REMARK                         _______ _______ _______ _____ _____    ______ ____
ROOT
ATOM      1  N   UNL     1       1.110  -4.779   0.958  0.00  0.00    -0.282 N 
ATOM      2  C   UNL     1       1.022  -4.571   2.405  0.00  0.00    +0.134 C 
ATOM      3  C   UNL     1       2.155  -5.451   0.435  0.00  0.00    +0.307 C 
ATOM      4  O   UNL     1       2.228  -5.624  -0.766  0.00  0.00    -0.252 OA
ATOM      5  N   UNL     1       3.120  -5.931   1.245  0.00  0.00    -0.269 N 
ATOM      6  H   UNL     1       3.097  -5.737   2.195  0.00  0.00    +0.156 HD
ENDROOT
BRANCH   5   7
ATOM      7  C   UNL     1       4.156  -6.711   0.714  0.00  0.00    +0.035 A 
ATOM      8  C   UNL     1       4.684  -7.760   1.454  0.00  0.00    +0.025 A 
ATOM      9  C   UNL     1       5.705  -8.529   0.931  0.00  0.00    +0.025 A 
ATOM     10  C   UNL     1       6.204  -8.252  -0.335  0.00  0.00    +0.040 A 
ATOM     11  C   UNL     1       5.676  -7.202  -1.075  0.00  0.00    +0.025 A 
ATOM     12  C   UNL     1       4.651  -6.437  -0.554  0.00  0.00    +0.025 A 
BRANCH  10  13
ATOM     13  N   UNL     1       7.240  -9.032  -0.866  0.00  0.00    -0.234 N 
ATOM     14  C   UNL     1       7.873  -8.855  -2.188  0.00  0.00    +0.158 C 
ATOM     15  C   UNL     1       9.152  -9.715  -2.056  0.00  0.00    +0.253 C 
ATOM     16  O   UNL     1       8.778 -10.653  -1.028  0.00  0.00    -0.448 OA
ATOM     17  C   UNL     1       7.840 -10.073  -0.260  0.00  0.00    +0.407 C 
ATOM     18  O   UNL     1       7.561 -10.450   0.861  0.00  0.00    -0.226 OA
ENDBRANCH  10  13
ENDBRANCH   5   7
BRANCH   1  19
ATOM     19  C   UNL     1       0.061  -4.258   0.078  0.00  0.00    +0.104 C 
ATOM     20  C   UNL     1      -1.300  -4.783   0.539  0.00  0.00    +0.033 C 
BRANCH  19  25
ATOM     21  C   UNL     1       0.068   1.517   0.283  0.00  0.00    +0.044 C 
ATOM     22  C   UNL     1       0.067   0.011   0.230  0.00  0.00    -0.050 A 
ATOM     23  C   UNL     1       1.243  -0.689   0.423  0.00  0.00    +0.004 A 
ATOM     24  C   UNL     1       1.241  -2.070   0.374  0.00  0.00    +0.006 A 
ATOM     25  C   UNL     1       0.063  -2.752   0.132  0.00  0.00    -0.027 A 
ATOM     26  C   UNL     1      -1.114  -2.052  -0.060  0.00  0.00    +0.006 A 
ATOM     27  C   UNL     1      -1.113  -0.670  -0.007  0.00  0.00    +0.004 A 
ENDBRANCH  19  25
ENDBRANCH   1  19
TORSDOF 4
