REMARK  Name = ZINC60292068
REMARK  5 active torsions:
REMARK  status: ('A' for Active; 'I' for Inactive)
REMARK    1  A    between atoms: N_14  and  C_15
REMARK    2  A    between atoms: C_15  and  C_16
REMARK    3  A    between atoms: C_16  and  C_17
REMARK    4  A    between atoms: C_24  and  C_26
REMARK    5  A    between atoms: C_26  and  C_27
REMARK                            x       y       z     vdW  Elec       q    Type
REMARK                         _______ _______ _______ _____ _____    ______ ____
ROOT
ATOM      1  C   UNL     1      -0.952  -1.211  -0.090  0.00  0.00    +0.135 C 
ENDROOT
BRANCH   1  15
ATOM      2  C   UNL     1       0.518   0.733  -0.095  0.00  0.00    +0.203 A 
ATOM      3  N   UNL     1       1.694   1.300  -0.132  0.00  0.00    -0.230 NA
ATOM      4  C   UNL     1       2.803   0.569  -0.208  0.00  0.00    +0.116 A 
ATOM      5  C   UNL     1       2.769  -0.834  -0.253  0.00  0.00    +0.076 A 
ATOM      6  C   UNL     1       4.066  -1.504  -0.337  0.00  0.00    -0.023 A 
ATOM      7  C   UNL     1       5.161  -0.716  -0.363  0.00  0.00    -0.004 A 
ATOM      8  S   UNL     1       4.537   0.941  -0.278  0.00  0.00    -0.073 S 
ATOM      9  C   UNL     1       6.592  -1.153  -0.446  0.00  0.00    +0.043 C 
ATOM     10  C   UNL     1       6.660  -2.653  -0.126  0.00  0.00    +0.005 C 
ATOM     11  C   UNL     1       5.582  -3.378  -0.937  0.00  0.00    +0.005 C 
ATOM     12  C   UNL     1       4.197  -3.023  -0.395  0.00  0.00    +0.037 C 
ATOM     13  C   UNL     1       1.463  -1.424  -0.211  0.00  0.00    +0.262 A 
ATOM     14  O   UNL     1       1.329  -2.635  -0.244  0.00  0.00    -0.267 OA
ATOM     15  N   UNL     1       0.387  -0.618  -0.134  0.00  0.00    -0.298 N 
ENDBRANCH   1  15
BRANCH   1  16
ATOM     16  C   UNL     1      -1.486  -1.370  -1.515  0.00  0.00    +0.117 C 
BRANCH  16  17
ATOM     17  C   UNL     1      -2.863  -1.980  -1.470  0.00  0.00    +0.218 C 
ATOM     18  O   UNL     1      -3.368  -2.260  -0.404  0.00  0.00    -0.276 OA
ATOM     19  N   UNL     1      -3.534  -2.214  -2.615  0.00  0.00    -0.298 N 
ATOM     20  C   UNL     1      -2.979  -1.790  -3.908  0.00  0.00    +0.108 C 
ATOM     21  C   UNL     1      -2.942  -2.998  -4.849  0.00  0.00    +0.019 C 
ATOM     22  C   UNL     1      -4.341  -3.614  -4.937  0.00  0.00    +0.003 C 
ATOM     23  C   UNL     1      -4.776  -4.095  -3.551  0.00  0.00    +0.023 C 
ATOM     24  C   UNL     1      -4.830  -2.905  -2.595  0.00  0.00    +0.085 C 
BRANCH  24  25
ATOM     25  C   UNL     1      -5.126  -3.400  -1.178  0.00  0.00    +0.118 C 
BRANCH  25  26
ATOM     26  C   UNL     1      -5.576  -2.243  -0.325  0.00  0.00    +0.212 C 
ATOM     27  O   UNL     1      -5.653  -1.131  -0.803  0.00  0.00    -0.276 OA
ATOM     28  N   UNL     1      -5.893  -2.443   0.970  0.00  0.00    -0.329 N 
ATOM     29  H   UNL     1      -5.832  -3.333   1.352  0.00  0.00    +0.145 HD
ATOM     30  H   UNL     1      -6.182  -1.698   1.519  0.00  0.00    +0.145 HD
ENDBRANCH  25  26
ENDBRANCH  24  25
ENDBRANCH  16  17
ENDBRANCH   1  16
TORSDOF 5
