REMARK  Name = ZINC64742232
REMARK  6 active torsions:
REMARK  status: ('A' for Active; 'I' for Inactive)
REMARK    1  A    between atoms: C_1  and  C_2
REMARK    2  A    between atoms: C_7  and  N_8
REMARK    3  A    between atoms: C_9  and  C_11
REMARK    4  A    between atoms: C_19  and  S_25
REMARK    5  A    between atoms: S_25  and  C_26
REMARK    6  A    between atoms: C_26  and  C_27
REMARK                            x       y       z     vdW  Elec       q    Type
REMARK                         _______ _______ _______ _____ _____    ______ ____
ROOT
ATOM      1  C   UNL     1      -0.142  -0.044   4.937  0.00  0.00    +0.103 C 
ATOM      2  C   UNL     1       1.031   0.926   5.100  0.00  0.00    +0.110 C 
ATOM      3  C   UNL     1       1.139   1.405   6.518  0.00  0.00    +0.219 C 
ATOM      4  O   UNL     1       1.759   2.424   6.732  0.00  0.00    -0.275 OA
ATOM      5  N   UNL     1       0.587   0.769   7.560  0.00  0.00    -0.273 N 
ATOM      6  C   UNL     1      -0.190  -0.340   7.374  0.00  0.00    +0.117 C 
ATOM      7  N   UNL     1      -1.012  -0.740   8.301  0.00  0.00    -0.212 NA
ATOM      8  C   UNL     1      -1.868  -1.751   8.109  0.00  0.00    +0.182 C 
ATOM      9  N   UNL     1      -1.964  -2.383   6.947  0.00  0.00    -0.154 NA
ATOM     10  C   UNL     1      -1.161  -2.098   5.932  0.00  0.00    +0.249 C 
ATOM     11  O   UNL     1      -1.312  -2.675   4.872  0.00  0.00    -0.273 OA
ATOM     12  C   UNL     1      -0.074  -1.077   6.065  0.00  0.00    +0.153 C 
ATOM     13  H   UNL     1       0.740   1.100   8.459  0.00  0.00    +0.156 HD
ENDROOT
BRANCH   1  15
ATOM     14  N   UNL     1      -0.899  -0.420   2.612  0.00  0.00    -0.285 N 
ATOM     15  C   UNL     1      -0.044  -0.740   3.604  0.00  0.00    +0.222 C 
ATOM     16  O   UNL     1       0.805  -1.587   3.423  0.00  0.00    -0.275 OA
ATOM     17  H   UNL     1      -1.530   0.306   2.731  0.00  0.00    +0.155 HD
BRANCH  14  24
ATOM     18  C   UNL     1      -3.320  -0.645   1.134  0.00  0.00    +0.045 C 
ATOM     19  C   UNL     1      -2.034  -1.271   0.658  0.00  0.00    -0.029 A 
ATOM     20  C   UNL     1      -2.007  -1.974  -0.531  0.00  0.00    +0.005 A 
ATOM     21  C   UNL     1      -0.828  -2.549  -0.969  0.00  0.00    +0.000 A 
ATOM     22  C   UNL     1       0.327  -2.421  -0.219  0.00  0.00    +0.002 A 
ATOM     23  C   UNL     1       0.306  -1.719   0.970  0.00  0.00    +0.023 A 
ATOM     24  C   UNL     1      -0.875  -1.137   1.410  0.00  0.00    +0.036 A 
ENDBRANCH  14  24
ENDBRANCH   1  15
BRANCH   8  25
ATOM     25  S   UNL     1      -2.901  -2.259   9.443  0.00  0.00    -0.084 S 
BRANCH  25  26
ATOM     26  C   UNL     1      -3.874  -3.624   8.749  0.00  0.00    +0.115 C 
BRANCH  26  27
ATOM     27  C   UNL     1      -4.812  -4.157   9.801  0.00  0.00    -0.002 A 
ATOM     28  C   UNL     1      -4.402  -5.176  10.641  0.00  0.00    +0.007 A 
ATOM     29  C   UNL     1      -5.262  -5.665  11.606  0.00  0.00    +0.000 A 
ATOM     30  C   UNL     1      -6.534  -5.137  11.732  0.00  0.00    +0.003 A 
ATOM     31  C   UNL     1      -6.946  -4.119  10.894  0.00  0.00    +0.038 A 
ATOM     32  C   UNL     1      -6.083  -3.624   9.931  0.00  0.00    +0.127 A 
ATOM     33  F   UNL     1      -6.483  -2.625   9.114  0.00  0.00    -0.205 F 
ENDBRANCH  26  27
ENDBRANCH  25  26
ENDBRANCH   8  25
TORSDOF 5
