REMARK  Name = ZINC49464320
REMARK  8 active torsions:
REMARK  status: ('A' for Active; 'I' for Inactive)
REMARK    1  A    between atoms: C_1  and  C_2
REMARK    2  A    between atoms: C_2  and  C_3
REMARK    3  A    between atoms: C_3  and  O_4
REMARK    4  A    between atoms: O_4  and  C_5
REMARK    5  A    between atoms: C_8  and  S_12
REMARK    6  A    between atoms: C_10  and  C_11
REMARK    7  A    between atoms: S_12  and  N_15
REMARK    8  A    between atoms: N_15  and  C_16
REMARK                            x       y       z     vdW  Elec       q    Type
REMARK                         _______ _______ _______ _____ _____    ______ ____
ROOT
ATOM      1  C   UNL     1       5.160  -5.692  -4.288  0.00  0.00    +0.049 A 
ATOM      2  C   UNL     1       4.290  -5.773  -3.205  0.00  0.00    +0.028 A 
ATOM      3  C   UNL     1       4.533  -6.672  -2.185  0.00  0.00    +0.048 A 
ATOM      4  C   UNL     1       5.645  -7.495  -2.237  0.00  0.00    +0.133 A 
ATOM      5  C   UNL     1       6.531  -7.420  -3.321  0.00  0.00    +0.080 A 
ATOM      6  C   UNL     1       6.272  -6.512  -4.353  0.00  0.00    +0.041 A 
ATOM      7  C   UNL     1       7.722  -8.279  -3.377  0.00  0.00    +0.250 C 
ATOM      8  O   UNL     1       7.880  -9.018  -4.329  0.00  0.00    -0.270 OA
ATOM      9  N   UNL     1       8.642  -8.263  -2.391  0.00  0.00    -0.294 N 
ATOM     10  C   UNL     1       9.754  -9.213  -2.438  0.00  0.00    +0.108 C 
ATOM     11  C   UNL     1      11.070  -8.489  -2.156  0.00  0.00    +0.019 C 
ATOM     12  C   UNL     1      10.946  -7.712  -0.844  0.00  0.00    +0.003 C 
ATOM     13  C   UNL     1       9.857  -6.652  -0.974  0.00  0.00    +0.023 C 
ATOM     14  C   UNL     1       8.516  -7.296  -1.304  0.00  0.00    +0.080 C 
ATOM     15  C   UNL     1       7.964  -7.994  -0.057  0.00  0.00    +0.063 C 
ATOM     16  C   UNL     1       6.441  -7.872  -0.033  0.00  0.00    +0.231 C 
ATOM     17  O   UNL     1       5.888  -8.392  -1.243  0.00  0.00    -0.491 OA
ENDROOT
BRANCH   1  18
ATOM     18  N   UNL     1       4.905  -4.780  -5.318  0.00  0.00    -0.216 N 
ATOM     19  H   UNL     1       5.432  -3.968  -5.389  0.00  0.00    +0.174 HD
BRANCH  18  20
ATOM     20  S   UNL     1       3.705  -5.087  -6.418  0.00  0.00    +0.072 S 
ATOM     21  O   UNL     1       3.732  -4.021  -7.356  0.00  0.00    -0.150 OA
ATOM     22  O   UNL     1       2.542  -5.413  -5.669  0.00  0.00    -0.150 OA
BRANCH  20  26
ATOM     23  C   UNL     1       4.883  -8.831  -8.676  0.00  0.00    +0.123 A 
ATOM     24  C   UNL     1       4.036  -8.918  -7.580  0.00  0.00    +0.048 A 
ATOM     25  C   UNL     1       3.679  -7.774  -6.893  0.00  0.00    +0.032 A 
ATOM     26  C   UNL     1       4.164  -6.543  -7.296  0.00  0.00    +0.109 A 
ATOM     27  C   UNL     1       5.007  -6.454  -8.388  0.00  0.00    +0.035 A 
ATOM     28  C   UNL     1       5.372  -7.596  -9.075  0.00  0.00    -0.007 A 
ATOM     29  C   UNL     1       6.297  -7.498 -10.262  0.00  0.00    +0.047 C 
BRANCH  23  30
ATOM     30  O   UNL     1       5.237  -9.954  -9.354  0.00  0.00    -0.492 OA
BRANCH  30  31
ATOM     31  C   UNL     1       4.695 -11.191  -8.886  0.00  0.00    +0.229 C 
BRANCH  31  33
ATOM     32  C   UNL     1       4.622 -13.660  -9.267  0.00  0.00    +0.007 C 
ATOM     33  C   UNL     1       5.202 -12.335  -9.767  0.00  0.00    +0.038 C 
ENDBRANCH  31  33
ENDBRANCH  30  31
ENDBRANCH  23  30
ENDBRANCH  20  26
ENDBRANCH  18  20
ENDBRANCH   1  18
TORSDOF 6
