REMARK  Name = ZINC12868307
REMARK  3 active torsions:
REMARK  status: ('A' for Active; 'I' for Inactive)
REMARK    1  A    between atoms: C_1  and  C_2
REMARK    2  A    between atoms: C_2  and  C_4
REMARK    3  A    between atoms: C_2  and  N_11
REMARK                            x       y       z     vdW  Elec       q    Type
REMARK                         _______ _______ _______ _____ _____    ______ ____
ROOT
ATOM      1  N   UNL     1      -0.096   1.307  -0.257  0.00  0.00    -0.321 N 
ATOM      2  C   UNL     1      -0.195  -0.071  -0.412  0.00  0.00    +0.142 A 
ATOM      3  C   UNL     1      -1.449  -0.697  -0.290  0.00  0.00    +0.049 A 
ATOM      4  C   UNL     1      -1.557  -2.044  -0.445  0.00  0.00    +0.055 A 
ATOM      5  C   UNL     1      -0.401  -2.797  -0.717  0.00  0.00    +0.200 A 
ATOM      6  N   UNL     1      -0.167  -4.088  -0.912  0.00  0.00    -0.107 NA
ATOM      7  N   UNL     1       1.085  -4.283  -1.130  0.00  0.00    -0.021 NA
ATOM      8  N   UNL     1       1.736  -3.170  -1.093  0.00  0.00    -0.021 NA
ATOM      9  N   UNL     1       0.805  -2.159  -0.824  0.00  0.00    -0.108 N 
ATOM     10  N   UNL     1       0.886  -0.776  -0.666  0.00  0.00    -0.131 NA
ATOM     11  H   UNL     1       0.767   1.744  -0.336  0.00  0.00    +0.148 HD
ENDROOT
BRANCH   1  13
ATOM     12  C   UNL     1      -1.566   2.108   1.526  0.00  0.00    +0.033 C 
ATOM     13  C   UNL     1      -1.295   2.101   0.020  0.00  0.00    +0.100 C 
BRANCH  13  14
ATOM     14  C   UNL     1      -1.084   3.514  -0.460  0.00  0.00    -0.014 A 
ATOM     15  C   UNL     1       0.193   4.038  -0.526  0.00  0.00    +0.006 A 
ATOM     16  C   UNL     1       0.387   5.334  -0.967  0.00  0.00    +0.000 A 
ATOM     17  C   UNL     1      -0.697   6.107  -1.341  0.00  0.00    +0.001 A 
ATOM     18  C   UNL     1      -1.974   5.584  -1.274  0.00  0.00    +0.015 A 
ATOM     19  C   UNL     1      -2.168   4.285  -0.838  0.00  0.00    +0.023 A 
ATOM     20 BR   UNL     1      -3.915   3.567  -0.754  0.00  0.00    -0.050 Br
ENDBRANCH  13  14
ENDBRANCH   1  13
TORSDOF 2
