REMARK  Name = ZINC04652478
REMARK  3 active torsions:
REMARK  status: ('A' for Active; 'I' for Inactive)
REMARK    1  A    between atoms: C_1  and  N_2
REMARK    2  A    between atoms: C_3  and  C_8
REMARK    3  A    between atoms: N_10  and  C_11
REMARK                            x       y       z     vdW  Elec       q    Type
REMARK                         _______ _______ _______ _____ _____    ______ ____
ROOT
ATOM      1  C   UNL     1      -2.111   5.752  -0.957  0.00  0.00    +0.264 C 
ATOM      2  O   UNL     1      -2.560   5.146  -1.911  0.00  0.00    -0.268 OA
ATOM      3  N   UNL     1      -1.506   5.082   0.044  0.00  0.00    -0.304 N 
ATOM      4  H   UNL     1      -1.086   5.569   0.770  0.00  0.00    +0.150 HD
ENDROOT
BRANCH   3   5
ATOM      5  C   UNL     1      -1.483   3.617   0.035  0.00  0.00    +0.036 C 
ATOM      6  C   UNL     1      -0.768   3.125  -1.224  0.00  0.00    +0.029 C 
ATOM      7  C   UNL     1      -0.744   1.595  -1.233  0.00  0.00    -0.008 C 
ATOM      8  C   UNL     1      -0.001   1.090   0.005  0.00  0.00    +0.007 C 
ATOM      9  C   UNL     1      -0.717   1.581   1.265  0.00  0.00    -0.008 C 
ATOM     10  C   UNL     1      -0.740   3.111   1.274  0.00  0.00    +0.029 C 
ATOM     11  C   UNL     1      -2.151   1.049   1.277  0.00  0.00    +0.007 C 
ATOM     12  C   UNL     1      -2.893   1.555   0.039  0.00  0.00    -0.008 C 
ATOM     13  C   UNL     1      -2.178   1.063  -1.221  0.00  0.00    +0.007 C 
ATOM     14  C   UNL     1      -2.917   3.084   0.048  0.00  0.00    +0.029 C 
ENDBRANCH   3   5
BRANCH   1  17
ATOM     15  C   UNL     1      -4.216   7.365   0.638  0.00  0.00    +0.173 C 
ATOM     16  N   UNL     1      -3.155   7.937  -0.193  0.00  0.00    -0.261 N 
ATOM     17  C   UNL     1      -2.228   7.216  -0.895  0.00  0.00    +0.141 A 
ATOM     18  C   UNL     1      -1.426   8.143  -1.540  0.00  0.00    +0.091 A 
ATOM     19  C   UNL     1      -1.933   9.392  -1.171  0.00  0.00    +0.155 A 
ATOM     20  N   UNL     1      -2.950   9.193  -0.372  0.00  0.00    -0.178 NA
ATOM     21 CL   UNL     1      -0.078   7.822  -2.586  0.00  0.00    -0.080 Cl
ENDBRANCH   1  17
TORSDOF 2
