REMARK  Name = ZINC21719688
REMARK  6 active torsions:
REMARK  status: ('A' for Active; 'I' for Inactive)
REMARK    1  A    between atoms: C_1  and  C_2
REMARK    2  A    between atoms: C_5  and  C_23
REMARK    3  A    between atoms: C_6  and  S_8
REMARK    4  A    between atoms: S_8  and  N_11
REMARK    5  A    between atoms: C_15  and  C_17
REMARK    6  A    between atoms: C_19  and  C_22
REMARK                            x       y       z     vdW  Elec       q    Type
REMARK                         _______ _______ _______ _____ _____    ______ ____
ROOT
ATOM      1  S   UNL     1      -2.590   0.720   0.165  0.00  0.00    +0.062 S 
ATOM      2  O   UNL     1      -3.525   0.821  -0.901  0.00  0.00    -0.153 OA
ATOM      3  O   UNL     1      -1.881  -0.480   0.444  0.00  0.00    -0.153 OA
ENDROOT
BRANCH   1   9
ATOM      4  C   UNL     1      -0.578   4.620  -2.674  0.00  0.00    +0.044 C 
ATOM      5  C   UNL     1      -0.499   3.748  -1.447  0.00  0.00    -0.049 A 
ATOM      6  C   UNL     1       0.521   3.933  -0.532  0.00  0.00    +0.004 A 
ATOM      7  C   UNL     1       0.593   3.134   0.593  0.00  0.00    +0.005 A 
ATOM      8  C   UNL     1      -0.355   2.150   0.804  0.00  0.00    -0.024 A 
ATOM      9  C   UNL     1      -1.378   1.969  -0.108  0.00  0.00    +0.109 A 
ATOM     10  C   UNL     1      -1.447   2.765  -1.236  0.00  0.00    +0.032 A 
ATOM     11  C   UNL     1      -0.276   1.279   2.031  0.00  0.00    +0.046 C 
ENDBRANCH   1   9
BRANCH   1  12
ATOM     12  N   UNL     1      -3.405   1.122   1.549  0.00  0.00    -0.166 NA
ATOM     13  C   UNL     1      -3.154   0.557   2.888  0.00  0.00    +0.110 C 
ATOM     14  C   UNL     1      -3.674   1.636   3.874  0.00  0.00    +0.019 C 
ATOM     15  C   UNL     1      -4.930   2.159   3.127  0.00  0.00    +0.030 C 
ATOM     16  C   UNL     1      -4.502   2.096   1.646  0.00  0.00    +0.148 C 
BRANCH  16  17
ATOM     17  C   UNL     1      -5.660   1.649   0.793  0.00  0.00    +0.156 A 
ATOM     18  C   UNL     1      -6.452   2.434   0.024  0.00  0.00    +0.072 A 
ATOM     19  C   UNL     1      -7.368   1.529  -0.559  0.00  0.00    +0.081 A 
ATOM     20  N   UNL     1      -7.061   0.350  -0.103  0.00  0.00    -0.083 NA
ATOM     21  O   UNL     1      -6.115   0.396   0.649  0.00  0.00    -0.358 OA
ATOM     22  C   UNL     1      -8.484   1.865  -1.515  0.00  0.00    +0.069 C 
ENDBRANCH  16  17
ENDBRANCH   1  12
TORSDOF 3
