REMARK  Name = ZINC00989042
REMARK  9 active torsions:
REMARK  status: ('A' for Active; 'I' for Inactive)
REMARK    1  A    between atoms: C_1  and  C_2
REMARK    2  A    between atoms: C_9  and  C_17
REMARK    3  A    between atoms: C_11  and  C_15
REMARK    4  A    between atoms: C_12  and  N_14
REMARK    5  A    between atoms: C_20  and  O_25
REMARK    6  A    between atoms: C_21  and  O_23
REMARK    7  A    between atoms: O_23  and  C_24
REMARK    8  A    between atoms: O_25  and  C_26
REMARK    9  A    between atoms: C_26  and  C_27
REMARK                            x       y       z     vdW  Elec       q    Type
REMARK                         _______ _______ _______ _____ _____    ______ ____
ROOT
ATOM      1  C   UNL     1       2.452   1.022  -0.016  0.00  0.00    +0.086 C 
ATOM      2  C   UNL     1       1.142   1.768   0.001  0.00  0.00    +0.110 A 
ATOM      3  C   UNL     1      -0.013   1.076   0.008  0.00  0.00    +0.088 A 
ATOM      4  C   UNL     1      -1.244   1.769   0.018  0.00  0.00    +0.144 A 
ATOM      5  C   UNL     1      -1.228   3.148   0.031  0.00  0.00    +0.092 A 
ATOM      6  C   UNL     1       0.004   3.814   0.022  0.00  0.00    +0.345 A 
ATOM      7  O   UNL     1       0.039   5.033   0.028  0.00  0.00    -0.245 OA
ATOM      8  O   UNL     1       1.149   3.109   0.007  0.00  0.00    -0.427 OA
ATOM      9  C   UNL     1      -2.511   3.932   0.048  0.00  0.00    +0.105 C 
ATOM     10  C   UNL     1      -3.663   3.047  -0.342  0.00  0.00    +0.098 C 
ATOM     11  C   UNL     1      -3.548   1.698  -0.329  0.00  0.00    +0.199 C 
ATOM     12  O   UNL     1      -2.406   1.085   0.030  0.00  0.00    -0.441 OA
ENDROOT
BRANCH   9  13
ATOM     13  C   UNL     1      -2.747   4.473   1.434  0.00  0.00    -0.031 A 
ATOM     14  C   UNL     1      -2.875   3.604   2.502  0.00  0.00    +0.008 A 
ATOM     15  C   UNL     1      -3.086   4.096   3.776  0.00  0.00    +0.050 A 
ATOM     16  C   UNL     1      -3.181   5.463   3.985  0.00  0.00    +0.162 A 
ATOM     17  C   UNL     1      -3.058   6.338   2.909  0.00  0.00    +0.162 A 
ATOM     18  C   UNL     1      -2.841   5.838   1.635  0.00  0.00    +0.054 A 
BRANCH  17  19
ATOM     19  O   UNL     1      -3.151   7.680   3.108  0.00  0.00    -0.491 OA
ATOM     20  C   UNL     1      -3.015   8.517   1.958  0.00  0.00    +0.277 C 
ENDBRANCH  17  19
BRANCH  16  21
ATOM     21  O   UNL     1      -3.394   5.948   5.237  0.00  0.00    -0.484 OA
BRANCH  21  22
ATOM     22  C   UNL     1      -3.511   4.992   6.292  0.00  0.00    +0.264 C 
BRANCH  22  23
ATOM     23  C   UNL     1      -3.743   5.710   7.597  0.00  0.00    -0.010 A 
ATOM     24  C   UNL     1      -2.667   6.089   8.378  0.00  0.00    +0.007 A 
ATOM     25  C   UNL     1      -2.880   6.752   9.572  0.00  0.00    +0.000 A 
ATOM     26  C   UNL     1      -4.169   7.026   9.991  0.00  0.00    +0.000 A 
ATOM     27  C   UNL     1      -5.245   6.641   9.212  0.00  0.00    +0.000 A 
ATOM     28  C   UNL     1      -5.032   5.983   8.015  0.00  0.00    +0.007 A 
ENDBRANCH  22  23
ENDBRANCH  21  22
ENDBRANCH  16  21
ENDBRANCH   9  13
BRANCH  11  29
ATOM     29  N   UNL     1      -4.629   0.934  -0.693  0.00  0.00    -0.328 N 
ATOM     30  H   UNL     1      -5.459   1.362  -0.954  0.00  0.00    +0.145 HD
ATOM     31  H   UNL     1      -4.562  -0.033  -0.689  0.00  0.00    +0.145 HD
ENDBRANCH  11  29
BRANCH  10  32
ATOM     32  C   UNL     1      -4.905   3.643  -0.733  0.00  0.00    +0.101 C 
ATOM     33  N   UNL     1      -5.891   4.115  -1.044  0.00  0.00    -0.191 NA
ENDBRANCH  10  32
TORSDOF 7
