REMARK  Name = ZINC48286661
REMARK  3 active torsions:
REMARK  status: ('A' for Active; 'I' for Inactive)
REMARK    1  A    between atoms: C_7  and  C_11
REMARK    2  A    between atoms: C_11  and  C_12
REMARK    3  A    between atoms: C_20  and  N_23
REMARK                            x       y       z     vdW  Elec       q    Type
REMARK                         _______ _______ _______ _____ _____    ______ ____
ROOT
ATOM      1  C   UNL     1       0.242  -3.584  -1.434  0.00  0.00    +0.224 C 
ATOM      2  O   UNL     1       0.660  -2.912  -2.353  0.00  0.00    -0.275 OA
ATOM      3  N   UNL     1      -0.601  -4.607  -1.676  0.00  0.00    -0.271 N 
ATOM      4  C   UNL     1      -1.175  -5.483  -0.651  0.00  0.00    +0.118 C 
ATOM      5  C   UNL     1      -2.060  -6.478  -1.420  0.00  0.00    +0.056 C 
ATOM      6  C   UNL     1      -1.913  -6.075  -2.870  0.00  0.00    -0.024 A 
ATOM      7  C   UNL     1      -1.061  -4.985  -2.941  0.00  0.00    +0.042 A 
ATOM      8  C   UNL     1      -0.775  -4.428  -4.189  0.00  0.00    +0.056 A 
ATOM      9  C   UNL     1      -1.339  -4.956  -5.331  0.00  0.00    +0.128 A 
ATOM     10  C   UNL     1      -2.192  -6.041  -5.249  0.00  0.00    +0.033 A 
ATOM     11  C   UNL     1      -2.472  -6.604  -4.018  0.00  0.00    +0.008 A 
ENDROOT
BRANCH   9  12
ATOM     12  N   UNL     1      -1.031  -4.358  -6.650  0.00  0.00    +0.056 N 
ATOM     13  O   UNL     1      -0.286  -3.409  -6.724  0.00  0.00    -0.126 OA
ATOM     14  O   UNL     1      -1.524  -4.819  -7.653  0.00  0.00    -0.126 OA
ENDBRANCH   9  12
BRANCH   1  15
ATOM     15  C   UNL     1       0.666  -3.275  -0.021  0.00  0.00    +0.133 C 
BRANCH  15  22
ATOM     16  C   UNL     1      -0.017   1.362   0.009  0.00  0.00    +0.001 A 
ATOM     17  C   UNL     1       1.170   2.083   0.002  0.00  0.00    +0.002 A 
ATOM     18  C   UNL     1       2.386   1.436  -0.013  0.00  0.00    +0.026 A 
ATOM     19  C   UNL     1       2.428   0.046  -0.021  0.00  0.00    +0.047 A 
ATOM     20  C   UNL     1       1.223  -0.681  -0.013  0.00  0.00    +0.003 A 
ATOM     21  C   UNL     1       0.002  -0.004   0.002  0.00  0.00    +0.010 A 
ATOM     22  C   UNL     1       1.604  -2.095  -0.025  0.00  0.00    -0.014 A 
ATOM     23  C   UNL     1       2.945  -2.141  -0.038  0.00  0.00    +0.087 A 
ATOM     24  N   UNL     1       3.455  -0.871  -0.036  0.00  0.00    -0.360 N 
ATOM     25  H   UNL     1       4.399  -0.650  -0.044  0.00  0.00    +0.165 HD
ENDBRANCH  15  22
ENDBRANCH   1  15
TORSDOF 3
