REMARK  Name = ZINC38587400
REMARK  6 active torsions:
REMARK  status: ('A' for Active; 'I' for Inactive)
REMARK    1  A    between atoms: C_1  and  C_2
REMARK    2  A    between atoms: C_2  and  C_3
REMARK    3  A    between atoms: C_2  and  C_4
REMARK    4  A    between atoms: N_9  and  C_10
REMARK    5  A    between atoms: C_10  and  C_12
REMARK    6  A    between atoms: N_17  and  C_19
REMARK                            x       y       z     vdW  Elec       q    Type
REMARK                         _______ _______ _______ _____ _____    ______ ____
ROOT
ATOM      1  C   UNL     1      -3.743  -4.606  -4.218  0.00  0.00    +0.103 C 
ATOM      2  C   UNL     1      -4.774  -5.429  -3.412  0.00  0.00    +0.110 C 
ATOM      3  C   UNL     1      -6.114  -4.921  -3.897  0.00  0.00    +0.221 C 
ATOM      4  O   UNL     1      -7.171  -5.099  -3.329  0.00  0.00    -0.275 OA
ATOM      5  N   UNL     1      -5.963  -4.244  -5.048  0.00  0.00    -0.271 N 
ATOM      6  C   UNL     1      -4.557  -4.220  -5.473  0.00  0.00    +0.127 C 
ENDROOT
BRANCH   5   7
ATOM      7  C   UNL     1      -7.011  -3.639  -5.751  0.00  0.00    +0.036 A 
ATOM      8  C   UNL     1      -8.322  -3.811  -5.330  0.00  0.00    +0.023 A 
ATOM      9  C   UNL     1      -9.354  -3.213  -6.026  0.00  0.00    +0.002 A 
ATOM     10  C   UNL     1      -9.082  -2.444  -7.143  0.00  0.00    +0.000 A 
ATOM     11  C   UNL     1      -7.777  -2.271  -7.565  0.00  0.00    +0.002 A 
ATOM     12  C   UNL     1      -6.740  -2.861  -6.869  0.00  0.00    +0.023 A 
ENDBRANCH   5   7
BRANCH   1  13
ATOM     13  C   UNL     1      -3.316  -3.380  -3.454  0.00  0.00    +0.243 C 
ATOM     14  O   UNL     1      -3.575  -2.274  -3.885  0.00  0.00    -0.273 OA
BRANCH  13  19
ATOM     15  C   UNL     1      -1.384  -0.516  -0.045  0.00  0.00    +0.195 C 
ATOM     16  N   UNL     1      -2.105  -0.172  -1.293  0.00  0.00    -0.170 NA
ATOM     17  N   UNL     1      -2.479  -1.115  -1.959  0.00  0.00    -0.129 NA
ATOM     18  C   UNL     1      -2.277  -2.430  -1.631  0.00  0.00    +0.203 C 
ATOM     19  N   UNL     1      -2.652  -3.508  -2.302  0.00  0.00    -0.153 NA
ATOM     20  S   UNL     1      -1.438  -2.353  -0.167  0.00  0.00    -0.058 S 
BRANCH  15  22
ATOM     21  C   UNL     1       0.043   1.535  -0.073  0.00  0.00    +0.010 C 
ATOM     22  C   UNL     1       0.054   0.005  -0.068  0.00  0.00    +0.020 C 
ATOM     23  C   UNL     1       0.797  -0.495   1.173  0.00  0.00    +0.010 C 
ENDBRANCH  15  22
ENDBRANCH  13  19
ENDBRANCH   1  13
TORSDOF 4
