REMARK  Name = ZINC12218586
REMARK  5 active torsions:
REMARK  status: ('A' for Active; 'I' for Inactive)
REMARK    1  A    between atoms: C_8  and  C_10
REMARK    2  A    between atoms: C_14  and  O_16
REMARK    3  A    between atoms: O_16  and  C_17
REMARK    4  A    between atoms: C_27  and  C_28
REMARK    5  A    between atoms: C_27  and  N_59
REMARK                            x       y       z     vdW  Elec       q    Type
REMARK                         _______ _______ _______ _____ _____    ______ ____
ROOT
ATOM      1  C   UNL     1      -2.013   4.652  -0.720  0.00  0.00    +0.011 A 
ATOM      2  C   UNL     1      -3.348   4.241  -0.721  0.00  0.00    +0.016 A 
ATOM      3  C   UNL     1      -4.344   5.157  -0.460  0.00  0.00    -0.018 A 
ATOM      4  C   UNL     1      -4.032   6.474  -0.180  0.00  0.00    +0.163 A 
ATOM      5  C   UNL     1      -2.703   6.895  -0.185  0.00  0.00    +0.163 A 
ATOM      6  C   UNL     1      -1.696   5.984  -0.448  0.00  0.00    +0.060 A 
ATOM      7  O   UNL     1      -5.026   7.359   0.113  0.00  0.00    -0.490 OA
ATOM      8  C   UNL     1      -5.694   7.139   1.361  0.00  0.00    +0.211 C 
ATOM      9  C   UNL     1      -6.816   6.136   1.200  0.00  0.00    -0.036 C 
ATOM     10  C   UNL     1      -5.798   4.731  -0.509  0.00  0.00    -0.039 C 
ATOM     11  N   UNL     1      -6.332   4.779   0.874  0.00  0.00    +0.387 N 
ATOM     12  H   UNL     1      -5.579   4.531   1.526  0.00  0.00    -0.081 HD
ENDROOT
BRANCH   1  20
ATOM     13  C   UNL     1       1.251  -0.405  -2.019  0.00  0.00    +0.002 A 
ATOM     14  C   UNL     1       2.465   0.265  -1.954  0.00  0.00    +0.001 A 
ATOM     15  C   UNL     1       2.478   1.616  -1.664  0.00  0.00    +0.017 A 
ATOM     16  C   UNL     1       1.292   2.272  -1.446  0.00  0.00    +0.040 A 
ATOM     17  C   UNL     1       0.038   1.618  -1.505  0.00  0.00    +0.079 A 
ATOM     18  C   UNL     1       0.070   0.235  -1.804  0.00  0.00    +0.029 A 
ATOM     19  N   UNL     1      -1.038   2.395  -1.273  0.00  0.00    -0.239 NA
ATOM     20  C   UNL     1      -0.938   3.677  -0.999  0.00  0.00    +0.110 A 
ATOM     21  S   UNL     1       0.829   3.942  -1.057  0.00  0.00    -0.067 S 
ENDBRANCH   1  20
BRANCH   5  22
ATOM     22  O   UNL     1      -2.398   8.194   0.075  0.00  0.00    -0.483 OA
BRANCH  22  23
ATOM     23  C   UNL     1      -1.011   8.528   0.172  0.00  0.00    +0.201 C 
ATOM     24  C   UNL     1      -0.829   9.871   0.920  0.00  0.00    +0.075 C 
ATOM     25  C   UNL     1       0.297  10.550   0.098  0.00  0.00    +0.163 C 
ATOM     26  O   UNL     1       0.000  10.165  -1.262  0.00  0.00    -0.376 OA
ATOM     27  C   UNL     1      -0.420   8.791  -1.227  0.00  0.00    +0.204 C 
ENDBRANCH  22  23
ENDBRANCH   5  22
BRANCH  11  28
ATOM     28  C   UNL     1      -7.428   3.808   1.022  0.00  0.00    -0.039 C 
BRANCH  28  29
ATOM     29  C   UNL     1      -8.531   4.081   0.032  0.00  0.00    -0.026 A 
ATOM     30  C   UNL     1      -8.680   3.269  -1.077  0.00  0.00    +0.043 A 
ATOM     31  C   UNL     1      -9.693   3.520  -1.987  0.00  0.00    +0.124 A 
ATOM     32  C   UNL     1     -10.556   4.584  -1.786  0.00  0.00    +0.041 A 
ATOM     33  C   UNL     1     -10.407   5.395  -0.677  0.00  0.00    +0.041 A 
ATOM     34  C   UNL     1      -9.397   5.141   0.235  0.00  0.00    +0.125 A 
ATOM     35  F   UNL     1      -9.254   5.932   1.321  0.00  0.00    -0.205 F 
ATOM     36  F   UNL     1      -9.839   2.727  -3.071  0.00  0.00    -0.205 F 
ENDBRANCH  28  29
ENDBRANCH  11  28
TORSDOF 5
