REMARK  Name = ZINC36359681
REMARK  5 active torsions:
REMARK  status: ('A' for Active; 'I' for Inactive)
REMARK    1  A    between atoms: C_1  and  C_2
REMARK    2  A    between atoms: C_2  and  C_4
REMARK    3  A    between atoms: C_2  and  N_14
REMARK    4  A    between atoms: N_6  and  C_7
REMARK    5  A    between atoms: N_17  and  C_18
REMARK                            x       y       z     vdW  Elec       q    Type
REMARK                         _______ _______ _______ _____ _____    ______ ____
ROOT
ATOM      1  C   UNL     1      -0.013   1.521  -0.004  0.00  0.00    +0.038 C 
ATOM      2  C   UNL     1       0.004  -0.009  -0.002  0.00  0.00    +0.158 C 
ENDROOT
BRANCH   2   3
ATOM      3  N   UNL     1      -1.371  -0.513   0.011  0.00  0.00    -0.288 N 
ATOM      4  C   UNL     1      -2.049  -0.651  -1.146  0.00  0.00    +0.300 C 
ATOM      5  O   UNL     1      -1.518  -0.357  -2.200  0.00  0.00    -0.253 OA
ATOM      6  N   UNL     1      -3.314  -1.115  -1.135  0.00  0.00    -0.295 N 
ATOM      7  H   UNL     1      -1.795  -0.748   0.851  0.00  0.00    +0.151 HD
ATOM      8  H   UNL     1      -3.737  -1.349  -0.294  0.00  0.00    +0.151 HD
BRANCH   6   9
ATOM      9  C   UNL     1      -4.051  -1.265  -2.393  0.00  0.00    +0.097 C 
ATOM     10  C   UNL     1      -3.722  -2.631  -3.017  0.00  0.00    +0.046 C 
ATOM     11  C   UNL     1      -4.738  -2.896  -4.165  0.00  0.00    +0.168 C 
ATOM     12  S   UNL     1      -6.290  -2.272  -3.393  0.00  0.00    -0.029 S 
ATOM     13  O   UNL     1      -6.952  -3.351  -2.748  0.00  0.00    -0.174 OA
ATOM     14  O   UNL     1      -6.995  -1.486  -4.343  0.00  0.00    -0.174 OA
ATOM     15  C   UNL     1      -5.570  -1.165  -2.114  0.00  0.00    +0.188 C 
ENDBRANCH   6   9
ENDBRANCH   2   3
BRANCH   2  16
ATOM     16  C   UNL     1       0.730  -0.502   1.224  0.00  0.00    +0.237 C 
ATOM     17  O   UNL     1       0.156  -1.205   2.028  0.00  0.00    -0.273 OA
ATOM     18  N   UNL     1       2.019  -0.161   1.426  0.00  0.00    -0.284 N 
ATOM     19  H   UNL     1       2.498   0.344   0.751  0.00  0.00    +0.155 HD
BRANCH  18  20
ATOM     20  C   UNL     1       2.665  -0.537   2.610  0.00  0.00    +0.034 A 
ATOM     21  C   UNL     1       3.602   0.308   3.189  0.00  0.00    +0.026 A 
ATOM     22  C   UNL     1       4.239  -0.065   4.356  0.00  0.00    +0.040 A 
ATOM     23  C   UNL     1       3.942  -1.280   4.950  0.00  0.00    +0.124 A 
ATOM     24  C   UNL     1       3.007  -2.124   4.375  0.00  0.00    +0.040 A 
ATOM     25  C   UNL     1       2.365  -1.753   3.210  0.00  0.00    +0.026 A 
ATOM     26  F   UNL     1       4.566  -1.643   6.092  0.00  0.00    -0.205 F 
ENDBRANCH  18  20
ENDBRANCH   2  16
TORSDOF 4
