REMARK  Name = ZINC33113056
REMARK  6 active torsions:
REMARK  status: ('A' for Active; 'I' for Inactive)
REMARK    1  A    between atoms: C_1  and  C_2
REMARK    2  A    between atoms: C_2  and  C_3
REMARK    3  A    between atoms: C_3  and  N_4
REMARK    4  A    between atoms: C_11  and  C_14
REMARK    5  A    between atoms: C_17  and  C_19
REMARK    6  A    between atoms: N_21  and  C_22
REMARK                            x       y       z     vdW  Elec       q    Type
REMARK                         _______ _______ _______ _____ _____    ______ ____
ROOT
ATOM      1  C   UNL     1       0.190   0.711  -2.273  0.00  0.00    +0.107 A 
ATOM      2  N   UNL     1       1.368   1.028  -2.781  0.00  0.00    -0.145 NA
ATOM      3  N   UNL     1       1.792   0.520  -3.856  0.00  0.00    -0.136 NA
ATOM      4  C   UNL     1       1.051  -0.364  -4.518  0.00  0.00    +0.187 A 
ATOM      5  S   UNL     1      -0.378  -0.441  -3.446  0.00  0.00    -0.046 S 
ENDROOT
BRANCH   1  13
ATOM      6  N   UNL     1      -2.843   4.308   1.412  0.00  0.00    -0.299 N 
ATOM      7  C   UNL     1      -2.310   3.957   0.225  0.00  0.00    +0.302 C 
ATOM      8  O   UNL     1      -2.841   4.315  -0.809  0.00  0.00    -0.253 OA
ATOM      9  N   UNL     1      -1.190   3.209   0.183  0.00  0.00    -0.285 N 
ATOM     10  C   UNL     1      -0.476   2.862   1.419  0.00  0.00    +0.109 C 
ATOM     11  C   UNL     1      -0.295   1.341   1.474  0.00  0.00    +0.020 C 
ATOM     12  C   UNL     1       0.397   0.867   0.194  0.00  0.00    +0.013 C 
ATOM     13  C   UNL     1      -0.477   1.207  -1.016  0.00  0.00    +0.064 C 
ATOM     14  C   UNL     1      -0.659   2.726  -1.099  0.00  0.00    +0.119 C 
ATOM     15  H   UNL     1      -2.319   4.055   2.346  0.00  0.00    +0.150 HD
BRANCH   6  16
ATOM     16  C   UNL     1      -4.119   5.025   1.459  0.00  0.00    +0.105 C 
BRANCH  16  18
ATOM     17  C   UNL     1      -5.829   6.050   2.965  0.00  0.00    +0.005 C 
ATOM     18  C   UNL     1      -4.496   5.301   2.916  0.00  0.00    +0.015 C 
ENDBRANCH  16  18
ENDBRANCH   6  16
ENDBRANCH   1  13
BRANCH   4  19
ATOM     19  C   UNL     1       1.331  -1.080  -5.775  0.00  0.00    +0.275 C 
ATOM     20  O   UNL     1       0.513  -1.860  -6.225  0.00  0.00    -0.268 OA
ATOM     21  N   UNL     1       2.492  -0.872  -6.425  0.00  0.00    -0.280 N 
ATOM     22  H   UNL     1       3.267  -0.233  -5.976  0.00  0.00    +0.155 HD
BRANCH  21  23
ATOM     23  C   UNL     1       2.713  -1.469  -7.671  0.00  0.00    +0.034 A 
ATOM     24  C   UNL     1       3.995  -1.857  -8.039  0.00  0.00    +0.026 A 
ATOM     25  C   UNL     1       4.210  -2.451  -9.267  0.00  0.00    +0.040 A 
ATOM     26  C   UNL     1       3.150  -2.649 -10.136  0.00  0.00    +0.124 A 
ATOM     27  C   UNL     1       1.872  -2.257  -9.774  0.00  0.00    +0.040 A 
ATOM     28  C   UNL     1       1.652  -1.668  -8.545  0.00  0.00    +0.026 A 
ATOM     29  F   UNL     1       3.363  -3.225 -11.340  0.00  0.00    -0.205 F 
ENDBRANCH  21  23
ENDBRANCH   4  19
TORSDOF 5
