REMARK  Name = ZINC64773913
REMARK  8 active torsions:
REMARK  status: ('A' for Active; 'I' for Inactive)
REMARK    1  A    between atoms: C_1  and  C_2
REMARK    2  A    between atoms: C_5  and  C_8
REMARK    3  A    between atoms: C_8  and  S_9
REMARK    4  A    between atoms: S_9  and  C_10
REMARK    5  A    between atoms: C_16  and  C_24
REMARK    6  A    between atoms: C_27  and  O_31
REMARK    7  A    between atoms: C_28  and  O_30
REMARK    8  A    between atoms: O_31  and  C_32
REMARK                            x       y       z     vdW  Elec       q    Type
REMARK                         _______ _______ _______ _____ _____    ______ ____
ROOT
ATOM      1  C   UNL     1       2.853  -6.912  -0.048  0.00  0.00    +0.182 C 
ATOM      2  N   UNL     1       1.552  -7.050  -0.234  0.00  0.00    -0.154 NA
ATOM      3  C   UNL     1       0.970  -8.247  -0.320  0.00  0.00    +0.249 C 
ATOM      4  O   UNL     1      -0.232  -8.364  -0.465  0.00  0.00    -0.273 OA
ATOM      5  C   UNL     1       1.879  -9.455  -0.228  0.00  0.00    +0.148 C 
ATOM      6  C   UNL     1       1.368 -10.356   0.897  0.00  0.00    +0.047 C 
ATOM      7  C   UNL     1       2.173 -11.658   0.886  0.00  0.00    +0.105 C 
ATOM      8  C   UNL     1       3.647 -11.378   0.830  0.00  0.00    +0.219 C 
ATOM      9  O   UNL     1       4.416 -12.255   1.160  0.00  0.00    -0.275 OA
ATOM     10  N   UNL     1       4.152 -10.199   0.429  0.00  0.00    -0.273 N 
ATOM     11  C   UNL     1       3.334  -9.164   0.091  0.00  0.00    +0.117 C 
ATOM     12  N   UNL     1       3.716  -7.920   0.133  0.00  0.00    -0.212 NA
ATOM     13  H   UNL     1       5.113 -10.085   0.365  0.00  0.00    +0.156 HD
ENDROOT
BRANCH   6  14
ATOM     14  C   UNL     1       1.543  -9.660   2.223  0.00  0.00    -0.039 A 
ATOM     15  C   UNL     1       0.448  -9.112   2.864  0.00  0.00    +0.008 A 
ATOM     16  C   UNL     1       0.603  -8.472   4.080  0.00  0.00    +0.049 A 
ATOM     17  C   UNL     1       1.859  -8.380   4.658  0.00  0.00    +0.161 A 
ATOM     18  C   UNL     1       2.961  -8.932   4.013  0.00  0.00    +0.159 A 
ATOM     19  C   UNL     1       2.797  -9.576   2.797  0.00  0.00    +0.053 A 
BRANCH  18  20
ATOM     20  O   UNL     1       4.196  -8.844   4.577  0.00  0.00    -0.503 OA
ATOM     21  H   UNL     1       4.415  -9.583   5.160  0.00  0.00    +0.292 HD
ENDBRANCH  18  20
BRANCH  17  22
ATOM     22  O   UNL     1       2.013  -7.750   5.854  0.00  0.00    -0.491 OA
ATOM     23  C   UNL     1       0.838  -7.207   6.458  0.00  0.00    +0.277 C 
ENDBRANCH  17  22
ENDBRANCH   6  14
BRANCH   1  24
ATOM     24  S   UNL     1       3.505  -5.275  -0.043  0.00  0.00    -0.084 S 
BRANCH  24  25
ATOM     25  C   UNL     1       2.051  -4.224  -0.312  0.00  0.00    +0.112 C 
BRANCH  25  30
ATOM     26  C   UNL     1       3.668   1.323  -0.383  0.00  0.00    +0.044 C 
ATOM     27  C   UNL     1       3.247  -0.123  -0.364  0.00  0.00    -0.050 A 
ATOM     28  C   UNL     1       3.226  -0.852  -1.539  0.00  0.00    +0.003 A 
ATOM     29  C   UNL     1       2.839  -2.179  -1.522  0.00  0.00    +0.005 A 
ATOM     30  C   UNL     1       2.474  -2.778  -0.330  0.00  0.00    -0.037 A 
ATOM     31  C   UNL     1       2.496  -2.049   0.844  0.00  0.00    +0.005 A 
ATOM     32  C   UNL     1       2.886  -0.723   0.828  0.00  0.00    +0.003 A 
ENDBRANCH  25  30
ENDBRANCH  24  25
ENDBRANCH   1  24
TORSDOF 6
