REMARK  Name = ZINC45740141
REMARK  11 active torsions:
REMARK  status: ('A' for Active; 'I' for Inactive)
REMARK    1  A    between atoms: C_1  and  C_2
REMARK    2  A    between atoms: C_2  and  C_3
REMARK    3  A    between atoms: C_2  and  C_4
REMARK    4  A    between atoms: C_4  and  N_5
REMARK    5  A    between atoms: C_6  and  N_33
REMARK    6  A    between atoms: C_7  and  N_14
REMARK    7  A    between atoms: N_14  and  C_15
REMARK    8  A    between atoms: C_15  and  C_16
REMARK    9  A    between atoms: C_16  and  C_17
REMARK   10  A    between atoms: C_16  and  C_18
REMARK   11  A    between atoms: C_19  and  C_21
REMARK                            x       y       z     vdW  Elec       q    Type
REMARK                         _______ _______ _______ _____ _____    ______ ____
ROOT
ATOM      1  N   UNL     1      -0.808   2.922   4.445  0.00  0.00    -0.263 N 
ATOM      2  C   UNL     1       0.364   3.512   4.133  0.00  0.00    +0.228 C 
ATOM      3  O   UNL     1       0.849   4.333   4.883  0.00  0.00    -0.275 OA
ENDROOT
BRANCH   2   4
ATOM      4  C   UNL     1       1.073   3.150   2.853  0.00  0.00    +0.116 C 
ATOM      5  C   UNL     1       1.903   1.885   3.070  0.00  0.00    +0.113 C 
ATOM      6  C   UNL     1       3.092   2.196   3.939  0.00  0.00    +0.218 C 
ATOM      7  O   UNL     1       3.490   1.366   4.729  0.00  0.00    -0.275 OA
ATOM      8  N   UNL     1       3.720   3.382   3.848  0.00  0.00    -0.285 N 
ATOM      9  C   UNL     1       3.266   4.358   2.955  0.00  0.00    +0.037 A 
ATOM     10  C   UNL     1       1.978   4.283   2.443  0.00  0.00    -0.014 A 
ATOM     11  C   UNL     1       1.530   5.245   1.560  0.00  0.00    +0.006 A 
ATOM     12  C   UNL     1       2.364   6.282   1.185  0.00  0.00    +0.000 A 
ATOM     13  C   UNL     1       3.647   6.360   1.693  0.00  0.00    +0.002 A 
ATOM     14  C   UNL     1       4.100   5.402   2.579  0.00  0.00    +0.023 A 
ATOM     15  H   UNL     1       4.492   3.563   4.407  0.00  0.00    +0.155 HD
ENDBRANCH   2   4
BRANCH   1  18
ATOM     16  N   UNL     1      -2.173  -0.152   2.965  0.00  0.00    -0.280 N 
ATOM     17  C   UNL     1      -1.582   0.698   3.871  0.00  0.00    +0.127 A 
ATOM     18  C   UNL     1      -1.411   2.026   3.537  0.00  0.00    +0.140 A 
ATOM     19  C   UNL     1      -1.848   2.470   2.275  0.00  0.00    +0.277 A 
ATOM     20  O   UNL     1      -1.708   3.638   1.954  0.00  0.00    -0.266 OA
ATOM     21  N   UNL     1      -2.421   1.597   1.424  0.00  0.00    -0.273 N 
ATOM     22  H   UNL     1      -2.722   1.902   0.554  0.00  0.00    +0.173 HD
ATOM     23  C   UNL     1      -2.574   0.305   1.765  0.00  0.00    +0.331 A 
ATOM     24  O   UNL     1      -3.090  -0.464   0.976  0.00  0.00    -0.246 OA
BRANCH  17  25
ATOM     25  N   UNL     1      -1.168   0.230   5.095  0.00  0.00    -0.343 N 
ATOM     26  H   UNL     1      -1.381  -0.677   5.365  0.00  0.00    +0.144 HD
ATOM     27  H   UNL     1      -0.662   0.807   5.689  0.00  0.00    +0.144 HD
ENDBRANCH  17  25
BRANCH  16  28
ATOM     28  C   UNL     1      -2.361  -1.564   3.307  0.00  0.00    +0.131 C 
BRANCH  28  30
ATOM     29  C   UNL     1       0.084  -1.907   3.689  0.00  0.00    +0.009 C 
ATOM     30  C   UNL     1      -1.129  -2.362   2.875  0.00  0.00    +0.003 C 
ATOM     31  C   UNL     1      -1.375  -3.852   3.118  0.00  0.00    +0.009 C 
ENDBRANCH  28  30
ENDBRANCH  16  28
ENDBRANCH   1  18
BRANCH   1  32
ATOM     32  C   UNL     1      -1.457   3.213   5.726  0.00  0.00    +0.117 C 
BRANCH  32  33
ATOM     33  C   UNL     1      -2.474   4.341   5.539  0.00  0.00    +0.001 C 
ATOM     34  C   UNL     1      -3.237   4.561   6.846  0.00  0.00    +0.009 C 
ATOM     35  C   UNL     1      -1.742   5.628   5.151  0.00  0.00    +0.009 C 
ENDBRANCH  32  33
ENDBRANCH   1  32
TORSDOF 7
