REMARK  Name = ZINC67271740
REMARK  5 active torsions:
REMARK  status: ('A' for Active; 'I' for Inactive)
REMARK    1  A    between atoms: C_1  and  C_2
REMARK    2  A    between atoms: C_2  and  C_4
REMARK    3  A    between atoms: C_2  and  N_10
REMARK    4  A    between atoms: N_10  and  C_11
REMARK    5  A    between atoms: C_12  and  C_14
REMARK                            x       y       z     vdW  Elec       q    Type
REMARK                         _______ _______ _______ _____ _____    ______ ____
ROOT
ATOM      1  C   UNL     1       1.657  -1.554  -2.969  0.00  0.00    +0.075 C 
ATOM      2  C   UNL     1       0.331  -1.941  -3.627  0.00  0.00    +0.015 C 
ATOM      3  C   UNL     1       0.578  -2.315  -5.090  0.00  0.00    +0.036 C 
ATOM      4  C   UNL     1       1.559  -3.480  -5.162  0.00  0.00    +0.112 C 
ATOM      5  C   UNL     1       2.878  -3.117  -4.488  0.00  0.00    +0.036 C 
ATOM      6  C   UNL     1       2.621  -2.740  -3.027  0.00  0.00    +0.015 C 
ATOM      7  C   UNL     1       0.962  -4.713  -4.524  0.00  0.00    +0.244 C 
ATOM      8  O   UNL     1       0.613  -4.847  -3.371  0.00  0.00    -0.273 OA
ATOM      9  N   UNL     1       0.898  -5.633  -5.509  0.00  0.00    -0.238 N 
ATOM     10  C   UNL     1       1.370  -5.151  -6.665  0.00  0.00    +0.307 C 
ATOM     11  O   UNL     1       1.416  -5.792  -7.697  0.00  0.00    -0.252 OA
ATOM     12  N   UNL     1       1.787  -3.875  -6.558  0.00  0.00    -0.285 N 
ATOM     13  H   UNL     1       0.555  -6.533  -5.393  0.00  0.00    +0.159 HD
ATOM     14  H   UNL     1       2.163  -3.325  -7.263  0.00  0.00    +0.151 HD
ENDROOT
BRANCH   1  17
ATOM     15  N   UNL     1       0.888   0.031  -1.232  0.00  0.00    -0.297 N 
ATOM     16  C   UNL     1       0.611   0.995  -2.300  0.00  0.00    +0.132 C 
ATOM     17  C   UNL     1       1.413  -1.174  -1.531  0.00  0.00    +0.219 C 
ATOM     18  O   UNL     1       1.689  -1.952  -0.643  0.00  0.00    -0.275 OA
BRANCH  15  20
ATOM     19  C   UNL     1       1.283   1.695   0.516  0.00  0.00    +0.033 C 
ATOM     20  C   UNL     1       0.593   0.376   0.161  0.00  0.00    +0.104 C 
BRANCH  20  21
ATOM     21  C   UNL     1      -0.896   0.524   0.337  0.00  0.00    -0.009 A 
ATOM     22  C   UNL     1      -1.629   1.328  -0.523  0.00  0.00    +0.008 A 
ATOM     23  C   UNL     1      -2.996   1.434  -0.323  0.00  0.00    +0.020 A 
ATOM     24  C   UNL     1      -3.580   0.741   0.721  0.00  0.00    +0.111 A 
ATOM     25  N   UNL     1      -2.852  -0.014   1.520  0.00  0.00    -0.263 NA
ATOM     26  C   UNL     1      -1.550  -0.144   1.355  0.00  0.00    +0.116 A 
ENDBRANCH  20  21
ENDBRANCH  15  20
ENDBRANCH   1  17
TORSDOF 3
