REMARK  Name = ZINC63363101
REMARK  7 active torsions:
REMARK  status: ('A' for Active; 'I' for Inactive)
REMARK    1  A    between atoms: C_1  and  C_2
REMARK    2  A    between atoms: C_2  and  C_3
REMARK    3  A    between atoms: C_3  and  C_4
REMARK    4  A    between atoms: C_4  and  C_5
REMARK    5  A    between atoms: C_5  and  N_6
REMARK    6  A    between atoms: C_12  and  C_28
REMARK    7  A    between atoms: C_24  and  C_27
REMARK                            x       y       z     vdW  Elec       q    Type
REMARK                         _______ _______ _______ _____ _____    ______ ____
ROOT
ATOM      1  N   UNL     1       1.475  -3.986  -2.532  0.00  0.00    -0.291 N 
ATOM      2  C   UNL     1       2.596  -4.661  -1.901  0.00  0.00    +0.203 C 
ATOM      3  C   UNL     1       2.491  -6.146  -2.006  0.00  0.00    +0.234 C 
ATOM      4  O   UNL     1       3.380  -6.808  -1.513  0.00  0.00    -0.274 OA
ATOM      5  N   UNL     1       1.489  -6.801  -2.604  0.00  0.00    -0.283 N 
ATOM      6  C   UNL     1       1.556  -8.275  -2.655  0.00  0.00    +0.121 C 
ATOM      7  C   UNL     1       0.316  -8.864  -1.960  0.00  0.00    +0.065 C 
ATOM      8  C   UNL     1      -0.877  -8.104  -2.483  0.00  0.00    -0.027 C 
ATOM      9  C   UNL     1      -2.020  -8.517  -3.016  0.00  0.00    -0.000 A 
ATOM     10  C   UNL     1      -2.593  -9.861  -3.186  0.00  0.00    +0.010 A 
ATOM     11  C   UNL     1      -3.801  -9.924  -3.807  0.00  0.00    +0.001 A 
ATOM     12  C   UNL     1      -4.487  -8.797  -4.271  0.00  0.00    +0.002 A 
ATOM     13  C   UNL     1      -4.038  -7.522  -4.149  0.00  0.00    +0.026 A 
ATOM     14  C   UNL     1      -2.783  -7.327  -3.504  0.00  0.00    +0.043 A 
ATOM     15  N   UNL     1      -2.137  -6.231  -3.234  0.00  0.00    -0.375 N 
ATOM     16  C   UNL     1      -0.926  -6.580  -2.491  0.00  0.00    +0.139 C 
ATOM     17  C   UNL     1       0.346  -6.111  -3.205  0.00  0.00    +0.135 C 
ATOM     18  C   UNL     1       0.462  -4.626  -3.112  0.00  0.00    +0.242 C 
ATOM     19  O   UNL     1      -0.424  -3.958  -3.603  0.00  0.00    -0.273 OA
ATOM     20  C   UNL     1       0.256  -6.498  -4.682  0.00  0.00    +0.044 C 
ATOM     21  H   UNL     1      -2.411  -5.335  -3.483  0.00  0.00    +0.160 HD
ENDROOT
BRANCH   7  22
ATOM     22  C   UNL     1       0.429  -8.686  -0.467  0.00  0.00    -0.039 A 
ATOM     23  C   UNL     1       0.527  -7.417   0.072  0.00  0.00    +0.006 A 
ATOM     24  C   UNL     1       0.630  -7.253   1.440  0.00  0.00    +0.020 A 
ATOM     25  C   UNL     1       0.635  -8.360   2.271  0.00  0.00    +0.041 A 
ATOM     26  C   UNL     1       0.537  -9.630   1.731  0.00  0.00    +0.020 A 
ATOM     27  C   UNL     1       0.428  -9.792   0.362  0.00  0.00    +0.006 A 
ATOM     28 CL   UNL     1       0.765  -8.155   3.990  0.00  0.00    -0.084 Cl
ENDBRANCH   7  22
BRANCH   1  29
ATOM     29  C   UNL     1       1.455  -2.521  -2.524  0.00  0.00    +0.108 C 
BRANCH  29  30
ATOM     30  C   UNL     1       0.739  -2.027  -1.265  0.00  0.00    +0.019 C 
BRANCH  30  31
ATOM     31  C   UNL     1       0.718  -0.497  -1.257  0.00  0.00    +0.001 C 
BRANCH  31  33
ATOM     32  C   UNL     1      -0.019   1.526   0.010  0.00  0.00    +0.004 C 
ATOM     33  C   UNL     1       0.002  -0.004   0.002  0.00  0.00    -0.003 C 
ENDBRANCH  31  33
ENDBRANCH  30  31
ENDBRANCH  29  30
ENDBRANCH   1  29
TORSDOF 5
