REMARK  Name = ZINC20256758
REMARK  7 active torsions:
REMARK  status: ('A' for Active; 'I' for Inactive)
REMARK    1  A    between atoms: C_1  and  O_2
REMARK    2  A    between atoms: O_2  and  C_3
REMARK    3  A    between atoms: C_3  and  C_5
REMARK    4  A    between atoms: C_9  and  S_10
REMARK    5  A    between atoms: S_10  and  N_13
REMARK    6  A    between atoms: N_20  and  C_23
REMARK    7  A    between atoms: C_23  and  C_24
REMARK                            x       y       z     vdW  Elec       q    Type
REMARK                         _______ _______ _______ _____ _____    ______ ____
ROOT
ATOM      1  C   UNL     1      -2.366   1.847   2.388  0.00  0.00    +0.096 A 
ATOM      2  C   UNL     1      -2.652   2.260   3.747  0.00  0.00    -0.025 A 
ATOM      3  C   UNL     1      -3.369   1.376   4.481  0.00  0.00    -0.021 A 
ATOM      4  S   UNL     1      -3.667   0.023   3.381  0.00  0.00    -0.074 S 
ATOM      5  C   UNL     1      -2.843   0.619   1.978  0.00  0.00    +0.157 A 
ATOM      6  C   UNL     1      -3.799   1.544   5.904  0.00  0.00    -0.035 C 
ATOM      7  N   UNL     1      -3.023   2.653   6.491  0.00  0.00    +0.383 N 
ATOM      8  C   UNL     1      -3.054   3.832   5.615  0.00  0.00    -0.074 C 
ATOM      9  C   UNL     1      -2.208   3.582   4.364  0.00  0.00    +0.018 C 
ATOM     10  H   UNL     1      -1.976   2.329   6.587  0.00  0.00    -0.081 HD
ENDROOT
BRANCH   5  11
ATOM     11  S   UNL     1      -2.663  -0.153   0.405  0.00  0.00    +0.068 S 
ATOM     12  O   UNL     1      -2.440   0.888  -0.536  0.00  0.00    -0.152 OA
ATOM     13  O   UNL     1      -3.737  -1.075   0.280  0.00  0.00    -0.152 OA
BRANCH  11  14
ATOM     14  N   UNL     1      -1.272  -1.051   0.456  0.00  0.00    -0.176 NA
ATOM     15  C   UNL     1       0.014  -0.462   0.059  0.00  0.00    +0.109 C 
ATOM     16  C   UNL     1       1.023  -0.673   1.192  0.00  0.00    +0.017 C 
ATOM     17  C   UNL     1       1.093  -2.162   1.537  0.00  0.00    +0.003 C 
ATOM     18  C   UNL     1      -0.279  -2.642   2.017  0.00  0.00    +0.017 C 
ATOM     19  C   UNL     1      -1.302  -2.454   0.893  0.00  0.00    +0.109 C 
ENDBRANCH  11  14
ENDBRANCH   5  11
BRANCH   1  20
ATOM     20  C   UNL     1      -1.595   2.706   1.478  0.00  0.00    +0.342 C 
ATOM     21  O   UNL     1      -2.168   3.517   0.776  0.00  0.00    -0.245 OA
BRANCH  20  23
ATOM     22  C   UNL     1       0.443   3.476   0.501  0.00  0.00    +0.280 C 
ATOM     23  O   UNL     1      -0.253   2.596   1.422  0.00  0.00    -0.464 OA
ENDBRANCH  20  23
ENDBRANCH   1  20
BRANCH   7  24
ATOM     24  C   UNL     1      -3.513   2.983   7.836  0.00  0.00    -0.075 C 
BRANCH  24  25
ATOM     25  C   UNL     1      -4.903   3.615   7.732  0.00  0.00    -0.024 C 
ATOM     26  C   UNL     1      -5.623   3.501   9.082  0.00  0.00    +0.006 C 
ATOM     27  C   UNL     1      -7.067   3.975   8.901  0.00  0.00    +0.027 C 
ATOM     28  C   UNL     1      -7.091   5.300   8.198  0.00  0.00    -0.031 C 
ATOM     29  C   UNL     1      -6.093   5.787   7.532  0.00  0.00    -0.031 C 
ATOM     30  C   UNL     1      -4.769   5.096   7.373  0.00  0.00    +0.028 C 
ENDBRANCH  24  25
ENDBRANCH   7  24
TORSDOF 6
