REMARK  Name = ZINC47156043
REMARK  6 active torsions:
REMARK  status: ('A' for Active; 'I' for Inactive)
REMARK    1  A    between atoms: C_1  and  C_2
REMARK    2  A    between atoms: C_2  and  C_4
REMARK    3  A    between atoms: C_2  and  N_14
REMARK    4  A    between atoms: N_17  and  C_18
REMARK    5  A    between atoms: C_21  and  O_24
REMARK    6  A    between atoms: O_24  and  C_25
REMARK                            x       y       z     vdW  Elec       q    Type
REMARK                         _______ _______ _______ _____ _____    ______ ____
ROOT
ATOM      1  N   UNL     1       0.687  -0.484  -1.201  0.00  0.00    -0.293 N 
ATOM      2  C   UNL     1       2.031  -0.588  -1.214  0.00  0.00    +0.304 C 
ATOM      3  O   UNL     1       2.674  -0.291  -0.226  0.00  0.00    -0.252 OA
ATOM      4  N   UNL     1       2.662  -1.022  -2.324  0.00  0.00    -0.268 N 
ATOM      5  H   UNL     1       0.174  -0.721  -1.989  0.00  0.00    +0.151 HD
ATOM      6  H   UNL     1       2.147  -1.323  -3.088  0.00  0.00    +0.156 HD
ENDROOT
BRANCH   4   7
ATOM      7  C   UNL     1       4.063  -1.037  -2.373  0.00  0.00    +0.053 A 
ATOM      8  C   UNL     1       4.805  -1.332  -1.231  0.00  0.00    +0.030 A 
ATOM      9  C   UNL     1       6.185  -1.336  -1.326  0.00  0.00    +0.069 A 
ATOM     10  C   UNL     1       6.781  -1.049  -2.547  0.00  0.00    +0.214 A 
ATOM     11  N   UNL     1       6.045  -0.773  -3.611  0.00  0.00    -0.219 NA
ATOM     12  C   UNL     1       4.727  -0.765  -3.559  0.00  0.00    +0.138 A 
BRANCH  10  13
ATOM     13  O   UNL     1       8.135  -1.051  -2.650  0.00  0.00    -0.480 OA
ATOM     14  C   UNL     1       8.688  -0.748  -3.932  0.00  0.00    +0.279 C 
ENDBRANCH  10  13
ENDBRANCH   4   7
BRANCH   1  16
ATOM     15  C   UNL     1      -0.026   1.517   0.011  0.00  0.00    +0.033 C 
ATOM     16  C   UNL     1       0.002  -0.013   0.005  0.00  0.00    +0.102 C 
BRANCH  16  17
ATOM     17  C   UNL     1      -1.410  -0.541   0.019  0.00  0.00    -0.027 A 
ATOM     18  C   UNL     1      -2.143  -0.590  -1.152  0.00  0.00    +0.007 A 
ATOM     19  C   UNL     1      -3.436  -1.072  -1.146  0.00  0.00    +0.024 A 
ATOM     20  C   UNL     1      -4.012  -1.515   0.043  0.00  0.00    +0.037 A 
ATOM     21  C   UNL     1      -3.265  -1.460   1.213  0.00  0.00    -0.017 A 
ATOM     22  C   UNL     1      -1.973  -0.983   1.203  0.00  0.00    +0.011 A 
ATOM     23  C   UNL     1      -4.152  -2.001   2.310  0.00  0.00    +0.133 C 
ATOM     24  C   UNL     1      -5.445  -2.346   1.601  0.00  0.00    +0.222 C 
ATOM     25  O   UNL     1      -6.442  -2.815   2.108  0.00  0.00    -0.275 OA
ATOM     26  N   UNL     1      -5.279  -2.036   0.304  0.00  0.00    -0.285 N 
ATOM     27  H   UNL     1      -5.963  -2.161  -0.373  0.00  0.00    +0.155 HD
ENDBRANCH  16  17
ENDBRANCH   1  16
TORSDOF 4
