REMARK  Name = ZINC51678528
REMARK  6 active torsions:
REMARK  status: ('A' for Active; 'I' for Inactive)
REMARK    1  A    between atoms: C_1  and  C_2
REMARK    2  A    between atoms: C_2  and  C_4
REMARK    3  A    between atoms: C_2  and  N_13
REMARK    4  A    between atoms: C_7  and  O_11
REMARK    5  A    between atoms: O_11  and  C_12
REMARK    6  A    between atoms: C_20  and  C_23
REMARK                            x       y       z     vdW  Elec       q    Type
REMARK                         _______ _______ _______ _____ _____    ______ ____
ROOT
ATOM      1  N   UNL     1       0.688  -0.477  -1.203  0.00  0.00    -0.293 N 
ATOM      2  C   UNL     1       0.006  -0.608  -2.358  0.00  0.00    +0.303 C 
ATOM      3  O   UNL     1      -1.195  -0.423  -2.380  0.00  0.00    -0.253 OA
ATOM      4  N   UNL     1       0.656  -0.945  -3.490  0.00  0.00    -0.280 N 
ATOM      5  C   UNL     1       2.087  -1.287  -3.468  0.00  0.00    +0.137 C 
ATOM      6  C   UNL     1       2.798  -0.462  -4.547  0.00  0.00    +0.180 C 
ATOM      7  O   UNL     1       2.123  -0.637  -5.795  0.00  0.00    -0.364 OA
ATOM      8  C   UNL     1       0.771  -0.173  -5.798  0.00  0.00    +0.221 C 
ATOM      9  C   UNL     1      -0.045  -0.989  -4.783  0.00  0.00    +0.150 C 
ATOM     10  H   UNL     1       1.632  -0.696  -1.170  0.00  0.00    +0.151 HD
ENDROOT
BRANCH   8  11
ATOM     11  C   UNL     1       0.181  -0.349  -7.174  0.00  0.00    +0.241 C 
ATOM     12  O   UNL     1       0.821  -0.908  -8.040  0.00  0.00    -0.273 OA
ATOM     13  N   UNL     1      -1.056   0.114  -7.442  0.00  0.00    -0.327 N 
ATOM     14  H   UNL     1      -1.567   0.560  -6.749  0.00  0.00    +0.145 HD
ATOM     15  H   UNL     1      -1.435  -0.000  -8.328  0.00  0.00    +0.145 HD
ENDBRANCH   8  11
BRANCH   1  17
ATOM     16  C   UNL     1      -0.016   1.528   0.009  0.00  0.00    +0.033 C 
ATOM     17  C   UNL     1       0.003  -0.002   0.002  0.00  0.00    +0.102 C 
BRANCH  17  18
ATOM     18  C   UNL     1       0.731  -0.502   1.223  0.00  0.00    -0.024 A 
ATOM     19  C   UNL     1       2.113  -0.513   1.246  0.00  0.00    +0.009 A 
ATOM     20  C   UNL     1       2.784  -0.971   2.364  0.00  0.00    +0.049 A 
ATOM     21  C   UNL     1       2.070  -1.419   3.465  0.00  0.00    +0.155 A 
ATOM     22  C   UNL     1       0.681  -1.406   3.441  0.00  0.00    +0.165 A 
ATOM     23  C   UNL     1       0.015  -0.942   2.321  0.00  0.00    +0.047 A 
ATOM     24  F   UNL     1      -0.018  -1.841   4.512  0.00  0.00    -0.202 F 
BRANCH  21  25
ATOM     25  O   UNL     1       2.728  -1.869   4.566  0.00  0.00    -0.492 OA
ATOM     26  C   UNL     1       4.156  -1.854   4.519  0.00  0.00    +0.277 C 
ENDBRANCH  21  25
ENDBRANCH  17  18
ENDBRANCH   1  17
TORSDOF 4
