REMARK  Name = ZINC00059216
REMARK  3 active torsions:
REMARK  status: ('A' for Active; 'I' for Inactive)
REMARK    1  A    between atoms: N_13  and  N_16
REMARK    2  A    between atoms: C_17  and  C_18
REMARK    3  A    between atoms: C_21  and  O_24
REMARK                            x       y       z     vdW  Elec       q    Type
REMARK                         _______ _______ _______ _____ _____    ______ ____
ROOT
ATOM      1  C   UNL     1      -2.387   1.353   0.293  0.00  0.00    +0.001 A 
ATOM      2  C   UNL     1      -1.235   2.071   0.149  0.00  0.00    +0.008 A 
ATOM      3  C   UNL     1      -0.005   1.406   0.003  0.00  0.00    -0.016 A 
ATOM      4  C   UNL     1       1.209   2.100  -0.144  0.00  0.00    +0.008 A 
ATOM      5  C   UNL     1       2.378   1.410  -0.287  0.00  0.00    +0.001 A 
ATOM      6  C   UNL     1       2.407   0.020  -0.295  0.00  0.00    +0.014 A 
ATOM      7  C   UNL     1       1.231  -0.702  -0.154  0.00  0.00    +0.047 A 
ATOM      8  C   UNL     1       0.011  -0.004  -0.003  0.00  0.00    +0.006 A 
ATOM      9  C   UNL     1      -1.193  -0.731   0.142  0.00  0.00    +0.047 A 
ATOM     10  C   UNL     1      -2.385  -0.036   0.289  0.00  0.00    +0.014 A 
ATOM     11  C   UNL     1      -1.135  -2.199   0.131  0.00  0.00    +0.274 C 
ATOM     12  O   UNL     1      -2.159  -2.845   0.254  0.00  0.00    -0.268 OA
ATOM     13  N   UNL     1       0.043  -2.834  -0.014  0.00  0.00    -0.119 N 
ATOM     14  C   UNL     1       1.208  -2.172  -0.155  0.00  0.00    +0.274 C 
ATOM     15  O   UNL     1       2.245  -2.793  -0.283  0.00  0.00    -0.268 OA
ENDROOT
BRANCH  13  16
ATOM     16  N   UNL     1       0.059  -4.235  -0.019  0.00  0.00    -0.177 NA
ATOM     17  C   UNL     1       0.639  -4.881   0.946  0.00  0.00    +0.139 C 
BRANCH  17  18
ATOM     18  C   UNL     1       0.756  -6.348   0.884  0.00  0.00    -0.005 A 
ATOM     19  C   UNL     1       0.238  -7.048  -0.209  0.00  0.00    +0.013 A 
ATOM     20  C   UNL     1       0.354  -8.419  -0.265  0.00  0.00    +0.046 A 
ATOM     21  C   UNL     1       0.975  -9.109   0.769  0.00  0.00    +0.117 A 
ATOM     22  C   UNL     1       1.486  -8.418   1.861  0.00  0.00    +0.046 A 
ATOM     23  C   UNL     1       1.380  -7.046   1.923  0.00  0.00    +0.013 A 
BRANCH  21  24
ATOM     24  O   UNL     1       1.082 -10.461   0.713  0.00  0.00    -0.507 OA
ATOM     25  H   UNL     1       0.336 -10.932   1.110  0.00  0.00    +0.292 HD
ENDBRANCH  21  24
ENDBRANCH  17  18
ENDBRANCH  13  16
TORSDOF 3
