REMARK  Name = ZINC00235447
REMARK  6 active torsions:
REMARK  status: ('A' for Active; 'I' for Inactive)
REMARK    1  A    between atoms: C_1  and  C_2
REMARK    2  A    between atoms: C_2  and  C_3
REMARK    3  A    between atoms: C_3  and  C_4
REMARK    4  A    between atoms: C_8  and  C_12
REMARK    5  A    between atoms: C_9  and  C_11
REMARK    6  A    between atoms: N_15  and  N_16
REMARK                            x       y       z     vdW  Elec       q    Type
REMARK                         _______ _______ _______ _____ _____    ______ ____
ROOT
ATOM      1  C   UNL     1      -0.718   1.572   1.248  0.00  0.00    +0.131 A 
ATOM      2  N   UNL     1      -1.787   2.313   1.129  0.00  0.00    -0.225 NA
ATOM      3  C   UNL     1      -2.437   2.755   2.202  0.00  0.00    +0.116 A 
ATOM      4  C   UNL     1      -2.005   2.460   3.507  0.00  0.00    +0.077 A 
ATOM      5  C   UNL     1      -2.822   3.023   4.566  0.00  0.00    -0.026 A 
ATOM      6  C   UNL     1      -3.896   3.760   4.243  0.00  0.00    -0.008 A 
ATOM      7  S   UNL     1      -3.884   3.749   2.460  0.00  0.00    -0.073 S 
ATOM      8  C   UNL     1      -4.878   4.436   5.166  0.00  0.00    +0.052 C 
ATOM      9  C   UNL     1      -2.468   2.783   6.011  0.00  0.00    +0.045 C 
ATOM     10  C   UNL     1      -0.826   1.650   3.601  0.00  0.00    +0.279 A 
ATOM     11  O   UNL     1      -0.373   1.340   4.690  0.00  0.00    -0.265 OA
ATOM     12  N   UNL     1      -0.228   1.236   2.469  0.00  0.00    -0.218 N 
ENDROOT
BRANCH  12  13
ATOM     13  N   UNL     1       0.896   0.464   2.550  0.00  0.00    -0.294 N 
ATOM     14  H   UNL     1       1.148   0.292   3.511  0.00  0.00    +0.163 HD
ATOM     15  H   UNL     1       0.776  -0.402   2.047  0.00  0.00    +0.163 HD
ENDBRANCH  12  13
BRANCH   1  16
ATOM     16  C   UNL     1      -0.013   1.086   0.008  0.00  0.00    +0.076 C 
BRANCH  16  18
ATOM     17  C   UNL     1      -0.037   1.099  -2.490  0.00  0.00    +0.004 C 
ATOM     18  C   UNL     1      -0.753   1.593  -1.232  0.00  0.00    +0.004 C 
ENDBRANCH  16  18
ENDBRANCH   1  16
TORSDOF 3
