REMARK  Name = ZINC14971514
REMARK  8 active torsions:
REMARK  status: ('A' for Active; 'I' for Inactive)
REMARK    1  A    between atoms: C_1  and  C_2
REMARK    2  A    between atoms: C_3  and  C_17
REMARK    3  A    between atoms: N_6  and  C_7
REMARK    4  A    between atoms: C_17  and  C_19
REMARK    5  A    between atoms: C_17  and  N_55
REMARK    6  A    between atoms: C_20  and  C_21
REMARK    7  A    between atoms: C_20  and  N_55
REMARK    8  A    between atoms: N_24  and  C_26
REMARK                            x       y       z     vdW  Elec       q    Type
REMARK                         _______ _______ _______ _____ _____    ______ ____
ROOT
ATOM      1  C   UNL     1      -0.052   1.226   0.192  0.00  0.00    -0.040 C 
ATOM      2  C   UNL     1      -0.707   1.927   1.384  0.00  0.00    -0.009 C 
ENDROOT
BRANCH   1   5
ATOM      3  C   UNL     1       2.380   0.008   1.739  0.00  0.00    +0.066 C 
ATOM      4  C   UNL     1       2.435   1.141   0.747  0.00  0.00    +0.043 A 
ATOM      5  C   UNL     1       1.384   1.668   0.077  0.00  0.00    -0.021 A 
ATOM      6  C   UNL     1       1.865   2.700  -0.737  0.00  0.00    +0.137 A 
ATOM      7  N   UNL     1       3.159   2.789  -0.569  0.00  0.00    -0.174 NA
ATOM      8  N   UNL     1       3.549   1.814   0.360  0.00  0.00    -0.236 N 
BRANCH   8   9
ATOM      9  C   UNL     1       4.852   1.581   0.812  0.00  0.00    +0.073 A 
ATOM     10  C   UNL     1       5.363   0.302   0.830  0.00  0.00    +0.028 A 
ATOM     11  C   UNL     1       6.658   0.059   1.278  0.00  0.00    +0.003 A 
ATOM     12  C   UNL     1       7.455   1.075   1.710  0.00  0.00    +0.008 A 
ATOM     13  C   UNL     1       6.972   2.394   1.707  0.00  0.00    -0.016 A 
ATOM     14  C   UNL     1       5.657   2.655   1.248  0.00  0.00    +0.008 A 
ATOM     15  C   UNL     1       5.178   3.974   1.240  0.00  0.00    +0.010 A 
ATOM     16  C   UNL     1       5.982   4.986   1.667  0.00  0.00    +0.001 A 
ATOM     17  C   UNL     1       7.278   4.732   2.114  0.00  0.00    +0.001 A 
ATOM     18  C   UNL     1       7.771   3.464   2.148  0.00  0.00    +0.008 A 
ENDBRANCH   8   9
ENDBRANCH   1   5
BRANCH   1  19
ATOM     19  N   UNL     1      -0.770   1.585  -1.046  0.00  0.00    +0.386 N 
ATOM     20  H   UNL     1      -0.133   1.490  -1.846  0.00  0.00    -0.085 HD
ATOM     21  H   UNL     1      -1.094   2.557  -0.980  0.00  0.00    -0.085 HD
BRANCH  19  22
ATOM     22  C   UNL     1      -1.931   0.697  -1.240  0.00  0.00    -0.043 C 
BRANCH  22  23
ATOM     23  C   UNL     1      -2.644   1.086  -2.509  0.00  0.00    -0.026 A 
ATOM     24  C   UNL     1      -3.685   2.014  -2.617  0.00  0.00    +0.136 A 
ATOM     25  N   UNL     1      -4.041   2.086  -3.875  0.00  0.00    -0.175 NA
ATOM     26  N   UNL     1      -3.244   1.197  -4.607  0.00  0.00    -0.240 N 
ATOM     27  C   UNL     1      -2.394   0.595  -3.745  0.00  0.00    +0.116 A 
BRANCH  26  28
ATOM     28  C   UNL     1      -3.315   0.972  -5.989  0.00  0.00    +0.066 A 
ATOM     29  C   UNL     1      -2.455   0.062  -6.590  0.00  0.00    +0.030 A 
ATOM     30  C   UNL     1      -2.530  -0.163  -7.951  0.00  0.00    +0.040 A 
ATOM     31  C   UNL     1      -3.455   0.527  -8.717  0.00  0.00    +0.124 A 
ATOM     32  C   UNL     1      -4.309   1.439  -8.121  0.00  0.00    +0.040 A 
ATOM     33  C   UNL     1      -4.240   1.662  -6.760  0.00  0.00    +0.030 A 
ATOM     34  F   UNL     1      -3.523   0.310 -10.049  0.00  0.00    -0.205 F 
ENDBRANCH  26  28
ENDBRANCH  22  23
ENDBRANCH  19  22
ENDBRANCH   1  19
TORSDOF 6
