REMARK  Name = ZINC44785924
REMARK  6 active torsions:
REMARK  status: ('A' for Active; 'I' for Inactive)
REMARK    1  A    between atoms: C_1  and  C_2
REMARK    2  A    between atoms: C_7  and  N_10
REMARK    3  A    between atoms: N_10  and  C_11
REMARK    4  A    between atoms: C_12  and  C_14
REMARK    5  A    between atoms: C_14  and  C_20
REMARK    6  A    between atoms: N_21  and  O_22
REMARK                            x       y       z     vdW  Elec       q    Type
REMARK                         _______ _______ _______ _____ _____    ______ ____
ROOT
ATOM      1  C   UNL     1       1.550  -3.700   4.542  0.00  0.00    +0.105 C 
ATOM      2  C   UNL     1       0.806  -4.597   5.534  0.00  0.00    +0.024 C 
ATOM      3  C   UNL     1      -0.551  -3.976   5.865  0.00  0.00    +0.001 C 
ATOM      4  C   UNL     1      -0.341  -2.594   6.487  0.00  0.00    +0.000 C 
ATOM      5  C   UNL     1       0.402  -1.696   5.496  0.00  0.00    +0.001 C 
ATOM      6  C   UNL     1       1.760  -2.318   5.165  0.00  0.00    +0.024 C 
ENDROOT
BRANCH   1   7
ATOM      7  C   UNL     1       2.888  -4.312   4.215  0.00  0.00    +0.147 C 
ATOM      8  N   UNL     1       3.976  -3.716   4.575  0.00  0.00    -0.076 NA
ATOM      9  N   UNL     1       2.950  -5.507   3.533  0.00  0.00    -0.343 N 
ATOM     10  H   UNL     1       2.137  -5.916   3.197  0.00  0.00    +0.144 HD
ATOM     11  H   UNL     1       3.806  -5.939   3.389  0.00  0.00    +0.144 HD
BRANCH   8  12
ATOM     12  O   UNL     1       5.233  -4.292   4.268  0.00  0.00    -0.408 OA
ATOM     13  H   UNL     1       5.989  -3.774   4.578  0.00  0.00    +0.328 HD
ENDBRANCH   8  12
ENDBRANCH   1   7
BRANCH   1  16
ATOM     14  N   UNL     1       1.156  -2.746   2.295  0.00  0.00    -0.301 N 
ATOM     15  C   UNL     1       2.457  -2.080   2.397  0.00  0.00    +0.132 C 
ATOM     16  C   UNL     1       0.738  -3.564   3.280  0.00  0.00    +0.229 C 
ATOM     17  O   UNL     1      -0.292  -4.191   3.152  0.00  0.00    -0.275 OA
BRANCH  14  23
ATOM     18  C   UNL     1      -1.248   0.690  -0.325  0.00  0.00    +0.007 C 
ATOM     19  C   UNL     1      -0.912  -0.798  -0.216  0.00  0.00    -0.012 C 
ATOM     20  C   UNL     1      -0.167  -1.247  -1.475  0.00  0.00    +0.003 C 
ATOM     21  C   UNL     1       0.170  -2.736  -1.365  0.00  0.00    +0.002 C 
ATOM     22  C   UNL     1       1.054  -2.970  -0.139  0.00  0.00    +0.022 C 
ATOM     23  C   UNL     1       0.309  -2.521   1.120  0.00  0.00    +0.076 C 
ATOM     24  C   UNL     1      -0.027  -1.033   1.011  0.00  0.00    +0.025 C 
ENDBRANCH  14  23
ENDBRANCH   1  16
TORSDOF 4
