REMARK  Name = ZINC20266903
REMARK  7 active torsions:
REMARK  status: ('A' for Active; 'I' for Inactive)
REMARK    1  A    between atoms: C_1  and  C_2
REMARK    2  A    between atoms: C_5  and  O_8
REMARK    3  A    between atoms: O_8  and  C_9
REMARK    4  A    between atoms: C_9  and  C_10
REMARK    5  A    between atoms: N_23  and  C_26
REMARK    6  A    between atoms: C_26  and  C_27
REMARK    7  A    between atoms: C_26  and  C_28
REMARK                            x       y       z     vdW  Elec       q    Type
REMARK                         _______ _______ _______ _____ _____    ______ ____
ROOT
ATOM      1  C   UNL     1       1.397   1.946  -0.001  0.00  0.00    +0.189 A 
ATOM      2  N   UNL     1       2.105   2.218  -1.092  0.00  0.00    -0.207 NA
ATOM      3  C   UNL     1       3.299   2.656  -0.744  0.00  0.00    +0.168 A 
ATOM      4  C   UNL     1       4.481   3.099  -1.508  0.00  0.00    +0.055 A 
ATOM      5  C   UNL     1       4.664   3.181  -2.953  0.00  0.00    -0.022 A 
ATOM      6  C   UNL     1       5.861   3.628  -3.397  0.00  0.00    +0.010 A 
ATOM      7  S   UNL     1       6.798   3.958  -1.931  0.00  0.00    -0.072 S 
ATOM      8  C   UNL     1       5.579   3.496  -0.726  0.00  0.00    +0.114 A 
ATOM      9  N   UNL     1       5.545   3.471   0.600  0.00  0.00    -0.228 NA
ATOM     10  C   UNL     1       4.491   3.076   1.259  0.00  0.00    +0.226 A 
ATOM     11  N   UNL     1       3.362   2.667   0.620  0.00  0.00    -0.201 N 
ATOM     12  N   UNL     1       2.114   2.208   1.065  0.00  0.00    -0.145 NA
ATOM     13  C   UNL     1       6.277   3.795  -4.826  0.00  0.00    +0.127 C 
ATOM     14  N   UNL     1       5.316   3.067  -5.675  0.00  0.00    -0.295 NA
ATOM     15  C   UNL     1       3.935   3.412  -5.308  0.00  0.00    +0.089 C 
ATOM     16  C   UNL     1       3.579   2.793  -3.954  0.00  0.00    +0.052 C 
ENDROOT
BRANCH  14  17
ATOM     17  C   UNL     1       5.564   3.331  -7.098  0.00  0.00    +0.051 C 
ATOM     18  C   UNL     1       5.397   4.826  -7.376  0.00  0.00    +0.024 C 
ATOM     19  C   UNL     1       6.989   2.902  -7.455  0.00  0.00    +0.024 C 
ENDBRANCH  14  17
BRANCH   1  20
ATOM     20  C   UNL     1      -0.017   1.425   0.010  0.00  0.00    +0.306 C 
BRANCH  20  21
ATOM     21  O   UNL     1       0.002  -0.004   0.002  0.00  0.00    -0.484 OA
BRANCH  21  26
ATOM     22  C   UNL     1      -4.981  -2.629   0.035  0.00  0.00    +0.044 C 
ATOM     23  C   UNL     1      -3.648  -1.927   0.026  0.00  0.00    -0.050 A 
ATOM     24  C   UNL     1      -2.479  -2.665   0.011  0.00  0.00    +0.007 A 
ATOM     25  C   UNL     1      -1.255  -2.024   0.003  0.00  0.00    +0.046 A 
ATOM     26  C   UNL     1      -1.200  -0.637   0.010  0.00  0.00    +0.121 A 
ATOM     27  C   UNL     1      -2.374   0.101   0.031  0.00  0.00    +0.046 A 
ATOM     28  C   UNL     1      -3.595  -0.545   0.033  0.00  0.00    +0.007 A 
ENDBRANCH  21  26
ENDBRANCH  20  21
ENDBRANCH   1  20
TORSDOF 4
