REMARK  Name = ZINC64981121
REMARK  6 active torsions:
REMARK  status: ('A' for Active; 'I' for Inactive)
REMARK    1  A    between atoms: C_1  and  C_2
REMARK    2  A    between atoms: C_2  and  C_3
REMARK    3  A    between atoms: C_3  and  C_4
REMARK    4  A    between atoms: C_4  and  N_5
REMARK    5  A    between atoms: N_18  and  N_19
REMARK    6  A    between atoms: C_20  and  C_21
REMARK                            x       y       z     vdW  Elec       q    Type
REMARK                         _______ _______ _______ _____ _____    ______ ____
ROOT
ATOM      1  N   UNL     1       1.471  -2.526   2.420  0.00  0.00    -0.323 N 
ATOM      2  C   UNL     1       2.834  -2.766   2.484  0.00  0.00    +0.053 A 
ATOM      3  C   UNL     1       3.853  -2.638   1.545  0.00  0.00    +0.026 A 
ATOM      4  C   UNL     1       5.150  -2.954   1.886  0.00  0.00    +0.002 A 
ATOM      5  C   UNL     1       5.455  -3.402   3.162  0.00  0.00    +0.001 A 
ATOM      6  C   UNL     1       4.460  -3.536   4.106  0.00  0.00    +0.012 A 
ATOM      7  C   UNL     1       3.144  -3.220   3.775  0.00  0.00    +0.029 A 
ATOM      8  C   UNL     1       1.875  -3.248   4.522  0.00  0.00    +0.138 A 
ATOM      9  C   UNL     1       0.879  -2.801   3.628  0.00  0.00    +0.166 A 
ATOM     10  N   UNL     1      -0.374  -2.728   4.065  0.00  0.00    -0.192 NA
ATOM     11  C   UNL     1      -0.645  -3.071   5.317  0.00  0.00    +0.256 A 
ATOM     12  N   UNL     1       0.311  -3.485   6.142  0.00  0.00    -0.111 NA
ATOM     13  N   UNL     1       1.538  -3.579   5.760  0.00  0.00    -0.142 NA
ATOM     14  N   UNL     1      -1.950  -2.995   5.774  0.00  0.00    -0.204 N 
ATOM     15  H   UNL     1      -2.655  -2.694   5.180  0.00  0.00    +0.177 HD
ENDROOT
BRANCH  14  16
ATOM     16  N   UNL     1      -2.252  -3.353   7.094  0.00  0.00    -0.188 NA
ATOM     17  C   UNL     1      -3.475  -3.283   7.522  0.00  0.00    +0.138 C 
BRANCH  17  18
ATOM     18  C   UNL     1      -3.793  -3.660   8.912  0.00  0.00    -0.005 A 
ATOM     19  C   UNL     1      -2.779  -4.088   9.772  0.00  0.00    +0.011 A 
ATOM     20  C   UNL     1      -3.083  -4.439  11.071  0.00  0.00    +0.020 A 
ATOM     21  C   UNL     1      -4.390  -4.368  11.523  0.00  0.00    +0.041 A 
ATOM     22  C   UNL     1      -5.400  -3.944  10.675  0.00  0.00    +0.020 A 
ATOM     23  C   UNL     1      -5.109  -3.584   9.376  0.00  0.00    +0.011 A 
ATOM     24 CL   UNL     1      -4.764  -4.811  13.159  0.00  0.00    -0.084 Cl
ENDBRANCH  17  18
ENDBRANCH  14  16
BRANCH   1  25
ATOM     25  C   UNL     1       0.763  -2.041   1.233  0.00  0.00    +0.124 C 
BRANCH  25  26
ATOM     26  C   UNL     1       0.742  -0.511   1.242  0.00  0.00    +0.021 C 
BRANCH  26  28
ATOM     27  C   UNL     1      -0.019   1.526   0.010  0.00  0.00    +0.004 C 
ATOM     28  C   UNL     1       0.002  -0.004   0.002  0.00  0.00    -0.002 C 
ENDBRANCH  26  28
ENDBRANCH  25  26
ENDBRANCH   1  25
TORSDOF 5
