REMARK  Name = ZINC66057847
REMARK  6 active torsions:
REMARK  status: ('A' for Active; 'I' for Inactive)
REMARK    1  A    between atoms: C_1  and  N_2
REMARK    2  A    between atoms: N_2  and  C_3
REMARK    3  A    between atoms: N_2  and  C_4
REMARK    4  A    between atoms: C_7  and  N_10
REMARK    5  A    between atoms: C_11  and  C_13
REMARK    6  A    between atoms: C_13  and  N_14
REMARK                            x       y       z     vdW  Elec       q    Type
REMARK                         _______ _______ _______ _____ _____    ______ ____
ROOT
ATOM      1  N   UNL     1      -8.367  -2.043   0.369  0.00  0.00    -0.215 N 
ATOM      2  C   UNL     1      -8.841  -1.556   1.534  0.00  0.00    +0.247 C 
ATOM      3  O   UNL     1      -8.433  -1.795   2.651  0.00  0.00    -0.273 OA
ATOM      4  C   UNL     1      -9.988  -0.648   1.155  0.00  0.00    +0.117 C 
ATOM      5  C   UNL     1     -11.294  -1.155   1.762  0.00  0.00    +0.040 C 
ATOM      6  C   UNL     1     -11.100  -1.317   3.268  0.00  0.00    +0.038 C 
ATOM      7  C   UNL     1     -10.513  -0.065   3.866  0.00  0.00    -0.044 A 
ATOM      8  C   UNL     1     -10.632   0.111   5.239  0.00  0.00    +0.004 A 
ATOM      9  C   UNL     1     -10.112   1.233   5.850  0.00  0.00    +0.000 A 
ATOM     10  C   UNL     1      -9.464   2.190   5.091  0.00  0.00    +0.000 A 
ATOM     11  C   UNL     1      -9.347   2.018   3.728  0.00  0.00    +0.004 A 
ATOM     12  C   UNL     1      -9.874   0.891   3.110  0.00  0.00    -0.042 A 
ATOM     13  C   UNL     1      -9.725   0.778   1.615  0.00  0.00    +0.070 C 
ATOM     14  N   UNL     1     -10.037  -0.726  -0.310  0.00  0.00    -0.285 N 
ATOM     15  C   UNL     1      -9.048  -1.563  -0.679  0.00  0.00    +0.310 C 
ATOM     16  O   UNL     1      -8.804  -1.853  -1.834  0.00  0.00    -0.252 OA
ATOM     17  H   UNL     1     -10.656  -0.264  -0.896  0.00  0.00    +0.151 HD
ENDROOT
BRANCH   1  18
ATOM     18  C   UNL     1      -7.243  -2.976   0.263  0.00  0.00    +0.214 C 
BRANCH  18  20
ATOM     19  N   UNL     1      -4.783  -2.854   0.031  0.00  0.00    -0.284 N 
ATOM     20  C   UNL     1      -5.956  -2.200   0.142  0.00  0.00    +0.235 C 
ATOM     21  O   UNL     1      -5.977  -0.988   0.144  0.00  0.00    -0.274 OA
ATOM     22  H   UNL     1      -4.772  -3.821  -0.047  0.00  0.00    +0.155 HD
BRANCH  19  26
ATOM     23  C   UNL     1      -1.199  -0.722   0.028  0.00  0.00    +0.029 A 
ATOM     24  C   UNL     1      -2.275  -0.270   0.780  0.00  0.00    +0.025 A 
ATOM     25  C   UNL     1      -3.462  -0.976   0.781  0.00  0.00    +0.025 A 
ATOM     26  C   UNL     1      -3.579  -2.138   0.030  0.00  0.00    +0.034 A 
ATOM     27  C   UNL     1      -2.503  -2.590  -0.722  0.00  0.00    +0.025 A 
ATOM     28  C   UNL     1      -1.318  -1.880  -0.729  0.00  0.00    +0.025 A 
BRANCH  23  30
ATOM     29  C   UNL     1       1.137  -0.480  -0.772  0.00  0.00    +0.129 C 
ATOM     30  N   UNL     1       0.004  -0.006   0.027  0.00  0.00    -0.336 N 
ATOM     31  C   UNL     1       0.129   1.216   0.825  0.00  0.00    +0.129 C 
ENDBRANCH  23  30
ENDBRANCH  19  26
ENDBRANCH  18  20
ENDBRANCH   1  18
TORSDOF 4
