REMARK  Name = ZINC08549098
REMARK  5 active torsions:
REMARK  status: ('A' for Active; 'I' for Inactive)
REMARK    1  A    between atoms: C_1  and  C_2
REMARK    2  A    between atoms: C_4  and  C_20
REMARK    3  A    between atoms: C_6  and  O_8
REMARK    4  A    between atoms: O_8  and  S_9
REMARK    5  A    between atoms: S_9  and  C_12
REMARK                            x       y       z     vdW  Elec       q    Type
REMARK                         _______ _______ _______ _____ _____    ______ ____
ROOT
ATOM      1  S   UNL     1       1.365   1.993  -0.000  0.00  0.00    +0.152 S 
ATOM      2  O   UNL     1       1.172   3.383   0.219  0.00  0.00    -0.131 OA
ATOM      3  O   UNL     1       2.187   1.196   0.842  0.00  0.00    -0.131 OA
ENDROOT
BRANCH   1   4
ATOM      4  C   UNL     1       2.006   1.824  -1.633  0.00  0.00    +0.147 A 
ATOM      5  C   UNL     1       1.773   2.808  -2.583  0.00  0.00    +0.050 A 
ATOM      6  C   UNL     1       2.296   2.634  -3.855  0.00  0.00    +0.057 A 
ATOM      7  C   UNL     1       3.028   1.491  -4.133  0.00  0.00    +0.143 A 
ATOM      8  N   UNL     1       3.228   0.577  -3.203  0.00  0.00    -0.240 NA
ATOM      9  C   UNL     1       2.750   0.714  -1.981  0.00  0.00    +0.143 A 
ATOM     10 CL   UNL     1       3.689   1.260  -5.721  0.00  0.00    -0.061 Cl
ATOM     11 BR   UNL     1       2.014   3.939  -5.194  0.00  0.00    -0.047 Br
ENDBRANCH   1   4
BRANCH   1  12
ATOM     12  O   UNL     1      -0.016   1.355   0.009  0.00  0.00    -0.342 OA
BRANCH  12  18
ATOM     13  C   UNL     1       0.018  -2.822  -2.515  0.00  0.00    +0.044 C 
ATOM     14  C   UNL     1       0.019  -2.074  -1.207  0.00  0.00    -0.047 A 
ATOM     15  C   UNL     1       0.040  -2.770  -0.013  0.00  0.00    +0.007 A 
ATOM     16  C   UNL     1       0.042  -2.087   1.189  0.00  0.00    -0.047 A 
ATOM     17  C   UNL     1       0.023  -0.705   1.199  0.00  0.00    +0.052 A 
ATOM     18  C   UNL     1       0.002  -0.004   0.002  0.00  0.00    +0.157 A 
ATOM     19  C   UNL     1      -0.006  -0.692  -1.202  0.00  0.00    +0.052 A 
ATOM     20  C   UNL     1       0.065  -2.849   2.488  0.00  0.00    +0.044 C 
ENDBRANCH  12  18
ENDBRANCH   1  12
TORSDOF 3
