REMARK  Name = ZINC14540543
REMARK  12 active torsions:
REMARK  status: ('A' for Active; 'I' for Inactive)
REMARK    1  A    between atoms: C_1  and  C_2
REMARK    2  A    between atoms: C_3  and  C_8
REMARK    3  A    between atoms: C_4  and  C_7
REMARK    4  A    between atoms: C_8  and  O_9
REMARK    5  A    between atoms: O_9  and  C_10
REMARK    6  A    between atoms: N_16  and  C_18
REMARK    7  A    between atoms: C_18  and  C_19
REMARK    8  A    between atoms: C_19  and  C_20
REMARK    9  A    between atoms: C_19  and  C_21
REMARK   10  A    between atoms: C_22  and  C_23
REMARK   11  A    between atoms: C_22  and  N_66
REMARK   12  A    between atoms: N_25  and  C_32
REMARK                            x       y       z     vdW  Elec       q    Type
REMARK                         _______ _______ _______ _____ _____    ______ ____
ROOT
ATOM      1  C   UNL     1       1.438  -0.126  -1.995  0.00  0.00    +0.120 C 
ATOM      2  C   UNL     1       0.137  -0.516  -1.320  0.00  0.00    -0.044 C 
ATOM      3  C   UNL     1      -0.245   1.544  -0.084  0.00  0.00    +0.019 C 
ATOM      4  C   UNL     1       1.114   2.212  -0.099  0.00  0.00    +0.199 C 
ATOM      5  O   UNL     1       1.493   2.831   0.872  0.00  0.00    -0.278 OA
ATOM      6  N   UNL     1       1.895   2.123  -1.179  0.00  0.00    -0.300 N 
ATOM      7  C   UNL     1       1.438   1.362  -2.354  0.00  0.00    +0.137 C 
ATOM      8  N   UNL     1      -0.027   0.081   0.021  0.00  0.00    +0.390 N 
ATOM      9  H   UNL     1       0.828  -0.088   0.564  0.00  0.00    -0.081 HD
ENDROOT
BRANCH   1  10
ATOM     10  O   UNL     1       1.597  -0.897  -3.188  0.00  0.00    -0.372 OA
BRANCH  10  11
ATOM     11  C   UNL     1       2.959  -1.151  -3.538  0.00  0.00    +0.200 C 
BRANCH  11  14
ATOM     12  C   UNL     1       3.070  -0.063  -6.593  0.00  0.00    +0.069 C 
ATOM     13  C   UNL     1       3.058  -1.500  -6.139  0.00  0.00    +0.086 A 
ATOM     14  C   UNL     1       3.009  -1.966  -4.805  0.00  0.00    +0.042 A 
ATOM     15  C   UNL     1       3.024  -3.315  -4.928  0.00  0.00    +0.140 A 
ATOM     16  O   UNL     1       3.069  -3.575  -6.242  0.00  0.00    -0.359 OA
ATOM     17  N   UNL     1       3.090  -2.558  -6.896  0.00  0.00    -0.083 NA
ATOM     18  C   UNL     1       2.993  -4.324  -3.809  0.00  0.00    +0.089 C 
ENDBRANCH  11  14
ENDBRANCH  10  11
ENDBRANCH   1  10
BRANCH   6  19
ATOM     19  C   UNL     1       3.204   2.781  -1.194  0.00  0.00    +0.110 C 
BRANCH  19  20
ATOM     20  C   UNL     1       3.053   4.204  -1.737  0.00  0.00    +0.000 C 
ATOM     21  C   UNL     1       4.395   4.933  -1.637  0.00  0.00    +0.009 C 
ATOM     22  C   UNL     1       2.612   4.147  -3.200  0.00  0.00    +0.009 C 
ENDBRANCH  19  20
ENDBRANCH   6  19
BRANCH   8  23
ATOM     23  C   UNL     1      -1.162  -0.550   0.712  0.00  0.00    -0.040 C 
BRANCH  23  24
ATOM     24  C   UNL     1      -1.008  -0.305   2.191  0.00  0.00    -0.039 A 
ATOM     25  C   UNL     1      -1.727   0.547   2.938  0.00  0.00    +0.088 A 
ATOM     26  N   UNL     1      -1.307   0.496   4.240  0.00  0.00    -0.349 N 
ATOM     27  C   UNL     1      -0.274  -0.406   4.363  0.00  0.00    +0.049 A 
ATOM     28  C   UNL     1      -0.042  -0.948   3.085  0.00  0.00    +0.001 A 
ATOM     29  C   UNL     1       0.961  -1.902   2.905  0.00  0.00    +0.010 A 
ATOM     30  C   UNL     1       1.714  -2.305   3.972  0.00  0.00    +0.001 A 
ATOM     31  C   UNL     1       1.488  -1.774   5.234  0.00  0.00    +0.002 A 
ATOM     32  C   UNL     1       0.503  -0.832   5.435  0.00  0.00    +0.026 A 
ATOM     33  C   UNL     1      -1.868   1.288   5.337  0.00  0.00    +0.149 C 
ENDBRANCH  23  24
ENDBRANCH   8  23
TORSDOF 7
