REMARK  Name = ZINC45971473
REMARK  5 active torsions:
REMARK  status: ('A' for Active; 'I' for Inactive)
REMARK    1  A    between atoms: C_6  and  C_7
REMARK    2  A    between atoms: C_13  and  S_19
REMARK    3  A    between atoms: S_19  and  C_20
REMARK    4  A    between atoms: C_20  and  C_21
REMARK    5  A    between atoms: N_23  and  C_24
REMARK                            x       y       z     vdW  Elec       q    Type
REMARK                         _______ _______ _______ _____ _____    ______ ____
ROOT
ATOM      1  C   UNL     1      -1.276  -0.763  -0.079  0.00  0.00    +0.094 A 
ATOM      2  C   UNL     1      -1.394  -2.160  -0.072  0.00  0.00    +0.061 A 
ATOM      3  C   UNL     1      -2.736  -2.463  -0.052  0.00  0.00    +0.112 A 
ATOM      4  C   UNL     1      -3.492  -3.718  -0.036  0.00  0.00    +0.187 A 
ATOM      5  N   UNL     1      -3.167  -4.989  -0.035  0.00  0.00    -0.126 NA
ATOM      6  N   UNL     1      -4.232  -5.711  -0.017  0.00  0.00    -0.122 NA
ATOM      7  C   UNL     1      -5.301  -4.944  -0.004  0.00  0.00    +0.196 A 
ATOM      8  N   UNL     1      -4.871  -3.652  -0.016  0.00  0.00    -0.274 N 
ATOM      9  C   UNL     1      -5.502  -2.422  -0.011  0.00  0.00    +0.115 A 
ATOM     10  C   UNL     1      -4.812  -1.288  -0.026  0.00  0.00    +0.131 A 
ATOM     11  N   UNL     1      -3.427  -1.277  -0.046  0.00  0.00    -0.234 N 
ATOM     12  N   UNL     1      -2.488  -0.240  -0.058  0.00  0.00    -0.166 NA
ENDROOT
BRANCH   1  18
ATOM     13  C   UNL     1      -0.023   1.393  -0.099  0.00  0.00    +0.011 A 
ATOM     14  C   UNL     1       1.164   2.097  -0.118  0.00  0.00    +0.020 A 
ATOM     15  C   UNL     1       2.372   1.422  -0.139  0.00  0.00    +0.041 A 
ATOM     16  C   UNL     1       2.397   0.038  -0.140  0.00  0.00    +0.020 A 
ATOM     17  C   UNL     1       1.216  -0.676  -0.121  0.00  0.00    +0.011 A 
ATOM     18  C   UNL     1      -0.003  -0.001  -0.100  0.00  0.00    +0.002 A 
ATOM     19 CL   UNL     1       3.861   2.314  -0.164  0.00  0.00    -0.084 Cl
ENDBRANCH   1  18
BRANCH   7  20
ATOM     20  S   UNL     1      -6.977  -5.488   0.023  0.00  0.00    -0.076 S 
BRANCH  20  21
ATOM     21  C   UNL     1      -6.851  -7.298   0.029  0.00  0.00    +0.173 C 
BRANCH  21  22
ATOM     22  C   UNL     1      -8.234  -7.897   0.052  0.00  0.00    +0.228 C 
ATOM     23  O   UNL     1      -9.208  -7.175   0.063  0.00  0.00    -0.275 OA
ATOM     24  N   UNL     1      -8.388  -9.236   0.061  0.00  0.00    -0.283 N 
ATOM     25  H   UNL     1      -7.612  -9.814  -0.013  0.00  0.00    +0.155 HD
BRANCH  24  26
ATOM     26  C   UNL     1      -9.668  -9.793   0.176  0.00  0.00    +0.069 A 
ATOM     27  C   UNL     1     -10.757  -9.160  -0.407  0.00  0.00    +0.029 A 
ATOM     28  C   UNL     1     -12.019  -9.711  -0.292  0.00  0.00    +0.040 A 
ATOM     29  C   UNL     1     -12.199 -10.894   0.404  0.00  0.00    +0.126 A 
ATOM     30  C   UNL     1     -11.115 -11.529   0.988  0.00  0.00    +0.078 A 
ATOM     31  C   UNL     1      -9.849 -10.985   0.870  0.00  0.00    +0.147 A 
ATOM     32  F   UNL     1      -8.791 -11.606   1.434  0.00  0.00    -0.203 F 
ATOM     33  F   UNL     1     -13.434 -11.431   0.515  0.00  0.00    -0.205 F 
ENDBRANCH  24  26
ENDBRANCH  21  22
ENDBRANCH  20  21
ENDBRANCH   7  20
TORSDOF 5
