REMARK  Name = ZINC37759255
REMARK  4 active torsions:
REMARK  status: ('A' for Active; 'I' for Inactive)
REMARK    1  A    between atoms: C_6  and  O_7
REMARK    2  A    between atoms: O_7  and  C_8
REMARK    3  A    between atoms: C_9  and  C_15
REMARK    4  A    between atoms: C_11  and  N_14
REMARK                            x       y       z     vdW  Elec       q    Type
REMARK                         _______ _______ _______ _____ _____    ______ ____
ROOT
ATOM      1  C   UNL     1      -1.101  -2.050  -0.102  0.00  0.00    +0.238 A 
ATOM      2  C   UNL     1      -2.285  -2.796  -0.210  0.00  0.00    +0.115 A 
ATOM      3  C   UNL     1      -2.199  -4.188  -0.325  0.00  0.00    +0.048 A 
ATOM      4  C   UNL     1      -0.938  -4.771  -0.327  0.00  0.00    +0.044 A 
ATOM      5  C   UNL     1       0.186  -3.962  -0.216  0.00  0.00    +0.137 A 
ATOM      6  N   UNL     1       0.075  -2.652  -0.115  0.00  0.00    -0.218 NA
ENDROOT
BRANCH   4   7
ATOM      7  N   UNL     1      -0.801  -6.160  -0.440  0.00  0.00    -0.357 N 
ATOM      8  H   UNL     1      -1.590  -6.720  -0.516  0.00  0.00    +0.142 HD
ATOM      9  H   UNL     1       0.081  -6.562  -0.441  0.00  0.00    +0.142 HD
ENDBRANCH   4   7
BRANCH   2  10
ATOM     10  C   UNL     1      -3.560  -2.143  -0.202  0.00  0.00    +0.105 C 
ATOM     11  N   UNL     1      -4.571  -1.626  -0.196  0.00  0.00    -0.191 NA
ENDBRANCH   2  10
BRANCH   1  12
ATOM     12  O   UNL     1      -1.165  -0.701   0.010  0.00  0.00    -0.437 OA
BRANCH  12  18
ATOM     13  C   UNL     1       0.678   0.208  -1.189  0.00  0.00    +0.047 A 
ATOM     14  C   UNL     1       1.864   0.917  -1.193  0.00  0.00    +0.019 A 
ATOM     15  C   UNL     1       2.378   1.414  -0.009  0.00  0.00    +0.018 A 
ATOM     16  C   UNL     1       1.705   1.203   1.182  0.00  0.00    +0.019 A 
ATOM     17  C   UNL     1       0.519   0.495   1.191  0.00  0.00    +0.047 A 
ATOM     18  C   UNL     1       0.002  -0.004   0.004  0.00  0.00    +0.130 A 
ATOM     19 BR   UNL     1       4.002   2.383  -0.017  0.00  0.00    -0.050 Br
ENDBRANCH  12  18
ENDBRANCH   1  12
TORSDOF 4
