REMARK  Name = ZINC25455088
REMARK  11 active torsions:
REMARK  status: ('A' for Active; 'I' for Inactive)
REMARK    1  A    between atoms: C_1  and  C_2
REMARK    2  A    between atoms: C_5  and  N_9
REMARK    3  A    between atoms: C_6  and  C_8
REMARK    4  A    between atoms: C_13  and  C_15
REMARK    5  A    between atoms: C_15  and  C_17
REMARK    6  A    between atoms: C_15  and  S_18
REMARK    7  A    between atoms: S_18  and  C_19
REMARK    8  A    between atoms: C_20  and  C_29
REMARK    9  A    between atoms: C_22  and  C_26
REMARK   10  A    between atoms: C_23  and  C_25
REMARK   11  A    between atoms: C_26  and  C_28
REMARK                            x       y       z     vdW  Elec       q    Type
REMARK                         _______ _______ _______ _____ _____    ______ ____
ROOT
ATOM      1  N   UNL     1      -1.328   1.511  -0.316  0.00  0.00    -0.269 N 
ATOM      2  C   UNL     1      -2.530   0.904  -0.359  0.00  0.00    +0.310 C 
ATOM      3  O   UNL     1      -2.599  -0.310  -0.348  0.00  0.00    -0.252 OA
ATOM      4  N   UNL     1      -3.656   1.642  -0.413  0.00  0.00    -0.239 N 
ATOM      5  C   UNL     1      -4.859   1.034  -0.455  0.00  0.00    +0.233 C 
ATOM      6  O   UNL     1      -4.927  -0.176  -0.445  0.00  0.00    -0.274 OA
ATOM      7  H   UNL     1      -1.268   2.607  -0.241  0.00  0.00    +0.156 HD
ATOM      8  H   UNL     1      -3.595   2.740  -0.422  0.00  0.00    +0.159 HD
ENDROOT
BRANCH   1  13
ATOM      9  C   UNL     1       3.417  -1.591  -0.543  0.00  0.00    +0.044 C 
ATOM     10  C   UNL     1       2.157  -0.766  -0.481  0.00  0.00    -0.050 A 
ATOM     11  C   UNL     1       1.036  -1.266   0.155  0.00  0.00    +0.005 A 
ATOM     12  C   UNL     1      -0.120  -0.513   0.213  0.00  0.00    +0.024 A 
ATOM     13  C   UNL     1      -0.156   0.748  -0.368  0.00  0.00    +0.038 A 
ATOM     14  C   UNL     1       0.972   1.247  -1.006  0.00  0.00    -0.029 A 
ATOM     15  C   UNL     1       2.125   0.488  -1.061  0.00  0.00    +0.008 A 
ATOM     16  C   UNL     1       0.938   2.615  -1.639  0.00  0.00    +0.045 C 
ENDBRANCH   1  13
BRANCH   5  17
ATOM     17  C   UNL     1      -6.118   1.860  -0.515  0.00  0.00    +0.136 C 
ATOM     18  C   UNL     1      -6.417   2.228  -1.970  0.00  0.00    +0.029 C 
BRANCH  17  19
ATOM     19  S   UNL     1      -7.499   0.904   0.161  0.00  0.00    -0.092 S 
BRANCH  19  20
ATOM     20  C   UNL     1      -8.769   2.124   0.111  0.00  0.00    +0.115 A 
ATOM     21  C   UNL     1     -10.065   1.800   0.562  0.00  0.00    +0.084 A 
ATOM     22  C   UNL     1     -11.058   2.776   0.516  0.00  0.00    +0.034 A 
ATOM     23  C   UNL     1     -10.720   4.044   0.020  0.00  0.00    +0.039 A 
ATOM     24  C   UNL     1      -9.408   4.282  -0.408  0.00  0.00    +0.050 A 
ATOM     25  N   UNL     1      -8.494   3.339  -0.346  0.00  0.00    -0.244 NA
ATOM     26  C   UNL     1      -9.036   5.642  -0.943  0.00  0.00    +0.066 C 
BRANCH  23  27
ATOM     27  C   UNL     1     -11.729   5.108  -0.051  0.00  0.00    +0.162 C 
ATOM     28  O   UNL     1     -11.448   6.180  -0.544  0.00  0.00    -0.292 OA
ATOM     29  C   UNL     1     -13.115   4.869   0.491  0.00  0.00    +0.091 C 
ENDBRANCH  23  27
BRANCH  21  30
ATOM     30  C   UNL     1     -10.355   0.490   1.060  0.00  0.00    +0.102 C 
ATOM     31  N   UNL     1     -10.586  -0.550   1.455  0.00  0.00    -0.191 NA
ENDBRANCH  21  30
ENDBRANCH  19  20
ENDBRANCH  17  19
ENDBRANCH   5  17
TORSDOF 6
