REMARK  Name = ZINC06888597
REMARK  4 active torsions:
REMARK  status: ('A' for Active; 'I' for Inactive)
REMARK    1  A    between atoms: C_7  and  O_11
REMARK    2  A    between atoms: O_11  and  C_12
REMARK    3  A    between atoms: C_12  and  C_13
REMARK    4  A    between atoms: N_18  and  C_19
REMARK                            x       y       z     vdW  Elec       q    Type
REMARK                         _______ _______ _______ _____ _____    ______ ____
ROOT
ATOM      1  C   UNL     1      -3.634   2.792   0.050  0.00  0.00    +0.326 C 
ENDROOT
BRANCH   1   2
ATOM      2  C   UNL     1      -4.873   3.649   0.066  0.00  0.00    +0.258 C 
ATOM      3  O   UNL     1      -4.775   4.857   0.070  0.00  0.00    -0.272 OA
ATOM      4  N   UNL     1      -6.091   3.072   0.074  0.00  0.00    -0.237 N 
ATOM      5  C   UNL     1      -7.200   3.838   0.088  0.00  0.00    +0.306 C 
ATOM      6  O   UNL     1      -7.101   5.049   0.093  0.00  0.00    -0.252 OA
ATOM      7  N   UNL     1      -8.418   3.261   0.096  0.00  0.00    -0.296 N 
ATOM      8  H   UNL     1      -6.170   2.105   0.070  0.00  0.00    +0.159 HD
ATOM      9  H   UNL     1      -8.496   2.294   0.092  0.00  0.00    +0.151 HD
BRANCH   7  10
ATOM     10  C   UNL     1      -9.623   4.093   0.111  0.00  0.00    +0.074 C 
ATOM     11  C   UNL     1      -9.958   4.480   1.553  0.00  0.00    +0.022 C 
ATOM     12  C   UNL     1     -11.217   5.350   1.569  0.00  0.00    +0.002 C 
ATOM     13  C   UNL     1     -12.385   4.567   0.966  0.00  0.00    +0.000 C 
ATOM     14  C   UNL     1     -12.050   4.181  -0.476  0.00  0.00    +0.002 C 
ATOM     15  C   UNL     1     -10.791   3.311  -0.491  0.00  0.00    +0.022 C 
ENDBRANCH   7  10
ENDBRANCH   1   2
BRANCH   1  16
ATOM     16  O   UNL     1      -2.476   3.630   0.043  0.00  0.00    -0.466 OA
BRANCH  16  23
ATOM     17  C   UNL     1      -0.069   5.162   0.028  0.00  0.00    +0.035 A 
ATOM     18  C   UNL     1       1.120   5.832   0.020  0.00  0.00    +0.043 A 
ATOM     19  C   UNL     1       2.330   5.142   0.006  0.00  0.00    +0.042 A 
ATOM     20  C   UNL     1       2.361   3.778  -0.001  0.00  0.00    +0.068 A 
ATOM     21  C   UNL     1       1.157   3.058   0.007  0.00  0.00    +0.096 A 
ATOM     22  C   UNL     1      -0.072   3.763   0.022  0.00  0.00    +0.065 A 
ATOM     23  C   UNL     1      -1.272   3.013   0.029  0.00  0.00    +0.226 A 
ATOM     24  N   UNL     1      -1.185   1.692   0.017  0.00  0.00    -0.201 NA
ATOM     25  C   UNL     1      -0.013   1.076   0.008  0.00  0.00    +0.225 A 
ATOM     26  N   UNL     1       1.131   1.718   0.001  0.00  0.00    -0.234 NA
ATOM     27 CL   UNL     1       3.880   2.939  -0.019  0.00  0.00    -0.081 Cl
ATOM     28 CL   UNL     1       1.125   7.568   0.028  0.00  0.00    -0.083 Cl
ENDBRANCH  16  23
ENDBRANCH   1  16
TORSDOF 4
