REMARK  Name = ZINC66880750
REMARK  7 active torsions:
REMARK  status: ('A' for Active; 'I' for Inactive)
REMARK    1  A    between atoms: C_1  and  C_2
REMARK    2  A    between atoms: C_2  and  S_3
REMARK    3  A    between atoms: S_3  and  N_6
REMARK    4  A    between atoms: N_6  and  C_7
REMARK    5  A    between atoms: N_6  and  C_8
REMARK    6  A    between atoms: N_11  and  C_14
REMARK    7  A    between atoms: C_14  and  C_15
REMARK                            x       y       z     vdW  Elec       q    Type
REMARK                         _______ _______ _______ _____ _____    ______ ____
ROOT
ATOM      1  C   UNL     1      -1.191  -6.366  -3.868  0.00  0.00    +0.019 C 
ENDROOT
BRANCH   1   2
ATOM      2  C   UNL     1       0.062  -7.202  -3.833  0.00  0.00    +0.204 C 
ATOM      3  O   UNL     1       0.824  -7.113  -2.893  0.00  0.00    -0.277 OA
ATOM      4  N   UNL     1       0.337  -8.049  -4.845  0.00  0.00    -0.262 N 
ATOM      5  C   UNL     1      -0.568  -8.171  -5.998  0.00  0.00    +0.209 C 
ATOM      6  C   UNL     1      -0.704  -9.627  -6.364  0.00  0.00    +0.235 C 
ATOM      7  O   UNL     1      -1.728 -10.022  -6.881  0.00  0.00    -0.274 OA
ATOM      8  N   UNL     1       0.297 -10.495  -6.124  0.00  0.00    -0.283 N 
ATOM      9  C   UNL     1       1.469 -10.076  -5.485  0.00  0.00    +0.055 A 
ATOM     10  C   UNL     1       1.497  -8.838  -4.835  0.00  0.00    +0.058 A 
ATOM     11  C   UNL     1       2.647  -8.409  -4.197  0.00  0.00    +0.025 A 
ATOM     12  C   UNL     1       3.777  -9.209  -4.208  0.00  0.00    +0.002 A 
ATOM     13  C   UNL     1       3.757 -10.430  -4.855  0.00  0.00    +0.002 A 
ATOM     14  C   UNL     1       2.603 -10.872  -5.491  0.00  0.00    +0.025 A 
ATOM     15  H   UNL     1       0.205 -11.421  -6.398  0.00  0.00    +0.155 HD
ENDBRANCH   1   2
BRANCH   1  19
ATOM     16  C   UNL     1      -1.489  -3.003  -1.269  0.00  0.00    +0.076 C 
ATOM     17  C   UNL     1      -2.646  -4.004  -1.341  0.00  0.00    +0.002 C 
ATOM     18  C   UNL     1      -2.535  -4.810  -2.637  0.00  0.00    -0.077 C 
ATOM     19  N   UNL     1      -1.259  -5.534  -2.660  0.00  0.00    +0.385 N 
ATOM     20  C   UNL     1      -0.144  -4.578  -2.663  0.00  0.00    -0.077 C 
ATOM     21  C   UNL     1      -0.163  -3.763  -1.368  0.00  0.00    +0.002 C 
ATOM     22  H   UNL     1      -1.193  -6.123  -1.844  0.00  0.00    -0.081 HD
BRANCH  16  23
ATOM     23  N   UNL     1      -1.545  -2.281   0.005  0.00  0.00    -0.181 NA
ATOM     24  C   UNL     1      -1.465  -3.017   1.269  0.00  0.00    +0.131 C 
BRANCH  23  25
ATOM     25  S   UNL     1      -1.700  -0.632   0.015  0.00  0.00    +0.032 S 
ATOM     26  O   UNL     1      -2.322  -0.334   1.257  0.00  0.00    -0.158 OA
ATOM     27  O   UNL     1      -2.346  -0.321  -1.212  0.00  0.00    -0.158 OA
BRANCH  25  29
ATOM     28  C   UNL     1      -0.019   1.526   0.010  0.00  0.00    +0.029 C 
ATOM     29  C   UNL     1       0.002  -0.004   0.002  0.00  0.00    +0.182 C 
ENDBRANCH  25  29
ENDBRANCH  23  25
ENDBRANCH  16  23
ENDBRANCH   1  19
TORSDOF 5
