REMARK  Name = ZINC12747793
REMARK  7 active torsions:
REMARK  status: ('A' for Active; 'I' for Inactive)
REMARK    1  A    between atoms: C_1  and  C_2
REMARK    2  A    between atoms: C_5  and  N_28
REMARK    3  A    between atoms: C_6  and  N_9
REMARK    4  A    between atoms: C_7  and  C_8
REMARK    5  A    between atoms: C_10  and  C_12
REMARK    6  A    between atoms: C_12  and  N_53
REMARK    7  A    between atoms: C_20  and  C_22
REMARK                            x       y       z     vdW  Elec       q    Type
REMARK                         _______ _______ _______ _____ _____    ______ ____
ROOT
ATOM      1  C   UNL     1      -0.165   1.128   0.536  0.00  0.00    +0.020 C 
ENDROOT
BRANCH   1  10
ATOM      2  C   UNL     1      -1.830   2.830   0.981  0.00  0.00    -0.072 C 
ATOM      3  C   UNL     1      -3.268   3.228   0.607  0.00  0.00    +0.024 C 
ATOM      4  C   UNL     1      -3.302   3.478  -0.866  0.00  0.00    -0.010 A 
ATOM      5  C   UNL     1      -2.347   3.130  -1.773  0.00  0.00    -0.047 A 
ATOM      6  C   UNL     1      -2.595   3.471  -3.100  0.00  0.00    +0.010 A 
ATOM      7  C   UNL     1      -3.739   4.114  -3.431  0.00  0.00    +0.045 A 
ATOM      8  S   UNL     1      -4.544   4.275  -1.844  0.00  0.00    -0.101 S 
ATOM      9  C   UNL     1      -1.090   2.404  -1.302  0.00  0.00    -0.005 C 
ATOM     10  N   UNL     1      -1.375   1.796   0.020  0.00  0.00    +0.393 N 
ATOM     11  H   UNL     1      -2.119   1.097  -0.091  0.00  0.00    -0.080 HD
BRANCH   9  12
ATOM     12  C   UNL     1      -0.745   1.306  -2.275  0.00  0.00    -0.057 A 
ATOM     13  C   UNL     1      -1.426   0.104  -2.232  0.00  0.00    +0.002 A 
ATOM     14  C   UNL     1      -1.112  -0.901  -3.128  0.00  0.00    +0.000 A 
ATOM     15  C   UNL     1      -0.111  -0.707  -4.061  0.00  0.00    +0.000 A 
ATOM     16  C   UNL     1       0.573   0.493  -4.101  0.00  0.00    +0.000 A 
ATOM     17  C   UNL     1       0.257   1.500  -3.208  0.00  0.00    +0.002 A 
ENDBRANCH   9  12
ENDBRANCH   1  10
BRANCH   1  19
ATOM     18  N   UNL     1       2.167   1.698   1.133  0.00  0.00    -0.285 N 
ATOM     19  C   UNL     1       0.948   2.123   0.748  0.00  0.00    +0.201 C 
ATOM     20  O   UNL     1       0.745   3.306   0.571  0.00  0.00    -0.278 OA
ATOM     21  H   UNL     1       2.353   0.748   1.195  0.00  0.00    +0.155 HD
BRANCH  18  27
ATOM     22  C   UNL     1       4.946   5.528  -0.204  0.00  0.00    +0.044 C 
ATOM     23  C   UNL     1       4.533   4.495   0.813  0.00  0.00    -0.046 A 
ATOM     24  C   UNL     1       5.142   4.466   2.054  0.00  0.00    +0.006 A 
ATOM     25  C   UNL     1       4.766   3.520   2.990  0.00  0.00    +0.035 A 
ATOM     26  C   UNL     1       3.780   2.601   2.687  0.00  0.00    +0.148 A 
ATOM     27  C   UNL     1       3.167   2.628   1.442  0.00  0.00    +0.067 A 
ATOM     28  C   UNL     1       3.550   3.576   0.502  0.00  0.00    -0.024 A 
ATOM     29  C   UNL     1       2.891   3.605  -0.852  0.00  0.00    +0.046 C 
BRANCH  26  30
ATOM     30  N   UNL     1       3.379   1.589   3.690  0.00  0.00    +0.058 N 
ATOM     31  O   UNL     1       3.850   1.622   4.812  0.00  0.00    -0.126 OA
ATOM     32  O   UNL     1       2.576   0.722   3.392  0.00  0.00    -0.126 OA
ENDBRANCH  26  30
ENDBRANCH  18  27
ENDBRANCH   1  19
TORSDOF 5
