REMARK  Name = ZINC38710114
REMARK  3 active torsions:
REMARK  status: ('A' for Active; 'I' for Inactive)
REMARK    1  A    between atoms: C_1  and  C_2
REMARK    2  A    between atoms: C_5  and  C_8
REMARK    3  A    between atoms: C_11  and  C_23
REMARK                            x       y       z     vdW  Elec       q    Type
REMARK                         _______ _______ _______ _____ _____    ______ ____
ROOT
ATOM      1  C   UNL     1       0.059  -4.275  -0.021  0.00  0.00    +0.089 C 
ATOM      2  C   UNL     1       1.264  -4.790   0.725  0.00  0.00    +0.009 C 
ATOM      3  C   UNL     1       2.412  -4.249   1.059  0.00  0.00    +0.064 C 
ATOM      4  N   UNL     1       3.123  -5.099   1.842  0.00  0.00    -0.157 NA
ATOM      5  N   UNL     1       2.577  -6.192   2.041  0.00  0.00    -0.160 NA
ATOM      6  C   UNL     1       1.319  -6.209   1.290  0.00  0.00    +0.241 C 
ATOM      7  N   UNL     1       0.146  -6.329   2.173  0.00  0.00    -0.318 N 
ATOM      8  C   UNL     1      -1.018  -5.755   1.730  0.00  0.00    +0.055 C 
ATOM      9  C   UNL     1      -1.134  -4.826   0.745  0.00  0.00    +0.068 C 
ATOM     10  C   UNL     1      -2.481  -4.481   0.573  0.00  0.00    +0.338 C 
ATOM     11  O   UNL     1      -2.888  -3.668  -0.237  0.00  0.00    -0.245 OA
ATOM     12  O   UNL     1      -3.267  -5.170   1.426  0.00  0.00    -0.455 OA
ATOM     13  C   UNL     1      -2.417  -6.021   2.223  0.00  0.00    +0.283 C 
ATOM     14  C   UNL     1       2.874  -2.880   0.634  0.00  0.00    +0.067 C 
ATOM     15  H   UNL     1       0.195  -6.791   3.025  0.00  0.00    +0.148 HD
ENDROOT
BRANCH   1  20
ATOM     16  C   UNL     1      -0.018   1.503   0.010  0.00  0.00    +0.044 C 
ATOM     17  C   UNL     1       0.002  -0.004   0.002  0.00  0.00    -0.050 A 
ATOM     18  C   UNL     1       0.006  -0.689  -1.199  0.00  0.00    +0.003 A 
ATOM     19  C   UNL     1       0.025  -2.071  -1.206  0.00  0.00    +0.005 A 
ATOM     20  C   UNL     1       0.040  -2.768  -0.013  0.00  0.00    -0.035 A 
ATOM     21  C   UNL     1       0.037  -2.084   1.188  0.00  0.00    +0.005 A 
ATOM     22  C   UNL     1       0.023  -0.702   1.195  0.00  0.00    +0.003 A 
ENDBRANCH   1  20
TORSDOF 1
