REMARK  Name = ZINC06097327
REMARK  3 active torsions:
REMARK  status: ('A' for Active; 'I' for Inactive)
REMARK    1  A    between atoms: C_9  and  C_11
REMARK    2  A    between atoms: C_11  and  S_12
REMARK    3  A    between atoms: S_12  and  C_13
REMARK                            x       y       z     vdW  Elec       q    Type
REMARK                         _______ _______ _______ _____ _____    ______ ____
ROOT
ATOM      1  C   UNL     1       1.081   3.515   0.011  0.00  0.00    +0.133 C 
ENDROOT
BRANCH   1  10
ATOM      2  C   UNL     1       0.996  -2.119  -0.020  0.00  0.00    +0.104 A 
ATOM      3  C   UNL     1      -0.214  -2.676  -0.012  0.00  0.00    +0.067 A 
ATOM      4  S   UNL     1      -1.278  -1.241   0.007  0.00  0.00    -0.058 S 
ATOM      5  C   UNL     1       0.002  -0.004   0.002  0.00  0.00    +0.180 A 
ATOM      6  N   UNL     1       1.149  -0.753  -0.013  0.00  0.00    -0.262 N 
ATOM      7  C   UNL     1       2.327  -0.062  -0.020  0.00  0.00    +0.259 A 
ATOM      8  O   UNL     1       3.389  -0.665  -0.033  0.00  0.00    -0.267 OA
ATOM      9  C   UNL     1       2.316   1.333  -0.011  0.00  0.00    +0.095 A 
ATOM     10  C   UNL     1       1.114   2.008   0.002  0.00  0.00    +0.059 A 
ATOM     11  N   UNL     1      -0.016   1.306   0.009  0.00  0.00    -0.227 NA
ENDBRANCH   1  10
BRANCH   1  12
ATOM     12  S   UNL     1       0.610   4.117  -1.630  0.00  0.00    -0.080 S 
BRANCH  12  13
ATOM     13  C   UNL     1       0.649   5.854  -1.341  0.00  0.00    +0.192 A 
ATOM     14  N   UNL     1       0.950   6.454  -0.210  0.00  0.00    -0.122 NA
ATOM     15  N   UNL     1       0.883   7.731  -0.361  0.00  0.00    -0.134 NA
ATOM     16  C   UNL     1       0.544   8.016  -1.583  0.00  0.00    +0.134 A 
ATOM     17  N   UNL     1       0.379   6.834  -2.247  0.00  0.00    -0.306 N 
ATOM     18  C   UNL     1      -0.021   6.668  -3.644  0.00  0.00    +0.125 C 
ATOM     19  C   UNL     1       0.431   7.890  -4.448  0.00  0.00    +0.022 C 
ATOM     20  C   UNL     1      -0.659   8.959  -4.421  0.00  0.00    +0.002 C 
ATOM     21  C   UNL     1      -0.921   9.424  -2.992  0.00  0.00    +0.008 C 
ATOM     22  C   UNL     1       0.376   9.386  -2.188  0.00  0.00    +0.076 C 
ENDBRANCH  12  13
ENDBRANCH   1  12
TORSDOF 3
