REMARK  Name = ZINC08716298
REMARK  6 active torsions:
REMARK  status: ('A' for Active; 'I' for Inactive)
REMARK    1  A    between atoms: C_1  and  C_2
REMARK    2  A    between atoms: C_9  and  C_14
REMARK    3  A    between atoms: C_14  and  O_16
REMARK    4  A    between atoms: O_16  and  C_17
REMARK    5  A    between atoms: C_17  and  C_19
REMARK    6  A    between atoms: C_17  and  C_20
REMARK                            x       y       z     vdW  Elec       q    Type
REMARK                         _______ _______ _______ _____ _____    ______ ____
ROOT
ATOM      1  C   UNL     1      -4.152   5.581   1.000  0.00  0.00    +0.340 C 
ATOM      2  O   UNL     1      -5.011   4.812   1.383  0.00  0.00    -0.245 OA
ENDROOT
BRANCH   1  10
ATOM      3  C   UNL     1       1.708   2.277   1.449  0.00  0.00    +0.029 C 
ATOM      4  C   UNL     1       1.303   1.933   0.014  0.00  0.00    +0.134 C 
ATOM      5  C   UNL     1      -0.013   1.205   0.023  0.00  0.00    +0.230 C 
ATOM      6  O   UNL     1       0.004  -0.008   0.018  0.00  0.00    -0.274 OA
ATOM      7  N   UNL     1      -1.194   1.817   0.030  0.00  0.00    -0.284 N 
ATOM      8  C   UNL     1      -1.409   3.193   0.054  0.00  0.00    +0.048 A 
ATOM      9  C   UNL     1      -2.623   3.686   0.505  0.00  0.00    +0.039 A 
ATOM     10  C   UNL     1      -2.859   5.062   0.521  0.00  0.00    +0.061 A 
ATOM     11  C   UNL     1      -1.871   5.949   0.081  0.00  0.00    +0.016 A 
ATOM     12  C   UNL     1      -0.663   5.461  -0.366  0.00  0.00    +0.017 A 
ATOM     13  C   UNL     1      -0.428   4.093  -0.381  0.00  0.00    +0.030 A 
ATOM     14  S   UNL     1       1.119   3.463  -0.951  0.00  0.00    -0.111 S 
ATOM     15  H   UNL     1      -1.981   1.251   0.023  0.00  0.00    +0.155 HD
ENDBRANCH   1  10
BRANCH   1  16
ATOM     16  O   UNL     1      -4.381   6.909   1.016  0.00  0.00    -0.449 OA
BRANCH  16  17
ATOM     17  C   UNL     1      -5.677   7.349   1.501  0.00  0.00    +0.259 C 
ATOM     18  C   UNL     1      -6.660   7.427   0.331  0.00  0.00    +0.062 C 
BRANCH  17  19
ATOM     19  C   UNL     1      -5.541   8.709   2.135  0.00  0.00    +0.259 C 
ATOM     20  O   UNL     1      -4.480   9.294   2.093  0.00  0.00    -0.271 OA
ATOM     21  N   UNL     1      -6.600   9.276   2.748  0.00  0.00    -0.267 N 
ATOM     22  C   UNL     1      -6.448  10.485   3.425  0.00  0.00    +0.125 A 
ATOM     23  C   UNL     1      -7.516  11.011   4.144  0.00  0.00    +0.045 A 
ATOM     24  C   UNL     1      -7.352  12.211   4.812  0.00  0.00    +0.025 A 
ATOM     25  C   UNL     1      -6.119  12.848   4.738  0.00  0.00    +0.059 A 
ATOM     26  C   UNL     1      -5.101  12.268   4.005  0.00  0.00    +0.132 A 
ATOM     27  N   UNL     1      -5.287  11.119   3.383  0.00  0.00    -0.239 NA
ATOM     28 CL   UNL     1      -5.860  14.357   5.556  0.00  0.00    -0.082 Cl
ATOM     29  H   UNL     1      -7.467   8.843   2.717  0.00  0.00    +0.156 HD
ENDBRANCH  17  19
ENDBRANCH  16  17
ENDBRANCH   1  16
TORSDOF 4
