REMARK  Name = ZINC14535580
REMARK  7 active torsions:
REMARK  status: ('A' for Active; 'I' for Inactive)
REMARK    1  A    between atoms: C_4  and  C_7
REMARK    2  A    between atoms: C_7  and  C_8
REMARK    3  A    between atoms: C_8  and  N_9
REMARK    4  A    between atoms: N_12  and  C_27
REMARK    5  A    between atoms: C_20  and  C_21
REMARK    6  A    between atoms: C_20  and  N_70
REMARK    7  A    between atoms: C_27  and  C_28
REMARK                            x       y       z     vdW  Elec       q    Type
REMARK                         _______ _______ _______ _____ _____    ______ ____
ROOT
ATOM      1  N   UNL     1       1.825   0.839  -0.744  0.00  0.00    -0.271 N 
ATOM      2  C   UNL     1       0.680   0.134  -0.808  0.00  0.00    +0.312 C 
ATOM      3  O   UNL     1       0.629  -1.079  -0.761  0.00  0.00    -0.252 OA
ATOM      4  N   UNL     1      -0.397   0.920  -0.929  0.00  0.00    -0.220 N 
ATOM      5  C   UNL     1      -0.059   2.226  -0.957  0.00  0.00    +0.247 C 
ATOM      6  O   UNL     1      -0.805   3.175  -1.063  0.00  0.00    -0.273 OA
ATOM      7  C   UNL     1       1.446   2.255  -0.835  0.00  0.00    +0.112 C 
ATOM      8  C   UNL     1       1.866   3.003   0.426  0.00  0.00    +0.017 C 
ATOM      9  C   UNL     1       3.394   3.040   0.509  0.00  0.00    -0.076 C 
ATOM     10  C   UNL     1       3.592   2.938  -1.905  0.00  0.00    -0.076 C 
ATOM     11  C   UNL     1       2.070   2.897  -2.070  0.00  0.00    +0.017 C 
ATOM     12  N   UNL     1       3.922   3.719  -0.694  0.00  0.00    +0.380 N 
ATOM     13  H   UNL     1       3.490   4.647  -0.769  0.00  0.00    -0.082 HD
ENDROOT
BRANCH   1  14
ATOM     14  C   UNL     1       3.181   0.301  -0.610  0.00  0.00    +0.115 C 
BRANCH  14  15
ATOM     15  C   UNL     1       3.556  -0.459  -1.883  0.00  0.00    +0.054 C 
BRANCH  15  19
ATOM     16  C   UNL     1       7.628  -1.728  -1.638  0.00  0.00    +0.000 A 
ATOM     17  C   UNL     1       6.619  -2.549  -1.169  0.00  0.00    +0.000 A 
ATOM     18  C   UNL     1       5.301  -2.138  -1.248  0.00  0.00    +0.004 A 
ATOM     19  C   UNL     1       4.993  -0.907  -1.796  0.00  0.00    -0.046 A 
ATOM     20  C   UNL     1       6.002  -0.089  -2.271  0.00  0.00    +0.004 A 
ATOM     21  C   UNL     1       7.319  -0.498  -2.186  0.00  0.00    +0.000 A 
ENDBRANCH  15  19
ENDBRANCH  14  15
ENDBRANCH   1  14
BRANCH  12  22
ATOM     22  C   UNL     1       5.386   3.880  -0.581  0.00  0.00    -0.075 C 
BRANCH  22  23
ATOM     23  C   UNL     1       5.710   4.581   0.740  0.00  0.00    -0.028 C 
ATOM     24  C   UNL     1       5.058   5.965   0.755  0.00  0.00    +0.002 C 
ATOM     25  C   UNL     1       5.382   6.666   2.076  0.00  0.00    +0.000 C 
ATOM     26  C   UNL     1       6.898   6.815   2.217  0.00  0.00    +0.000 C 
ATOM     27  C   UNL     1       7.550   5.431   2.201  0.00  0.00    +0.000 C 
ATOM     28  C   UNL     1       7.226   4.729   0.880  0.00  0.00    +0.002 C 
ENDBRANCH  22  23
ENDBRANCH  12  22
BRANCH   4  29
ATOM     29  C   UNL     1      -1.772   0.423  -1.022  0.00  0.00    +0.154 C 
BRANCH  29  30
ATOM     30  C   UNL     1      -2.127   0.193  -2.468  0.00  0.00    -0.011 A 
ATOM     31  C   UNL     1      -1.892  -1.039  -3.061  0.00  0.00    +0.008 A 
ATOM     32  C   UNL     1      -2.234  -1.205  -4.394  0.00  0.00    +0.020 A 
ATOM     33  C   UNL     1      -2.794  -0.146  -5.083  0.00  0.00    +0.111 A 
ATOM     34  N   UNL     1      -3.003   1.012  -4.487  0.00  0.00    -0.263 NA
ATOM     35  C   UNL     1      -2.696   1.204  -3.219  0.00  0.00    +0.116 A 
ENDBRANCH  29  30
ENDBRANCH   4  29
TORSDOF 7
