REMARK  Name = ZINC10377501
REMARK  5 active torsions:
REMARK  status: ('A' for Active; 'I' for Inactive)
REMARK    1  A    between atoms: C_1  and  C_2
REMARK    2  A    between atoms: C_5  and  N_8
REMARK    3  A    between atoms: C_12  and  S_13
REMARK    4  A    between atoms: S_13  and  C_14
REMARK    5  A    between atoms: C_14  and  C_15
REMARK                            x       y       z     vdW  Elec       q    Type
REMARK                         _______ _______ _______ _____ _____    ______ ____
ROOT
ATOM      1  N   UNL     1       3.696   3.444   1.207  0.00  0.00    -0.259 N 
ATOM      2  C   UNL     1       3.394   2.123   1.398  0.00  0.00    +0.225 A 
ATOM      3  N   UNL     1       4.519   1.464   1.518  0.00  0.00    -0.112 NA
ATOM      4  N   UNL     1       5.574   2.377   1.394  0.00  0.00    -0.120 NA
ATOM      5  C   UNL     1       5.059   3.569   1.210  0.00  0.00    +0.198 A 
ATOM      6  N   UNL     1       2.118   1.578   1.459  0.00  0.00    -0.299 N 
ATOM      7  C   UNL     1       1.921   0.578   0.402  0.00  0.00    +0.108 C 
ATOM      8  C   UNL     1       0.465   0.107   0.408  0.00  0.00    +0.019 C 
ATOM      9  C   UNL     1       0.135  -0.497   1.776  0.00  0.00    +0.003 C 
ATOM     10  C   UNL     1       0.394   0.549   2.864  0.00  0.00    +0.019 C 
ATOM     11  C   UNL     1       1.852   1.008   2.786  0.00  0.00    +0.108 C 
ENDROOT
BRANCH   1  16
ATOM     12  C   UNL     1      -0.042   7.661   0.524  0.00  0.00    +0.044 C 
ATOM     13  C   UNL     1       0.950   6.541   0.706  0.00  0.00    -0.050 A 
ATOM     14  C   UNL     1       1.744   6.500   1.837  0.00  0.00    +0.005 A 
ATOM     15  C   UNL     1       2.655   5.475   2.006  0.00  0.00    +0.026 A 
ATOM     16  C   UNL     1       2.772   4.486   1.038  0.00  0.00    +0.052 A 
ATOM     17  C   UNL     1       1.978   4.534  -0.099  0.00  0.00    +0.026 A 
ATOM     18  C   UNL     1       1.065   5.558  -0.260  0.00  0.00    +0.005 A 
ENDBRANCH   1  16
BRANCH   5  19
ATOM     19  S   UNL     1       5.963   5.067   1.002  0.00  0.00    -0.078 S 
BRANCH  19  20
ATOM     20  C   UNL     1       7.699   4.551   1.106  0.00  0.00    +0.151 C 
BRANCH  20  21
ATOM     21  C   UNL     1       8.592   5.753   0.942  0.00  0.00    +0.121 A 
ATOM     22  N   UNL     1       9.937   5.570   0.995  0.00  0.00    -0.310 N 
ATOM     23  H   UNL     1      10.295   4.679   1.136  0.00  0.00    +0.170 HD
ATOM     24  C   UNL     1      10.782   6.617   0.848  0.00  0.00    +0.259 A 
ATOM     25  O   UNL     1      11.989   6.466   0.889  0.00  0.00    -0.267 OA
ATOM     26  C   UNL     1      10.184   7.945   0.642  0.00  0.00    +0.066 A 
ATOM     27  C   UNL     1      10.966   9.088   0.485  0.00  0.00    +0.035 A 
ATOM     28  C   UNL     1      10.353  10.308   0.295  0.00  0.00    +0.042 A 
ATOM     29  C   UNL     1       8.967  10.405   0.259  0.00  0.00    +0.022 A 
ATOM     30  C   UNL     1       8.178   9.287   0.412  0.00  0.00    +0.030 A 
ATOM     31  C   UNL     1       8.776   8.040   0.607  0.00  0.00    +0.078 A 
ATOM     32  N   UNL     1       8.036   6.913   0.762  0.00  0.00    -0.233 NA
ATOM     33 CL   UNL     1      11.320  11.736   0.099  0.00  0.00    -0.084 Cl
ENDBRANCH  20  21
ENDBRANCH  19  20
ENDBRANCH   5  19
TORSDOF 4
