REMARK  Name = ZINC05635998
REMARK  6 active torsions:
REMARK  status: ('A' for Active; 'I' for Inactive)
REMARK    1  A    between atoms: C_3  and  C_6
REMARK    2  A    between atoms: N_7  and  N_8
REMARK    3  A    between atoms: C_9  and  C_11
REMARK    4  A    between atoms: C_16  and  C_17
REMARK    5  A    between atoms: C_16  and  N_46
REMARK    6  A    between atoms: C_20  and  N_23
REMARK                            x       y       z     vdW  Elec       q    Type
REMARK                         _______ _______ _______ _____ _____    ______ ____
ROOT
ATOM      1  C   UNL     1      -2.482   0.853   0.018  0.00  0.00    +0.073 C 
ATOM      2  C   UNL     1      -2.562  -0.016  -1.240  0.00  0.00    -0.006 C 
ATOM      3  C   UNL     1      -3.905  -0.750  -1.262  0.00  0.00    -0.078 C 
ATOM      4  C   UNL     1      -4.971   1.043  -0.030  0.00  0.00    -0.078 C 
ATOM      5  C   UNL     1      -3.660   1.831   0.029  0.00  0.00    -0.006 C 
ATOM      6  N   UNL     1      -4.996   0.247  -1.276  0.00  0.00    +0.382 N 
ATOM      7  H   UNL     1      -4.863   0.876  -2.076  0.00  0.00    -0.081 HD
ENDROOT
BRANCH   1   9
ATOM      8  N   UNL     1      -0.011   0.966   0.007  0.00  0.00    -0.207 N 
ATOM      9  C   UNL     1      -1.187   1.624   0.017  0.00  0.00    +0.235 C 
ATOM     10  O   UNL     1      -1.204   2.837   0.023  0.00  0.00    -0.274 OA
ATOM     11  H   UNL     1       0.002  -0.004   0.002  0.00  0.00    +0.177 HD
BRANCH   8  13
ATOM     12  C   UNL     1       2.328   1.048  -0.015  0.00  0.00    +0.145 C 
ATOM     13  N   UNL     1       1.193   1.683  -0.000  0.00  0.00    -0.187 NA
BRANCH  12  16
ATOM     14  C   UNL     1       5.917   2.233  -0.042  0.00  0.00    +0.008 A 
ATOM     15  C   UNL     1       4.887   1.322  -0.037  0.00  0.00    +0.017 A 
ATOM     16  C   UNL     1       3.587   1.798  -0.022  0.00  0.00    +0.032 A 
ATOM     17  S   UNL     1       3.845   3.565  -0.023  0.00  0.00    -0.096 S 
ATOM     18  C   UNL     1       5.630   3.561  -0.033  0.00  0.00    +0.046 A 
ENDBRANCH  12  16
ENDBRANCH   8  13
ENDBRANCH   1   9
BRANCH   6  19
ATOM     19  C   UNL     1      -6.300  -0.434  -1.413  0.00  0.00    -0.043 C 
BRANCH  19  20
ATOM     20  C   UNL     1      -6.381  -1.056  -2.783  0.00  0.00    -0.064 A 
ATOM     21  C   UNL     1      -6.888  -0.328  -3.843  0.00  0.00    +0.004 A 
ATOM     22  C   UNL     1      -6.958  -0.896  -5.101  0.00  0.00    +0.033 A 
ATOM     23  C   UNL     1      -6.531  -2.196  -5.297  0.00  0.00    +0.126 A 
ATOM     24  C   UNL     1      -6.029  -2.926  -4.236  0.00  0.00    +0.033 A 
ATOM     25  C   UNL     1      -5.955  -2.356  -2.979  0.00  0.00    +0.004 A 
BRANCH  23  26
ATOM     26  N   UNL     1      -6.610  -2.807  -6.643  0.00  0.00    +0.056 N 
ATOM     27  O   UNL     1      -6.234  -3.952  -6.816  0.00  0.00    -0.126 OA
ATOM     28  O   UNL     1      -7.053  -2.164  -7.578  0.00  0.00    -0.126 OA
ENDBRANCH  23  26
ENDBRANCH  19  20
ENDBRANCH   6  19
TORSDOF 6
