REMARK  Name = ZINC39201734
REMARK  4 active torsions:
REMARK  status: ('A' for Active; 'I' for Inactive)
REMARK    1  A    between atoms: C_4  and  C_7
REMARK    2  A    between atoms: C_8  and  C_16
REMARK    3  A    between atoms: C_16  and  N_17
REMARK    4  A    between atoms: C_20  and  C_23
REMARK                            x       y       z     vdW  Elec       q    Type
REMARK                         _______ _______ _______ _____ _____    ______ ____
ROOT
ATOM      1  N   UNL     1       3.029  -1.996   2.934  0.00  0.00    +0.383 N 
ATOM      2  C   UNL     1       4.398  -2.084   3.455  0.00  0.00    -0.078 C 
ATOM      3  C   UNL     1       4.478  -1.382   4.812  0.00  0.00    -0.006 C 
ATOM      4  C   UNL     1       3.513  -2.061   5.789  0.00  0.00    +0.072 C 
ATOM      5  C   UNL     1       2.100  -2.029   5.201  0.00  0.00    -0.006 C 
ATOM      6  C   UNL     1       2.108  -2.707   3.829  0.00  0.00    -0.078 C 
ATOM      7  H   UNL     1       2.756  -1.026   2.873  0.00  0.00    -0.081 HD
ENDROOT
BRANCH   4   8
ATOM      8  C   UNL     1       3.528  -1.327   7.105  0.00  0.00    +0.219 C 
ATOM      9  O   UNL     1       3.736  -0.132   7.130  0.00  0.00    -0.275 OA
ATOM     10  N   UNL     1       3.311  -1.997   8.254  0.00  0.00    -0.298 N 
ATOM     11  C   UNL     1       2.949  -3.421   8.236  0.00  0.00    +0.108 C 
ATOM     12  C   UNL     1       1.658  -3.616   9.037  0.00  0.00    +0.019 C 
ATOM     13  C   UNL     1       1.834  -3.026  10.438  0.00  0.00    +0.007 C 
ATOM     14  C   UNL     1       2.124  -1.529  10.326  0.00  0.00    +0.010 C 
ATOM     15  C   UNL     1       3.436  -1.322   9.556  0.00  0.00    +0.079 C 
ATOM     16  C   UNL     1       4.594  -1.959  10.327  0.00  0.00    +0.023 C 
ATOM     17  C   UNL     1       4.704  -1.320  11.712  0.00  0.00    +0.002 C 
ATOM     18  C   UNL     1       3.402  -1.553  12.483  0.00  0.00    +0.000 C 
ATOM     19  C   UNL     1       2.250  -0.913  11.718  0.00  0.00    +0.005 C 
ENDBRANCH   4   8
BRANCH   1  20
ATOM     20  C   UNL     1       2.975  -2.602   1.597  0.00  0.00    -0.022 C 
BRANCH  20  22
ATOM     21  C   UNL     1       3.456  -0.662  -0.007  0.00  0.00    +0.091 A 
ATOM     22  C   UNL     1       3.825  -1.799   0.647  0.00  0.00    +0.035 A 
ATOM     23  N   UNL     1       5.113  -2.073   0.278  0.00  0.00    -0.305 N 
ATOM     24  C   UNL     1       5.974  -3.076   0.620  0.00  0.00    +0.093 A 
ATOM     25  C   UNL     1       7.220  -3.119   0.103  0.00  0.00    +0.018 A 
ATOM     26  C   UNL     1       7.648  -2.128  -0.796  0.00  0.00    +0.005 A 
ATOM     27  C   UNL     1       6.801  -1.123  -1.145  0.00  0.00    +0.047 A 
ATOM     28  C   UNL     1       5.502  -1.092  -0.597  0.00  0.00    +0.138 A 
ATOM     29  N   UNL     1       4.489  -0.255  -0.761  0.00  0.00    -0.228 NA
BRANCH  21  33
ATOM     30  C   UNL     1      -0.329   1.255   0.276  0.00  0.00    +0.000 A 
ATOM     31  C   UNL     1       0.830   2.010   0.305  0.00  0.00    +0.001 A 
ATOM     32  C   UNL     1       2.061   1.393   0.213  0.00  0.00    +0.010 A 
ATOM     33  C   UNL     1       2.135   0.007   0.092  0.00  0.00    +0.002 A 
ATOM     34  C   UNL     1       0.964  -0.749   0.064  0.00  0.00    +0.010 A 
ATOM     35  C   UNL     1      -0.261  -0.121   0.155  0.00  0.00    +0.001 A 
ENDBRANCH  21  33
ENDBRANCH  20  22
ENDBRANCH   1  20
TORSDOF 4
