REMARK  Name = ZINC28506981
REMARK  5 active torsions:
REMARK  status: ('A' for Active; 'I' for Inactive)
REMARK    1  A    between atoms: C_4  and  C_7
REMARK    2  A    between atoms: C_9  and  C_12
REMARK    3  A    between atoms: C_12  and  N_13
REMARK    4  A    between atoms: C_19  and  C_21
REMARK    5  A    between atoms: C_21  and  N_22
REMARK                            x       y       z     vdW  Elec       q    Type
REMARK                         _______ _______ _______ _____ _____    ______ ____
ROOT
ATOM      1  N   UNL     1       5.364  -4.463   1.293  0.00  0.00    -0.294 NA
ATOM      2  C   UNL     1       6.484  -3.931   2.081  0.00  0.00    +0.104 C 
ATOM      3  C   UNL     1       6.314  -4.344   3.547  0.00  0.00    +0.123 C 
ATOM      4  N   UNL     1       6.152  -5.805   3.604  0.00  0.00    -0.298 N 
ATOM      5  C   UNL     1       5.139  -6.427   2.738  0.00  0.00    +0.123 C 
ATOM      6  C   UNL     1       5.355  -5.931   1.304  0.00  0.00    +0.104 C 
ATOM      7  C   UNL     1       6.910  -6.553   4.430  0.00  0.00    +0.237 C 
ATOM      8  O   UNL     1       7.740  -6.024   5.138  0.00  0.00    -0.274 OA
ENDROOT
BRANCH   1   9
ATOM      9  C   UNL     1       5.396  -3.947  -0.082  0.00  0.00    +0.140 C 
BRANCH   9  12
ATOM     10  C   UNL     1       3.696  -0.685  -0.037  0.00  0.00    +0.109 A 
ATOM     11  N   UNL     1       3.933  -1.989  -0.052  0.00  0.00    -0.243 NA
ATOM     12  C   UNL     1       5.158  -2.459  -0.066  0.00  0.00    +0.063 A 
ATOM     13  C   UNL     1       6.213  -1.600  -0.065  0.00  0.00    +0.071 A 
ATOM     14  S   UNL     1       5.359  -0.029  -0.051  0.00  0.00    -0.075 S 
BRANCH  10  18
ATOM     15  C   UNL     1      -0.017   1.379   0.010  0.00  0.00    +0.000 A 
ATOM     16  C   UNL     1       1.168   2.093   0.002  0.00  0.00    +0.001 A 
ATOM     17  C   UNL     1       2.377   1.429  -0.013  0.00  0.00    +0.010 A 
ATOM     18  C   UNL     1       2.403   0.034  -0.021  0.00  0.00    +0.007 A 
ATOM     19  C   UNL     1       1.204  -0.681  -0.013  0.00  0.00    +0.010 A 
ATOM     20  C   UNL     1       0.002  -0.004   0.002  0.00  0.00    +0.001 A 
ENDBRANCH  10  18
ENDBRANCH   9  12
ENDBRANCH   1   9
BRANCH   7  21
ATOM     21  C   UNL     1       6.726  -8.049   4.473  0.00  0.00    +0.243 C 
BRANCH  21  22
ATOM     22  N   UNL     1       7.661  -8.628   5.441  0.00  0.00    -0.220 N 
ATOM     23  C   UNL     1       7.273  -8.769   6.725  0.00  0.00    +0.275 A 
ATOM     24  O   UNL     1       6.161  -8.421   7.079  0.00  0.00    -0.266 OA
ATOM     25  C   UNL     1       8.216  -9.351   7.688  0.00  0.00    +0.050 A 
ATOM     26  C   UNL     1       7.887  -9.528   9.031  0.00  0.00    +0.014 A 
ATOM     27  C   UNL     1       8.814 -10.080   9.888  0.00  0.00    +0.001 A 
ATOM     28  C   UNL     1      10.068 -10.459   9.426  0.00  0.00    +0.001 A 
ATOM     29  C   UNL     1      10.413 -10.294   8.114  0.00  0.00    +0.010 A 
ATOM     30  C   UNL     1       9.494  -9.738   7.223  0.00  0.00    +0.007 A 
ATOM     31  C   UNL     1       9.812  -9.540   5.808  0.00  0.00    +0.141 A 
ATOM     32  N   UNL     1       8.927  -9.024   5.009  0.00  0.00    -0.176 NA
ENDBRANCH  21  22
ENDBRANCH   7  21
TORSDOF 5
