REMARK  Name = ZINC52094197
REMARK  2 active torsions:
REMARK  status: ('A' for Active; 'I' for Inactive)
REMARK    1  A    between atoms: C_2  and  C_14
REMARK    2  A    between atoms: C_14  and  C_16
REMARK                            x       y       z     vdW  Elec       q    Type
REMARK                         _______ _______ _______ _____ _____    ______ ____
ROOT
ATOM      1  C   UNL     1      -0.017   1.376   0.010  0.00  0.00    +0.040 A 
ATOM      2  C   UNL     1       1.190   2.087   0.002  0.00  0.00    +0.034 A 
ATOM      3  C   UNL     1       2.408   1.394  -0.013  0.00  0.00    +0.030 A 
ATOM      4  C   UNL     1       2.420   0.017  -0.021  0.00  0.00    +0.043 A 
ATOM      5  C   UNL     1       1.223  -0.689  -0.014  0.00  0.00    +0.068 A 
ATOM      6  C   UNL     1       0.002  -0.004   0.002  0.00  0.00    +0.068 A 
ATOM      7  N   UNL     1      -1.001  -0.972   0.006  0.00  0.00    -0.306 N 
ATOM      8  H   UNL     1      -1.956  -0.802   0.016  0.00  0.00    +0.170 HD
ATOM      9  C   UNL     1      -0.416  -2.185  -0.006  0.00  0.00    +0.325 A 
ATOM     10  O   UNL     1      -1.009  -3.248  -0.008  0.00  0.00    -0.247 OA
ATOM     11  N   UNL     1       0.922  -2.044  -0.019  0.00  0.00    -0.306 N 
ATOM     12  H   UNL     1       1.568  -2.768  -0.030  0.00  0.00    +0.170 HD
ATOM     13 BR   UNL     1       4.039   2.352  -0.024  0.00  0.00    -0.050 Br
ENDROOT
BRANCH   2  14
ATOM     14  C   UNL     1       1.178   3.555   0.009  0.00  0.00    +0.168 C 
ATOM     15  O   UNL     1       2.224   4.169   0.003  0.00  0.00    -0.292 OA
BRANCH  14  16
ATOM     16  C   UNL     1      -0.132   4.298   0.025  0.00  0.00    +0.064 C 
ATOM     17  C   UNL     1      -0.639   4.528  -1.417  0.00  0.00    +0.015 C 
ATOM     18  C   UNL     1      -0.703   6.079  -1.570  0.00  0.00    -0.010 C 
ATOM     19  C   UNL     1      -1.906   6.510  -0.677  0.00  0.00    +0.004 C 
ATOM     20  C   UNL     1      -1.419   6.280   0.772  0.00  0.00    +0.004 C 
ATOM     21  C   UNL     1       0.062   5.731   0.611  0.00  0.00    -0.000 C 
ATOM     22  C   UNL     1       0.516   6.508  -0.679  0.00  0.00    +0.007 C 
ENDBRANCH  14  16
ENDBRANCH   2  14
TORSDOF 2
