REMARK  Name = ZINC38552557
REMARK  7 active torsions:
REMARK  status: ('A' for Active; 'I' for Inactive)
REMARK    1  A    between atoms: C_1  and  C_2
REMARK    2  A    between atoms: C_2  and  C_3
REMARK    3  A    between atoms: C_2  and  S_4
REMARK    4  A    between atoms: S_4  and  C_7
REMARK    5  A    between atoms: C_10  and  C_13
REMARK    6  A    between atoms: C_13  and  C_14
REMARK    7  A    between atoms: C_25  and  C_28
REMARK                            x       y       z     vdW  Elec       q    Type
REMARK                         _______ _______ _______ _____ _____    ______ ____
ROOT
ATOM      1  C   UNL     1      -3.430   2.352  -5.713  0.00  0.00    +0.220 C 
ATOM      2  O   UNL     1      -2.266   2.298  -5.378  0.00  0.00    -0.275 OA
ATOM      3  N   UNL     1      -3.770   2.952  -6.871  0.00  0.00    -0.298 N 
ATOM      4  C   UNL     1      -5.178   3.031  -7.287  0.00  0.00    +0.126 C 
ATOM      5  C   UNL     1      -5.532   4.501  -7.541  0.00  0.00    +0.126 C 
ATOM      6  N   UNL     1      -4.503   5.089  -8.410  0.00  0.00    -0.307 N 
ATOM      7  C   UNL     1      -3.095   5.010  -7.994  0.00  0.00    +0.126 C 
ATOM      8  C   UNL     1      -2.741   3.545  -7.737  0.00  0.00    +0.126 C 
ATOM      9  C   UNL     1      -4.849   5.700  -9.589  0.00  0.00    +0.151 C 
ATOM     10  N   UNL     1      -6.034   5.504 -10.131  0.00  0.00    -0.258 N 
ATOM     11  N   UNL     1      -6.434   6.021 -11.218  0.00  0.00    -0.176 NA
ATOM     12  C   UNL     1      -5.748   6.536 -12.178  0.00  0.00    +0.079 C 
ATOM     13  C   UNL     1      -4.236   6.574 -12.161  0.00  0.00    +0.134 C 
ATOM     14  S   UNL     1      -3.719   6.780 -10.422  0.00  0.00    -0.085 S 
ATOM     15  H   UNL     1      -6.649   4.918  -9.662  0.00  0.00    +0.191 HD
ENDROOT
BRANCH  12  16
ATOM     16  C   UNL     1      -6.459   7.107 -13.333  0.00  0.00    -0.001 A 
ATOM     17  C   UNL     1      -5.741   7.668 -14.393  0.00  0.00    +0.010 A 
ATOM     18  C   UNL     1      -6.415   8.202 -15.472  0.00  0.00    +0.001 A 
ATOM     19  C   UNL     1      -7.798   8.182 -15.506  0.00  0.00    +0.000 A 
ATOM     20  C   UNL     1      -8.516   7.629 -14.460  0.00  0.00    +0.001 A 
ATOM     21  C   UNL     1      -7.857   7.086 -13.377  0.00  0.00    +0.010 A 
ENDBRANCH  12  16
BRANCH   1  22
ATOM     22  C   UNL     1      -4.496   1.749  -4.835  0.00  0.00    +0.131 C 
BRANCH  22  26
ATOM     23  C   UNL     1      -2.686   0.038  -1.365  0.00  0.00    +0.088 A 
ATOM     24  C   UNL     1      -3.095   1.359  -1.351  0.00  0.00    +0.027 A 
ATOM     25  C   UNL     1      -3.680   1.912  -2.474  0.00  0.00    +0.006 A 
ATOM     26  C   UNL     1      -3.857   1.145  -3.611  0.00  0.00    -0.039 A 
ATOM     27  C   UNL     1      -3.447  -0.175  -3.625  0.00  0.00    +0.006 A 
ATOM     28  C   UNL     1      -2.857  -0.727  -2.503  0.00  0.00    +0.027 A 
BRANCH  23  29
ATOM     29  S   UNL     1      -1.940  -0.667   0.067  0.00  0.00    -0.001 S 
ATOM     30  O   UNL     1      -2.204  -2.059  -0.035  0.00  0.00    -0.169 OA
ATOM     31  O   UNL     1      -2.454   0.090   1.155  0.00  0.00    -0.169 OA
BRANCH  29  33
ATOM     32  C   UNL     1       0.080   1.157  -0.210  0.00  0.00    +0.032 C 
ATOM     33  C   UNL     1      -0.164  -0.352  -0.129  0.00  0.00    +0.130 C 
ATOM     34  C   UNL     1       0.592  -0.927   1.070  0.00  0.00    +0.032 C 
ENDBRANCH  29  33
ENDBRANCH  23  29
ENDBRANCH  22  26
ENDBRANCH   1  22
TORSDOF 5
