REMARK  Name = ZINC57909443
REMARK  8 active torsions:
REMARK  status: ('A' for Active; 'I' for Inactive)
REMARK    1  A    between atoms: C_1  and  C_2
REMARK    2  A    between atoms: N_11  and  C_15
REMARK    3  A    between atoms: C_15  and  C_16
REMARK    4  A    between atoms: N_18  and  C_19
REMARK    5  A    between atoms: C_19  and  C_21
REMARK    6  A    between atoms: C_19  and  C_22
REMARK    7  A    between atoms: C_25  and  O_29
REMARK    8  A    between atoms: O_29  and  C_30
REMARK                            x       y       z     vdW  Elec       q    Type
REMARK                         _______ _______ _______ _____ _____    ______ ____
ROOT
ATOM      1  C   UNL     1       3.332   1.546   2.915  0.00  0.00    +0.213 C 
ENDROOT
BRANCH   1  11
ATOM      2  C   UNL     1      -0.019   1.526   0.010  0.00  0.00    +0.010 C 
ATOM      3  C   UNL     1       0.002  -0.004   0.002  0.00  0.00    +0.018 C 
ATOM      4  C   UNL     1       0.718  -0.497  -1.258  0.00  0.00    +0.006 C 
ATOM      5  C   UNL     1       0.756  -2.027  -1.256  0.00  0.00    +0.000 C 
ATOM      6  C   UNL     1       1.519  -2.517  -0.023  0.00  0.00    +0.003 C 
ATOM      7  C   UNL     1       0.807  -2.032   1.242  0.00  0.00    +0.035 C 
ATOM      8  C   UNL     1       0.739  -0.509   1.238  0.00  0.00    +0.115 C 
ATOM      9  C   UNL     1       2.128   0.083   1.303  0.00  0.00    +0.247 C 
ATOM     10  O   UNL     1       3.022  -0.055   0.496  0.00  0.00    -0.273 OA
ATOM     11  N   UNL     1       2.163   0.796   2.447  0.00  0.00    -0.215 N 
ATOM     12  C   UNL     1       0.998   0.734   3.103  0.00  0.00    +0.310 C 
ATOM     13  O   UNL     1       0.786   1.296   4.159  0.00  0.00    -0.252 OA
ATOM     14  N   UNL     1       0.086  -0.021   2.460  0.00  0.00    -0.285 N 
ATOM     15  H   UNL     1      -0.822  -0.205   2.747  0.00  0.00    +0.151 HD
ENDBRANCH   1  11
BRANCH   1  16
ATOM     16  C   UNL     1       3.277   2.951   2.373  0.00  0.00    +0.231 C 
ATOM     17  O   UNL     1       2.353   3.293   1.666  0.00  0.00    -0.274 OA
ATOM     18  N   UNL     1       4.255   3.827   2.674  0.00  0.00    -0.307 N 
ATOM     19  H   UNL     1       4.995   3.554   3.240  0.00  0.00    +0.149 HD
BRANCH  18  20
ATOM     20  C   UNL     1       4.202   5.194   2.148  0.00  0.00    +0.100 C 
ATOM     21  C   UNL     1       3.342   6.062   3.068  0.00  0.00    +0.033 C 
BRANCH  20  22
ATOM     22  C   UNL     1       5.597   5.761   2.081  0.00  0.00    -0.025 A 
ATOM     23  C   UNL     1       6.496   5.503   3.099  0.00  0.00    +0.009 A 
ATOM     24  C   UNL     1       7.776   6.022   3.042  0.00  0.00    +0.049 A 
ATOM     25  C   UNL     1       8.159   6.801   1.961  0.00  0.00    +0.155 A 
ATOM     26  C   UNL     1       7.255   7.059   0.939  0.00  0.00    +0.165 A 
ATOM     27  C   UNL     1       5.977   6.533   0.999  0.00  0.00    +0.047 A 
ATOM     28  F   UNL     1       7.625   7.818  -0.116  0.00  0.00    -0.202 F 
BRANCH  25  29
ATOM     29  O   UNL     1       9.417   7.313   1.903  0.00  0.00    -0.492 OA
ATOM     30  C   UNL     1      10.293   7.008   2.990  0.00  0.00    +0.277 C 
ENDBRANCH  25  29
ENDBRANCH  20  22
ENDBRANCH  18  20
ENDBRANCH   1  16
TORSDOF 5
