REMARK  Name = ZINC44766883
REMARK  6 active torsions:
REMARK  status: ('A' for Active; 'I' for Inactive)
REMARK    1  A    between atoms: C_1  and  N_2
REMARK    2  A    between atoms: N_2  and  C_3
REMARK    3  A    between atoms: N_2  and  C_4
REMARK    4  A    between atoms: C_4  and  C_5
REMARK    5  A    between atoms: C_11  and  C_13
REMARK    6  A    between atoms: C_13  and  C_19
REMARK                            x       y       z     vdW  Elec       q    Type
REMARK                         _______ _______ _______ _____ _____    ______ ____
ROOT
ATOM      1  C   UNL     1       0.255   0.101   2.273  0.00  0.00    -0.025 C 
ATOM      2  C   UNL     1       0.045   1.617   2.273  0.00  0.00    +0.021 C 
ATOM      3  C   UNL     1      -0.743   2.020   3.523  0.00  0.00    +0.108 C 
ATOM      4  N   UNL     1      -0.043   1.507   4.709  0.00  0.00    -0.300 N 
ATOM      5  C   UNL     1       0.289   0.077   4.770  0.00  0.00    +0.108 C 
ATOM      6  C   UNL     1       1.065  -0.304   3.506  0.00  0.00    +0.021 C 
ATOM      7  C   UNL     1       0.289   2.333   5.721  0.00  0.00    +0.236 C 
ATOM      8  O   UNL     1       0.095   3.526   5.619  0.00  0.00    -0.274 OA
ENDROOT
BRANCH   7   9
ATOM      9  C   UNL     1       0.902   1.775   6.979  0.00  0.00    +0.133 C 
ATOM     10  C   UNL     1      -0.056   0.759   7.606  0.00  0.00    +0.031 C 
ATOM     11  C   UNL     1       0.566   0.192   8.883  0.00  0.00    +0.002 C 
ATOM     12  C   UNL     1       0.822   1.329   9.874  0.00  0.00    +0.000 C 
ATOM     13  C   UNL     1       1.780   2.345   9.248  0.00  0.00    +0.002 C 
ATOM     14  C   UNL     1       1.158   2.912   7.970  0.00  0.00    +0.031 C 
BRANCH   9  15
ATOM     15  C   UNL     1       2.175   1.112   6.653  0.00  0.00    +0.079 C 
ATOM     16  N   UNL     1       3.158   0.600   6.401  0.00  0.00    -0.195 NA
ENDBRANCH   9  15
ENDBRANCH   7   9
BRANCH   1  17
ATOM     17  C   UNL     1       1.012  -0.309   1.008  0.00  0.00    -0.076 C 
BRANCH  17  19
ATOM     18  C   UNL     1      -0.249  -2.335   0.766  0.00  0.00    -0.097 C 
ATOM     19  N   UNL     1       1.097  -1.774   0.942  0.00  0.00    +0.376 N 
ATOM     20  C   UNL     1       1.942  -2.164  -0.194  0.00  0.00    -0.097 C 
ATOM     21  H   UNL     1       1.499  -2.127   1.797  0.00  0.00    -0.083 HD
ENDBRANCH  17  19
ENDBRANCH   1  17
TORSDOF 4
