REMARK  Name = ZINC06442552
REMARK  3 active torsions:
REMARK  status: ('A' for Active; 'I' for Inactive)
REMARK    1  A    between atoms: C_1  and  C_2
REMARK    2  A    between atoms: C_2  and  C_4
REMARK    3  A    between atoms: N_6  and  C_7
REMARK                            x       y       z     vdW  Elec       q    Type
REMARK                         _______ _______ _______ _____ _____    ______ ____
ROOT
ATOM      1  C   UNL     1      -0.098   5.350   0.026  0.00  0.00    +0.141 C 
ATOM      2  C   UNL     1      -0.053   3.846   0.021  0.00  0.00    +0.020 A 
ATOM      3  C   UNL     1      -1.239   3.132   0.029  0.00  0.00    +0.009 A 
ATOM      4  C   UNL     1      -1.219   1.751   0.017  0.00  0.00    +0.001 A 
ATOM      5  C   UNL     1      -0.013   1.076   0.008  0.00  0.00    +0.004 A 
ATOM      6  C   UNL     1       1.173   1.782   0.000  0.00  0.00    +0.046 A 
ATOM      7  C   UNL     1       1.157   3.172   0.007  0.00  0.00    +0.134 A 
ATOM      8  O   UNL     1       2.332   3.847   0.002  0.00  0.00    -0.455 OA
ATOM      9  C   UNL     1       2.376   5.137   0.413  0.00  0.00    +0.134 A 
ATOM     10  C   UNL     1       1.232   5.916   0.445  0.00  0.00    +0.020 A 
ATOM     11  C   UNL     1       1.305   7.233   0.865  0.00  0.00    +0.009 A 
ATOM     12  C   UNL     1       2.517   7.772   1.255  0.00  0.00    +0.001 A 
ATOM     13  C   UNL     1       3.660   6.996   1.226  0.00  0.00    +0.004 A 
ATOM     14  C   UNL     1       3.593   5.682   0.807  0.00  0.00    +0.046 A 
ENDROOT
BRANCH   1  17
ATOM     15  C   UNL     1      -1.712   7.004   0.797  0.00  0.00    +0.231 C 
ATOM     16  O   UNL     1      -1.379   7.716  -0.127  0.00  0.00    -0.274 OA
ATOM     17  N   UNL     1      -1.131   5.800   0.962  0.00  0.00    -0.303 N 
ATOM     18  H   UNL     1      -1.397   5.230   1.701  0.00  0.00    +0.150 HD
BRANCH  15  20
ATOM     19  C   UNL     1      -2.509   8.922   2.151  0.00  0.00    +0.034 C 
ATOM     20  C   UNL     1      -2.774   7.467   1.760  0.00  0.00    +0.163 C 
ATOM     21 CL   UNL     1      -4.393   7.341   0.975  0.00  0.00    -0.112 Cl
ENDBRANCH  15  20
ENDBRANCH   1  17
TORSDOF 2
