REMARK  Name = ZINC38913039
REMARK  4 active torsions:
REMARK  status: ('A' for Active; 'I' for Inactive)
REMARK    1  A    between atoms: C_1  and  C_2
REMARK    2  A    between atoms: C_5  and  C_8
REMARK    3  A    between atoms: C_10  and  C_13
REMARK    4  A    between atoms: N_18  and  C_20
REMARK                            x       y       z     vdW  Elec       q    Type
REMARK                         _______ _______ _______ _____ _____    ______ ____
ROOT
ATOM      1  C   UNL     1       0.097  -7.480   1.632  0.00  0.00    +0.104 C 
ATOM      2  C   UNL     1       1.303  -8.406   1.351  0.00  0.00    +0.111 C 
ATOM      3  C   UNL     1       0.761  -9.800   1.574  0.00  0.00    +0.221 C 
ATOM      4  O   UNL     1       1.441 -10.793   1.730  0.00  0.00    -0.275 OA
ATOM      5  N   UNL     1      -0.583  -9.779   1.576  0.00  0.00    -0.271 N 
ATOM      6  C   UNL     1      -1.095  -8.422   1.352  0.00  0.00    +0.127 C 
ENDROOT
BRANCH   5   7
ATOM      7  C   UNL     1      -1.390 -10.906   1.766  0.00  0.00    +0.037 A 
ATOM      8  C   UNL     1      -2.768 -10.767   1.863  0.00  0.00    +0.024 A 
ATOM      9  C   UNL     1      -3.560 -11.882   2.051  0.00  0.00    +0.006 A 
ATOM     10  C   UNL     1      -2.985 -13.140   2.143  0.00  0.00    -0.044 A 
ATOM     11  C   UNL     1      -1.613 -13.281   2.046  0.00  0.00    -0.042 A 
ATOM     12  C   UNL     1      -0.816 -12.166   1.853  0.00  0.00    +0.027 A 
ATOM     13  C   UNL     1      -1.239 -14.742   2.178  0.00  0.00    +0.036 C 
ATOM     14  C   UNL     1      -2.477 -15.422   2.798  0.00  0.00    +0.009 C 
ATOM     15  C   UNL     1      -3.626 -14.496   2.345  0.00  0.00    +0.036 C 
ENDBRANCH   5   7
BRANCH   1  18
ATOM     16  C   UNL     1       0.066  -4.267  -0.054  0.00  0.00    +0.202 A 
ATOM     17  N   UNL     1       0.067  -5.049   1.040  0.00  0.00    -0.191 NA
ATOM     18  C   UNL     1       0.088  -6.304   0.690  0.00  0.00    +0.233 A 
ATOM     19  O   UNL     1       0.102  -6.372  -0.647  0.00  0.00    -0.337 OA
ATOM     20  N   UNL     1       0.082  -5.033  -1.117  0.00  0.00    -0.056 NA
BRANCH  16  25
ATOM     21  C   UNL     1      -0.021   1.492  -0.065  0.00  0.00    +0.044 C 
ATOM     22  C   UNL     1       0.002  -0.015  -0.062  0.00  0.00    -0.050 A 
ATOM     23  C   UNL     1       0.018  -0.706  -1.260  0.00  0.00    +0.004 A 
ATOM     24  C   UNL     1       0.040  -2.086  -1.263  0.00  0.00    +0.012 A 
ATOM     25  C   UNL     1       0.044  -2.783  -0.057  0.00  0.00    +0.022 A 
ATOM     26  C   UNL     1       0.027  -2.082   1.147  0.00  0.00    +0.012 A 
ATOM     27  C   UNL     1       0.012  -0.701   1.139  0.00  0.00    +0.004 A 
ENDBRANCH  16  25
ENDBRANCH   1  18
TORSDOF 3
