REMARK  Name = ZINC31820484
REMARK  2 active torsions:
REMARK  status: ('A' for Active; 'I' for Inactive)
REMARK    1  A    between atoms: C_4  and  N_7
REMARK    2  A    between atoms: C_16  and  C_18
REMARK                            x       y       z     vdW  Elec       q    Type
REMARK                         _______ _______ _______ _____ _____    ______ ____
ROOT
ATOM      1  N   UNL     1       3.624  -0.652  -0.037  0.00  0.00    -0.287 N 
ATOM      2  C   UNL     1       4.673  -0.425  -0.884  0.00  0.00    +0.205 A 
ATOM      3  N   UNL     1       5.638  -1.259  -0.591  0.00  0.00    -0.238 NA
ATOM      4  C   UNL     1       5.259  -2.032   0.424  0.00  0.00    +0.089 A 
ATOM      5  C   UNL     1       3.999  -1.665   0.790  0.00  0.00    +0.133 A 
ATOM      6  N   UNL     1       3.317  -2.291   1.834  0.00  0.00    -0.270 N 
ATOM      7  C   UNL     1       4.027  -3.084   2.667  0.00  0.00    +0.219 C 
ATOM      8  O   UNL     1       3.437  -3.729   3.508  0.00  0.00    -0.275 OA
ATOM      9  C   UNL     1       5.522  -3.193   2.585  0.00  0.00    +0.110 C 
ATOM     10  C   UNL     1       6.006  -3.137   1.129  0.00  0.00    +0.083 C 
ATOM     11  H   UNL     1       2.364  -2.162   1.958  0.00  0.00    +0.156 HD
ENDROOT
BRANCH  10  12
ATOM     12  C   UNL     1       5.738  -4.450   0.440  0.00  0.00    -0.003 A 
ATOM     13  C   UNL     1       4.444  -4.928   0.343  0.00  0.00    +0.007 A 
ATOM     14  C   UNL     1       4.198  -6.133  -0.289  0.00  0.00    +0.000 A 
ATOM     15  C   UNL     1       5.245  -6.861  -0.825  0.00  0.00    +0.003 A 
ATOM     16  C   UNL     1       6.538  -6.384  -0.729  0.00  0.00    +0.038 A 
ATOM     17  C   UNL     1       6.786  -5.175  -0.101  0.00  0.00    +0.127 A 
ATOM     18  F   UNL     1       8.050  -4.706  -0.011  0.00  0.00    -0.205 F 
ENDBRANCH  10  12
BRANCH   1  22
ATOM     19  C   UNL     1      -0.017   1.379   0.010  0.00  0.00    +0.000 A 
ATOM     20  C   UNL     1       1.170   2.089   0.002  0.00  0.00    +0.002 A 
ATOM     21  C   UNL     1       2.377   1.419  -0.013  0.00  0.00    +0.026 A 
ATOM     22  C   UNL     1       2.399   0.031  -0.021  0.00  0.00    +0.049 A 
ATOM     23  C   UNL     1       1.207  -0.680  -0.013  0.00  0.00    +0.026 A 
ATOM     24  C   UNL     1       0.002  -0.004   0.002  0.00  0.00    +0.002 A 
ENDBRANCH   1  22
TORSDOF 2
