REMARK  Name = ZINC50671373
REMARK  3 active torsions:
REMARK  status: ('A' for Active; 'I' for Inactive)
REMARK    1  A    between atoms: C_3  and  N_20
REMARK    2  A    between atoms: C_6  and  S_7
REMARK    3  A    between atoms: S_7  and  N_10
REMARK                            x       y       z     vdW  Elec       q    Type
REMARK                         _______ _______ _______ _____ _____    ______ ____
ROOT
ATOM      1  S   UNL     1      -1.506  -0.915   0.012  0.00  0.00    +0.102 S 
ATOM      2  O   UNL     1      -1.205  -2.194   0.553  0.00  0.00    -0.146 OA
ATOM      3  O   UNL     1      -2.492  -0.061   0.577  0.00  0.00    -0.146 OA
ENDROOT
BRANCH   1   4
ATOM      4  N   UNL     1      -1.941  -1.159  -1.567  0.00  0.00    -0.103 NA
ATOM      5  C   UNL     1      -3.038  -1.818  -1.850  0.00  0.00    +0.192 A 
ATOM      6  N   UNL     1      -3.574  -2.134  -3.075  0.00  0.00    -0.336 N 
ATOM      7  C   UNL     1      -4.754  -2.844  -3.143  0.00  0.00    +0.028 A 
ATOM      8  C   UNL     1      -5.329  -3.197  -1.987  0.00  0.00    +0.012 A 
ATOM      9  S   UNL     1      -4.235  -2.554  -0.746  0.00  0.00    -0.053 S 
ATOM     10  C   UNL     1      -6.598  -3.962  -1.788  0.00  0.00    +0.044 C 
ATOM     11  C   UNL     1      -7.365  -3.986  -3.119  0.00  0.00    +0.006 C 
ATOM     12  C   UNL     1      -6.389  -4.367  -4.236  0.00  0.00    +0.006 C 
ATOM     13  C   UNL     1      -5.400  -3.226  -4.473  0.00  0.00    +0.054 C 
ATOM     14  H   UNL     1      -3.124  -1.858  -3.889  0.00  0.00    +0.168 HD
ENDBRANCH   1   4
BRANCH   1  20
ATOM     15  C   UNL     1      -0.017   1.384   0.010  0.00  0.00    +0.034 A 
ATOM     16  C   UNL     1       1.190   2.061   0.002  0.00  0.00    +0.043 A 
ATOM     17  C   UNL     1       2.374   1.332  -0.013  0.00  0.00    +0.094 A 
ATOM     18  N   UNL     1       2.350   0.008  -0.020  0.00  0.00    -0.348 N 
ATOM     19  C   UNL     1       1.215  -0.664  -0.013  0.00  0.00    +0.113 A 
ATOM     20  C   UNL     1       0.002  -0.004   0.002  0.00  0.00    +0.129 A 
ATOM     21  H   UNL     1       3.189  -0.480  -0.031  0.00  0.00    +0.167 HD
BRANCH  17  22
ATOM     22  N   UNL     1       3.594   1.999  -0.022  0.00  0.00    -0.345 N 
ATOM     23  H   UNL     1       3.616   2.969  -0.017  0.00  0.00    +0.144 HD
ATOM     24  H   UNL     1       4.422   1.495  -0.033  0.00  0.00    +0.144 HD
ENDBRANCH  17  22
ENDBRANCH   1  20
TORSDOF 3
