REMARK  Name = ZINC39942812
REMARK  4 active torsions:
REMARK  status: ('A' for Active; 'I' for Inactive)
REMARK    1  A    between atoms: C_1  and  C_2
REMARK    2  A    between atoms: C_2  and  C_16
REMARK    3  A    between atoms: N_3  and  N_4
REMARK    4  A    between atoms: C_5  and  C_7
REMARK                            x       y       z     vdW  Elec       q    Type
REMARK                         _______ _______ _______ _____ _____    ______ ____
ROOT
ATOM      1  N   UNL     1       0.024   0.035   2.340  0.00  0.00    -0.202 N 
ATOM      2  C   UNL     1       0.044  -0.645   3.503  0.00  0.00    +0.280 C 
ATOM      3  O   UNL     1       0.060  -1.862   3.497  0.00  0.00    -0.267 OA
ATOM      4  H   UNL     1       0.011   1.004   2.345  0.00  0.00    +0.178 HD
ENDROOT
BRANCH   2   5
ATOM      5  C   UNL     1       0.046   0.083   4.780  0.00  0.00    +0.135 C 
ATOM      6  N   UNL     1       0.025   1.379   4.967  0.00  0.00    -0.148 NA
ATOM      7  N   UNL     1       0.086   1.726   6.199  0.00  0.00    -0.158 NA
ATOM      8  C   UNL     1       0.381   0.773   6.998  0.00  0.00    +0.050 C 
ATOM      9  C   UNL     1       0.067  -0.492   6.174  0.00  0.00    +0.091 C 
ATOM     10  C   UNL     1       1.275  -1.395   6.449  0.00  0.00    +0.016 C 
ATOM     11  C   UNL     1       1.766  -0.995   7.859  0.00  0.00    +0.007 C 
ATOM     12  C   UNL     1       0.865   0.181   8.301  0.00  0.00    +0.053 C 
ENDBRANCH   2   5
BRANCH   1  15
ATOM     13  C   UNL     1      -0.018   1.503   0.010  0.00  0.00    +0.068 C 
ATOM     14  C   UNL     1       0.002  -0.004   0.002  0.00  0.00    +0.063 C 
ATOM     15  N   UNL     1       0.022  -0.659   1.123  0.00  0.00    -0.184 NA
BRANCH  14  16
ATOM     16  C   UNL     1      -0.000  -0.734  -1.279  0.00  0.00    -0.002 A 
ATOM     17  C   UNL     1      -0.015  -0.032  -2.487  0.00  0.00    +0.011 A 
ATOM     18  C   UNL     1      -0.017  -0.721  -3.681  0.00  0.00    +0.020 A 
ATOM     19  C   UNL     1      -0.005  -2.106  -3.685  0.00  0.00    +0.041 A 
ATOM     20  C   UNL     1       0.010  -2.808  -2.491  0.00  0.00    +0.020 A 
ATOM     21  C   UNL     1       0.019  -2.131  -1.290  0.00  0.00    +0.011 A 
ATOM     22 CL   UNL     1      -0.009  -2.966  -5.193  0.00  0.00    -0.084 Cl
ENDBRANCH  14  16
ENDBRANCH   1  15
TORSDOF 3
