REMARK  Name = ZINC14797189
REMARK  7 active torsions:
REMARK  status: ('A' for Active; 'I' for Inactive)
REMARK    1  A    between atoms: C_3  and  S_26
REMARK    2  A    between atoms: C_6  and  C_7
REMARK    3  A    between atoms: C_7  and  C_8
REMARK    4  A    between atoms: C_8  and  N_9
REMARK    5  A    between atoms: C_10  and  C_12
REMARK    6  A    between atoms: C_13  and  C_14
REMARK    7  A    between atoms: S_26  and  N_29
REMARK                            x       y       z     vdW  Elec       q    Type
REMARK                         _______ _______ _______ _____ _____    ______ ____
ROOT
ATOM      1  N   UNL     1       2.345   8.413  -5.635  0.00  0.00    -0.312 N 
ATOM      2  C   UNL     1       1.678   8.240  -4.477  0.00  0.00    +0.237 C 
ATOM      3  O   UNL     1       1.368   9.204  -3.803  0.00  0.00    -0.271 OA
ATOM      4  H   UNL     1       2.592   7.644  -6.172  0.00  0.00    +0.149 HD
ENDROOT
BRANCH   2   5
ATOM      5  C   UNL     1       1.326   6.892  -4.031  0.00  0.00    +0.068 C 
ATOM      6  C   UNL     1       0.657   6.719  -2.871  0.00  0.00    +0.013 C 
BRANCH   6   7
ATOM      7  C   UNL     1       0.304   5.364  -2.422  0.00  0.00    -0.020 A 
ATOM      8  C   UNL     1      -0.390   5.182  -1.219  0.00  0.00    +0.057 A 
ATOM      9  C   UNL     1      -0.717   3.907  -0.806  0.00  0.00    +0.164 A 
ATOM     10  C   UNL     1      -0.361   2.807  -1.580  0.00  0.00    +0.180 A 
ATOM     11  C   UNL     1       0.327   2.983  -2.773  0.00  0.00    +0.087 A 
ATOM     12  C   UNL     1       0.659   4.254  -3.196  0.00  0.00    +0.031 A 
ATOM     13 CL   UNL     1       0.769   1.605  -3.733  0.00  0.00    -0.080 Cl
ATOM     14  O   UNL     1      -0.692   1.553  -1.159  0.00  0.00    -0.487 OA
ATOM     15  C   UNL     1      -0.013   1.086   0.008  0.00  0.00    +0.232 C 
ATOM     16  C   UNL     1      -0.712   1.570   1.269  0.00  0.00    +0.082 C 
ATOM     17  C   UNL     1      -0.661   3.083   1.414  0.00  0.00    +0.232 C 
ATOM     18  O   UNL     1      -1.394   3.716   0.364  0.00  0.00    -0.488 OA
ENDBRANCH   6   7
ENDBRANCH   2   5
BRANCH   1  19
ATOM     19  C   UNL     1       2.698   9.763  -6.082  0.00  0.00    +0.109 C 
BRANCH  19  20
ATOM     20  C   UNL     1       3.445   9.679  -7.415  0.00  0.00    +0.054 C 
BRANCH  20  26
ATOM     21  C   UNL     1       2.937  11.779  -8.679  0.00  0.00    +0.005 A 
ATOM     22  C   UNL     1       3.268  13.054  -9.097  0.00  0.00    +0.029 A 
ATOM     23  C   UNL     1       4.474  13.615  -8.720  0.00  0.00    +0.105 A 
ATOM     24  C   UNL     1       5.347  12.901  -7.920  0.00  0.00    +0.029 A 
ATOM     25  C   UNL     1       5.014  11.628  -7.498  0.00  0.00    +0.005 A 
ATOM     26  C   UNL     1       3.808  11.068  -7.875  0.00  0.00    -0.046 A 
BRANCH  23  27
ATOM     27  S   UNL     1       4.897  15.239  -9.257  0.00  0.00    +0.056 S 
ATOM     28  O   UNL     1       3.675  15.903  -9.543  0.00  0.00    -0.153 OA
ATOM     29  O   UNL     1       5.837  15.744  -8.319  0.00  0.00    -0.153 OA
BRANCH  27  30
ATOM     30  N   UNL     1       5.701  15.084 -10.696  0.00  0.00    -0.204 NA
ATOM     31  H   UNL     1       5.851  14.204 -11.076  0.00  0.00    +0.144 HD
ATOM     32  H   UNL     1       6.022  15.873 -11.160  0.00  0.00    +0.144 HD
ENDBRANCH  27  30
ENDBRANCH  23  27
ENDBRANCH  20  26
ENDBRANCH  19  20
ENDBRANCH   1  19
TORSDOF 7
