REMARK  Name = ZINC31087563
REMARK  4 active torsions:
REMARK  status: ('A' for Active; 'I' for Inactive)
REMARK    1  A    between atoms: C_10  and  C_11
REMARK    2  A    between atoms: C_11  and  N_12
REMARK    3  A    between atoms: N_17  and  C_18
REMARK    4  A    between atoms: C_18  and  C_20
REMARK                            x       y       z     vdW  Elec       q    Type
REMARK                         _______ _______ _______ _____ _____    ______ ____
ROOT
ATOM      1  N   UNL     1       5.208   0.712   1.288  0.00  0.00    -0.324 N 
ATOM      2  C   UNL     1       4.652   1.895   1.663  0.00  0.00    +0.095 A 
ATOM      3  C   UNL     1       4.922   2.337   2.896  0.00  0.00    +0.066 A 
ATOM      4  S   UNL     1       5.982   1.050   3.527  0.00  0.00    -0.061 S 
ATOM      5  C   UNL     1       5.995   0.047   2.177  0.00  0.00    +0.166 A 
ATOM      6  N   UNL     1       6.625  -1.116   2.016  0.00  0.00    -0.151 NA
ENDROOT
BRANCH   6   7
ATOM      7  C   UNL     1       7.360  -1.620   3.009  0.00  0.00    +0.289 C 
ATOM      8  O   UNL     1       7.455  -1.016   4.064  0.00  0.00    -0.266 OA
BRANCH   7   9
ATOM      9  C   UNL     1       8.061  -2.915   2.830  0.00  0.00    +0.145 A 
ATOM     10  C   UNL     1       8.825  -3.446   3.868  0.00  0.00    +0.143 A 
ATOM     11  N   UNL     1       9.447  -4.599   3.704  0.00  0.00    -0.259 NA
ATOM     12  C   UNL     1       9.346  -5.248   2.558  0.00  0.00    +0.130 A 
ATOM     13  C   UNL     1       8.588  -4.723   1.523  0.00  0.00    +0.131 A 
ATOM     14  N   UNL     1       7.959  -3.575   1.680  0.00  0.00    -0.247 NA
ENDBRANCH   7   9
ENDBRANCH   6   7
BRANCH   1  15
ATOM     15  C   UNL     1       4.960   0.161  -0.046  0.00  0.00    +0.159 C 
BRANCH  15  25
ATOM     16  C   UNL     1      -0.151   0.443  -0.039  0.00  0.00    +0.001 A 
ATOM     17  C   UNL     1       0.883   1.376  -0.103  0.00  0.00    +0.001 A 
ATOM     18  C   UNL     1       2.185   0.982  -0.085  0.00  0.00    +0.009 A 
ATOM     19  C   UNL     1       2.496  -0.387   0.001  0.00  0.00    -0.013 A 
ATOM     20  C   UNL     1       1.445  -1.335   0.067  0.00  0.00    -0.018 A 
ATOM     21  C   UNL     1       0.112  -0.889   0.044  0.00  0.00    +0.008 A 
ATOM     22  C   UNL     1       1.756  -2.703   0.152  0.00  0.00    +0.008 A 
ATOM     23  C   UNL     1       3.058  -3.098   0.172  0.00  0.00    +0.001 A 
ATOM     24  C   UNL     1       4.092  -2.165   0.108  0.00  0.00    +0.006 A 
ATOM     25  C   UNL     1       3.829  -0.832   0.023  0.00  0.00    -0.020 A 
ENDBRANCH  15  25
ENDBRANCH   1  15
TORSDOF 4
