REMARK  Name = ZINC57992043
REMARK  3 active torsions:
REMARK  status: ('A' for Active; 'I' for Inactive)
REMARK    1  A    between atoms: C_1  and  C_2
REMARK    2  A    between atoms: C_7  and  N_8
REMARK    3  A    between atoms: C_9  and  C_11
REMARK                            x       y       z     vdW  Elec       q    Type
REMARK                         _______ _______ _______ _____ _____    ______ ____
ROOT
ATOM      1  C   UNL     1       0.049  -0.142   4.992  0.00  0.00    +0.111 C 
ATOM      2  C   UNL     1       1.313   0.739   5.183  0.00  0.00    +0.034 C 
ATOM      3  C   UNL     1       2.367  -0.310   5.610  0.00  0.00    +0.059 C 
ATOM      4  C   UNL     1       3.434   0.369   6.483  0.00  0.00    +0.020 C 
ATOM      5  C   UNL     1       3.280  -0.269   7.882  0.00  0.00    +0.017 C 
ATOM      6  C   UNL     1       1.819  -0.780   7.869  0.00  0.00    +0.086 C 
ATOM      7  N   UNL     1       1.622  -1.272   6.464  0.00  0.00    -0.282 NA
ATOM      8  C   UNL     1       0.198  -1.203   6.094  0.00  0.00    +0.137 C 
ATOM      9  C   UNL     1      -0.663  -0.864   7.281  0.00  0.00    +0.004 A 
ATOM     10  C   UNL     1      -0.703   0.211   8.142  0.00  0.00    +0.008 A 
ATOM     11  C   UNL     1      -1.633   0.241   9.166  0.00  0.00    +0.000 A 
ATOM     12  C   UNL     1      -2.520  -0.808   9.322  0.00  0.00    +0.002 A 
ATOM     13  C   UNL     1      -2.482  -1.886   8.463  0.00  0.00    +0.023 A 
ATOM     14  C   UNL     1      -1.550  -1.925   7.428  0.00  0.00    +0.039 A 
ATOM     15  N   UNL     1      -1.318  -2.888   6.444  0.00  0.00    -0.283 N 
ATOM     16  C   UNL     1      -0.311  -2.540   5.621  0.00  0.00    +0.243 C 
ATOM     17  O   UNL     1       0.106  -3.180   4.679  0.00  0.00    -0.273 OA
ATOM     18  H   UNL     1      -1.824  -3.711   6.363  0.00  0.00    +0.155 HD
ENDROOT
BRANCH   1  20
ATOM     19  N   UNL     1      -1.121  -1.090   3.029  0.00  0.00    -0.285 N 
ATOM     20  C   UNL     1       0.047  -0.785   3.629  0.00  0.00    +0.223 C 
ATOM     21  O   UNL     1       1.097  -1.029   3.072  0.00  0.00    -0.275 OA
ATOM     22  H   UNL     1      -1.960  -0.837   3.445  0.00  0.00    +0.155 HD
BRANCH  19  29
ATOM     23  C   UNL     1      -3.211  -2.956   2.534  0.00  0.00    +0.045 C 
ATOM     24  C   UNL     1      -2.124  -2.690   1.524  0.00  0.00    -0.029 A 
ATOM     25  C   UNL     1      -2.126  -3.357   0.314  0.00  0.00    +0.005 A 
ATOM     26  C   UNL     1      -1.129  -3.113  -0.613  0.00  0.00    +0.000 A 
ATOM     27  C   UNL     1      -0.128  -2.202  -0.332  0.00  0.00    +0.002 A 
ATOM     28  C   UNL     1      -0.120  -1.532   0.876  0.00  0.00    +0.023 A 
ATOM     29  C   UNL     1      -1.123  -1.771   1.807  0.00  0.00    +0.036 A 
ENDBRANCH  19  29
ENDBRANCH   1  20
TORSDOF 2
