REMARK  Name = ZINC13196995
REMARK  5 active torsions:
REMARK  status: ('A' for Active; 'I' for Inactive)
REMARK    1  A    between atoms: C_7  and  O_12
REMARK    2  A    between atoms: O_12  and  S_13
REMARK    3  A    between atoms: S_13  and  C_16
REMARK    4  A    between atoms: C_19  and  O_24
REMARK    5  A    between atoms: C_20  and  C_22
REMARK                            x       y       z     vdW  Elec       q    Type
REMARK                         _______ _______ _______ _____ _____    ______ ____
ROOT
ATOM      1  S   UNL     1       0.063  -4.543  -0.006  0.00  0.00    +0.151 S 
ATOM      2  O   UNL     1       0.608  -4.946  -1.255  0.00  0.00    -0.131 OA
ATOM      3  O   UNL     1       0.631  -4.938   1.236  0.00  0.00    -0.131 OA
ENDROOT
BRANCH   1   4
ATOM      4  C   UNL     1       0.039  -2.781  -0.011  0.00  0.00    +0.129 A 
ATOM      5  C   UNL     1       0.041  -2.088   1.188  0.00  0.00    +0.034 A 
ATOM      6  C   UNL     1       0.023  -0.707   1.198  0.00  0.00    +0.048 A 
ATOM      7  C   UNL     1       0.002  -0.004   0.002  0.00  0.00    +0.131 A 
ATOM      8  C   UNL     1      -0.006  -0.702  -1.214  0.00  0.00    +0.106 A 
ATOM      9  C   UNL     1       0.020  -2.099  -1.208  0.00  0.00    +0.049 A 
BRANCH   8  10
ATOM     10  C   UNL     1      -0.035   0.034  -2.491  0.00  0.00    +0.390 C 
ATOM     11  O   UNL     1      -0.052   1.249  -2.492  0.00  0.00    -0.240 OA
ATOM     12  O   UNL     1      -0.042  -0.641  -3.657  0.00  0.00    -0.240 OA
ENDBRANCH   8  10
BRANCH   7  13
ATOM     13  O   UNL     1      -0.016   1.352   0.009  0.00  0.00    -0.506 OA
ATOM     14  H   UNL     1       0.862   1.758   0.003  0.00  0.00    +0.292 HD
ENDBRANCH   7  13
ENDBRANCH   1   4
BRANCH   1  15
ATOM     15  O   UNL     1      -1.385  -5.012   0.009  0.00  0.00    -0.342 OA
BRANCH  15  22
ATOM     16  C   UNL     1      -3.441  -1.489  -0.916  0.00  0.00    +0.001 A 
ATOM     17  C   UNL     1      -4.087  -1.373  -2.146  0.00  0.00    +0.001 A 
ATOM     18  C   UNL     1      -4.059  -2.390  -3.050  0.00  0.00    +0.010 A 
ATOM     19  C   UNL     1      -3.369  -3.575  -2.743  0.00  0.00    +0.004 A 
ATOM     20  C   UNL     1      -2.717  -3.694  -1.490  0.00  0.00    +0.028 A 
ATOM     21  C   UNL     1      -2.764  -2.622  -0.585  0.00  0.00    +0.012 A 
ATOM     22  C   UNL     1      -2.021  -4.881  -1.184  0.00  0.00    +0.165 A 
ATOM     23  C   UNL     1      -1.993  -5.900  -2.094  0.00  0.00    +0.051 A 
ATOM     24  C   UNL     1      -2.639  -5.782  -3.321  0.00  0.00    +0.024 A 
ATOM     25  C   UNL     1      -3.318  -4.647  -3.651  0.00  0.00    +0.049 A 
ATOM     26 CL   UNL     1      -4.115  -4.525  -5.189  0.00  0.00    -0.083 Cl
ENDBRANCH  15  22
ENDBRANCH   1  15
TORSDOF 5
