REMARK  Name = ZINC41506902
REMARK  2 active torsions:
REMARK  status: ('A' for Active; 'I' for Inactive)
REMARK    1  A    between atoms: C_2  and  N_9
REMARK    2  A    between atoms: C_10  and  C_12
REMARK                            x       y       z     vdW  Elec       q    Type
REMARK                         _______ _______ _______ _____ _____    ______ ____
ROOT
ATOM      1  N   UNL     1       1.161   3.486   0.009  0.00  0.00    -0.280 N 
ATOM      2  C   UNL     1       2.317   4.173   0.104  0.00  0.00    +0.267 C 
ATOM      3  O   UNL     1       3.379   3.580   0.091  0.00  0.00    -0.268 OA
ATOM      4  H   UNL     1       0.318   3.962  -0.048  0.00  0.00    +0.155 HD
ENDROOT
BRANCH   1   6
ATOM      5  C   UNL     1       0.154   1.373   0.602  0.00  0.00    +0.043 A 
ATOM      6  C   UNL     1       1.178   2.088  -0.006  0.00  0.00    +0.036 A 
ATOM      7  C   UNL     1       2.218   1.411  -0.630  0.00  0.00    +0.043 A 
ATOM      8  C   UNL     1       2.232   0.029  -0.644  0.00  0.00    +0.044 A 
ATOM      9  C   UNL     1       1.210  -0.681  -0.037  0.00  0.00    +0.040 A 
ATOM     10  C   UNL     1       0.173  -0.009   0.585  0.00  0.00    +0.044 A 
ATOM     11 CL   UNL     1      -1.106  -0.903   1.346  0.00  0.00    -0.083 Cl
ATOM     12 CL   UNL     1       3.532  -0.817  -1.423  0.00  0.00    -0.083 Cl
ENDBRANCH   1   6
BRANCH   2  13
ATOM     13  C   UNL     1       2.294   5.640   0.222  0.00  0.00    +0.133 A 
ATOM     14  C   UNL     1       3.443   6.378   0.315  0.00  0.00    +0.079 A 
ATOM     15  S   UNL     1       2.857   7.949   0.425  0.00  0.00    -0.083 S 
ATOM     16  C   UNL     1       1.211   7.630   0.352  0.00  0.00    +0.156 A 
ATOM     17  N   UNL     1       1.149   6.331   0.240  0.00  0.00    -0.243 NA
ENDBRANCH   2  13
TORSDOF 2
