REMARK  Name = ZINC33170871
REMARK  6 active torsions:
REMARK  status: ('A' for Active; 'I' for Inactive)
REMARK    1  A    between atoms: C_3  and  S_6
REMARK    2  A    between atoms: S_6  and  N_9
REMARK    3  A    between atoms: C_16  and  C_20
REMARK    4  A    between atoms: C_20  and  O_21
REMARK    5  A    between atoms: O_21  and  C_22
REMARK    6  A    between atoms: C_22  and  C_23
REMARK                            x       y       z     vdW  Elec       q    Type
REMARK                         _______ _______ _______ _____ _____    ______ ____
ROOT
ATOM      1  N   UNL     1       1.339   2.066   0.000  0.00  0.00    -0.168 NA
ATOM      2  C   UNL     1      -0.019   1.518   0.010  0.00  0.00    +0.151 C 
ATOM      3  C   UNL     1       0.002  -0.004   0.002  0.00  0.00    +0.246 C 
ATOM      4  O   UNL     1       0.643  -0.483  -1.186  0.00  0.00    -0.490 OA
ATOM      5  C   UNL     1       1.986  -0.655  -1.104  0.00  0.00    +0.125 A 
ATOM      6  C   UNL     1       2.530  -1.932  -1.099  0.00  0.00    +0.046 A 
ATOM      7  C   UNL     1       3.895  -2.098  -0.969  0.00  0.00    +0.009 A 
ATOM      8  C   UNL     1       4.723  -0.998  -0.841  0.00  0.00    -0.021 A 
ATOM      9  C   UNL     1       4.186   0.278  -0.864  0.00  0.00    +0.014 A 
ATOM     10  C   UNL     1       2.828   0.444  -1.014  0.00  0.00    +0.010 A 
ATOM     11  C   UNL     1       2.227   1.829  -1.143  0.00  0.00    +0.148 C 
ENDROOT
BRANCH   1  12
ATOM     12  S   UNL     1       1.874   2.960   1.287  0.00  0.00    +0.068 S 
ATOM     13  O   UNL     1       2.918   3.791   0.798  0.00  0.00    -0.152 OA
ATOM     14  O   UNL     1       0.719   3.485   1.926  0.00  0.00    -0.152 OA
BRANCH  12  17
ATOM     15  C   UNL     1       4.263   0.531   3.494  0.00  0.00    +0.010 A 
ATOM     16  C   UNL     1       3.904   1.425   2.503  0.00  0.00    +0.036 A 
ATOM     17  C   UNL     1       2.615   1.839   2.428  0.00  0.00    +0.143 A 
ATOM     18  S   UNL     1       1.864   0.960   3.788  0.00  0.00    -0.077 S 
ATOM     19  C   UNL     1       3.317   0.093   4.360  0.00  0.00    +0.047 A 
ENDBRANCH  12  17
ENDBRANCH   1  12
BRANCH   8  20
ATOM     20  C   UNL     1       6.209  -1.188  -0.678  0.00  0.00    +0.195 C 
BRANCH  20  21
ATOM     21  O   UNL     1       6.526  -1.289   0.712  0.00  0.00    -0.371 OA
BRANCH  21  22
ATOM     22  C   UNL     1       7.918  -1.472   0.978  0.00  0.00    +0.195 C 
BRANCH  22  23
ATOM     23  C   UNL     1       8.137  -1.565   2.466  0.00  0.00    -0.022 A 
ATOM     24  C   UNL     1       8.389  -0.421   3.201  0.00  0.00    +0.007 A 
ATOM     25  C   UNL     1       8.583  -0.505   4.567  0.00  0.00    +0.020 A 
ATOM     26  C   UNL     1       8.538  -1.736   5.197  0.00  0.00    +0.041 A 
ATOM     27  C   UNL     1       8.291  -2.881   4.461  0.00  0.00    +0.020 A 
ATOM     28  C   UNL     1       8.091  -2.795   3.096  0.00  0.00    +0.007 A 
ATOM     29 CL   UNL     1       8.789  -1.843   6.911  0.00  0.00    -0.084 Cl
ENDBRANCH  22  23
ENDBRANCH  21  22
ENDBRANCH  20  21
ENDBRANCH   8  20
TORSDOF 6
