REMARK  Name = ZINC45440188
REMARK  7 active torsions:
REMARK  status: ('A' for Active; 'I' for Inactive)
REMARK    1  A    between atoms: C_1  and  C_2
REMARK    2  A    between atoms: C_5  and  S_8
REMARK    3  A    between atoms: S_8  and  C_9
REMARK    4  A    between atoms: C_9  and  C_10
REMARK    5  A    between atoms: N_12  and  N_13
REMARK    6  A    between atoms: N_16  and  C_17
REMARK    7  A    between atoms: C_22  and  C_25
REMARK                            x       y       z     vdW  Elec       q    Type
REMARK                         _______ _______ _______ _____ _____    ______ ____
ROOT
ATOM      1  N   UNL     1       0.129  -8.443   3.219  0.00  0.00    -0.218 N 
ATOM      2  C   UNL     1       0.142  -9.009   4.442  0.00  0.00    +0.316 C 
ATOM      3  O   UNL     1       0.159 -10.220   4.551  0.00  0.00    -0.251 OA
ATOM      4  N   UNL     1       0.138  -8.233   5.544  0.00  0.00    -0.295 N 
ATOM      5  H   UNL     1       0.132  -9.002   2.426  0.00  0.00    +0.174 HD
ATOM      6  H   UNL     1       0.125  -7.267   5.457  0.00  0.00    +0.151 HD
ENDROOT
BRANCH   4   7
ATOM      7  C   UNL     1       0.153  -8.849   6.873  0.00  0.00    +0.075 C 
ATOM      8  C   UNL     1      -1.278  -9.196   7.291  0.00  0.00    +0.022 C 
ATOM      9  C   UNL     1      -2.121  -7.920   7.329  0.00  0.00    +0.002 C 
ATOM     10  C   UNL     1      -1.519  -6.940   8.338  0.00  0.00    +0.012 C 
ATOM     11  C   UNL     1      -0.089  -6.593   7.920  0.00  0.00    +0.095 C 
ATOM     12  C   UNL     1       0.755  -7.869   7.882  0.00  0.00    +0.034 C 
BRANCH  11  13
ATOM     13  C   UNL     1       0.513  -5.613   8.929  0.00  0.00    +0.393 C 
ATOM     14  F   UNL     1       0.527  -6.201  10.199  0.00  0.00    -0.170 F 
ATOM     15  F   UNL     1       1.821  -5.296   8.548  0.00  0.00    -0.170 F 
ATOM     16  F   UNL     1      -0.258  -4.447   8.964  0.00  0.00    -0.170 F 
ENDBRANCH  11  13
ENDBRANCH   4   7
BRANCH   1  19
ATOM     17  C   UNL     1       0.097  -6.482   1.870  0.00  0.00    +0.239 C 
ATOM     18  O   UNL     1       0.101  -7.180   0.879  0.00  0.00    -0.273 OA
ATOM     19  N   UNL     1       0.110  -7.048   3.093  0.00  0.00    -0.233 N 
ATOM     20  H   UNL     1       0.107  -6.489   3.886  0.00  0.00    +0.173 HD
BRANCH  17  21
ATOM     21  C   UNL     1       0.077  -4.981   1.735  0.00  0.00    +0.171 C 
BRANCH  21  22
ATOM     22  S   UNL     1       0.062  -4.533  -0.023  0.00  0.00    -0.116 S 
BRANCH  22  27
ATOM     23  C   UNL     1      -0.018   1.503   0.010  0.00  0.00    +0.044 C 
ATOM     24  C   UNL     1       0.002  -0.004   0.002  0.00  0.00    -0.050 A 
ATOM     25  C   UNL     1       0.006  -0.687  -1.200  0.00  0.00    +0.004 A 
ATOM     26  C   UNL     1       0.024  -2.068  -1.212  0.00  0.00    +0.015 A 
ATOM     27  C   UNL     1       0.039  -2.771  -0.013  0.00  0.00    +0.008 A 
ATOM     28  C   UNL     1       0.036  -2.081   1.193  0.00  0.00    +0.015 A 
ATOM     29  C   UNL     1       0.023  -0.700   1.197  0.00  0.00    +0.004 A 
ENDBRANCH  22  27
ENDBRANCH  21  22
ENDBRANCH  17  21
ENDBRANCH   1  19
TORSDOF 6
