REMARK  Name = ZINC42401260
REMARK  1 active torsions:
REMARK  status: ('A' for Active; 'I' for Inactive)
REMARK    1  A    between atoms: C_5  and  C_6
REMARK                            x       y       z     vdW  Elec       q    Type
REMARK                         _______ _______ _______ _____ _____    ______ ____
ROOT
ATOM      1  C   UNL     1      -1.172  -0.881   0.009  0.00  0.00    +0.177 A 
ATOM      2  N   UNL     1      -0.998  -2.237   0.005  0.00  0.00    -0.304 N 
ATOM      3  H   UNL     1      -0.105  -2.615  -0.002  0.00  0.00    +0.170 HD
ATOM      4  C   UNL     1      -2.079  -3.046   0.012  0.00  0.00    +0.255 A 
ATOM      5  O   UNL     1      -1.946  -4.259   0.009  0.00  0.00    -0.268 OA
ATOM      6  C   UNL     1      -3.362  -2.466   0.021  0.00  0.00    +0.038 A 
ATOM      7  C   UNL     1      -3.477  -1.107   0.024  0.00  0.00    +0.052 A 
ATOM      8  N   UNL     1      -2.380  -0.349   0.023  0.00  0.00    -0.231 NA
ATOM      9  C   UNL     1      -4.939  -0.713   0.035  0.00  0.00    +0.056 C 
ATOM     10  C   UNL     1      -5.702  -1.983  -0.399  0.00  0.00    +0.011 C 
ATOM     11  C   UNL     1      -4.732  -3.106   0.029  0.00  0.00    +0.043 C 
ENDROOT
BRANCH   1  16
ATOM     12  C   UNL     1      -0.017   1.362   0.009  0.00  0.00    +0.054 A 
ATOM     13  C   UNL     1       1.322   1.784  -0.001  0.00  0.00    +0.057 A 
ATOM     14  C   UNL     1       2.090   0.671  -0.014  0.00  0.00    +0.171 A 
ATOM     15  O   UNL     1       1.291  -0.404  -0.012  0.00  0.00    -0.445 OA
ATOM     16  C   UNL     1       0.002  -0.004   0.002  0.00  0.00    +0.171 A 
ATOM     17 BR   UNL     1       3.981   0.638  -0.033  0.00  0.00    -0.008 Br
ENDBRANCH   1  16
TORSDOF 1
