REMARK  Name = ZINC15626021
REMARK  9 active torsions:
REMARK  status: ('A' for Active; 'I' for Inactive)
REMARK    1  A    between atoms: C_1  and  C_2
REMARK    2  A    between atoms: C_5  and  S_8
REMARK    3  A    between atoms: S_8  and  N_11
REMARK    4  A    between atoms: N_11  and  C_12
REMARK    5  A    between atoms: C_12  and  C_14
REMARK    6  A    between atoms: C_12  and  C_17
REMARK    7  A    between atoms: C_14  and  C_15
REMARK    8  A    between atoms: C_14  and  C_16
REMARK    9  A    between atoms: N_19  and  C_20
REMARK                            x       y       z     vdW  Elec       q    Type
REMARK                         _______ _______ _______ _____ _____    ______ ____
ROOT
ATOM      1  C   UNL     1       0.094  -4.201   0.301  0.00  0.00    +0.165 C 
ENDROOT
BRANCH   1   2
ATOM      2  C   UNL     1       0.267  -2.813   0.861  0.00  0.00    +0.236 C 
ATOM      3  O   UNL     1      -0.646  -2.017   0.803  0.00  0.00    -0.274 OA
ATOM      4  N   UNL     1       1.437  -2.456   1.427  0.00  0.00    -0.284 N 
ATOM      5  H   UNL     1       2.192  -3.065   1.407  0.00  0.00    +0.155 HD
BRANCH   4   6
ATOM      6  C   UNL     1       1.564  -1.205   2.045  0.00  0.00    +0.036 A 
ATOM      7  C   UNL     1       2.777  -0.528   1.999  0.00  0.00    +0.025 A 
ATOM      8  C   UNL     1       2.908   0.705   2.606  0.00  0.00    +0.029 A 
ATOM      9  C   UNL     1       1.827   1.271   3.263  0.00  0.00    +0.067 A 
ATOM     10  C   UNL     1       0.606   0.595   3.309  0.00  0.00    +0.069 A 
ATOM     11  C   UNL     1       0.478  -0.643   2.699  0.00  0.00    +0.051 A 
ATOM     12  N   UNL     1      -0.275   1.402   4.025  0.00  0.00    -0.306 N 
ATOM     13  H   UNL     1      -1.202   1.195   4.222  0.00  0.00    +0.170 HD
ATOM     14  C   UNL     1       0.379   2.518   4.399  0.00  0.00    +0.325 A 
ATOM     15  O   UNL     1      -0.104   3.431   5.042  0.00  0.00    -0.247 OA
ATOM     16  N   UNL     1       1.649   2.470   3.954  0.00  0.00    -0.306 N 
ATOM     17  H   UNL     1       2.325   3.152   4.090  0.00  0.00    +0.170 HD
ENDBRANCH   4   6
ENDBRANCH   1   2
BRANCH   1  18
ATOM     18  C   UNL     1       0.709  -4.266  -1.099  0.00  0.00    +0.010 C 
ATOM     19  C   UNL     1       0.658  -5.707  -1.611  0.00  0.00    +0.009 C 
ATOM     20  C   UNL     1      -0.082  -3.361  -2.046  0.00  0.00    +0.009 C 
ENDBRANCH   1  18
BRANCH   1  21
ATOM     21  N   UNL     1      -1.333  -4.522   0.223  0.00  0.00    -0.178 NA
ATOM     22  H   UNL     1      -1.933  -3.948  -0.280  0.00  0.00    +0.149 HD
BRANCH  21  23
ATOM     23  S   UNL     1      -1.924  -5.864   0.992  0.00  0.00    +0.059 S 
ATOM     24  O   UNL     1      -3.327  -5.876   0.769  0.00  0.00    -0.153 OA
ATOM     25  O   UNL     1      -1.084  -6.948   0.620  0.00  0.00    -0.153 OA
BRANCH  23  30
ATOM     26  C   UNL     1      -1.126  -5.022   6.913  0.00  0.00    +0.044 C 
ATOM     27  C   UNL     1      -1.325  -5.233   5.435  0.00  0.00    -0.050 A 
ATOM     28  C   UNL     1      -2.494  -4.813   4.828  0.00  0.00    +0.005 A 
ATOM     29  C   UNL     1      -2.677  -5.006   3.472  0.00  0.00    +0.029 A 
ATOM     30  C   UNL     1      -1.690  -5.618   2.721  0.00  0.00    +0.105 A 
ATOM     31  C   UNL     1      -0.523  -6.042   3.329  0.00  0.00    +0.029 A 
ATOM     32  C   UNL     1      -0.339  -5.845   4.684  0.00  0.00    +0.005 A 
ENDBRANCH  23  30
ENDBRANCH  21  23
ENDBRANCH   1  21
TORSDOF 6
