REMARK  Name = ZINC52685497
REMARK  5 active torsions:
REMARK  status: ('A' for Active; 'I' for Inactive)
REMARK    1  A    between atoms: C_1  and  C_2
REMARK    2  A    between atoms: C_8  and  C_10
REMARK    3  A    between atoms: C_10  and  C_12
REMARK    4  A    between atoms: C_10  and  N_13
REMARK    5  A    between atoms: C_16  and  C_19
REMARK                            x       y       z     vdW  Elec       q    Type
REMARK                         _______ _______ _______ _____ _____    ______ ____
ROOT
ATOM      1  N   UNL     1      -5.004  -3.792  -0.131  0.00  0.00    +0.387 N 
ATOM      2  C   UNL     1      -5.517  -3.232  -1.387  0.00  0.00    -0.077 C 
ATOM      3  C   UNL     1      -6.958  -2.758  -1.188  0.00  0.00    -0.006 C 
ATOM      4  C   UNL     1      -7.827  -3.945  -0.764  0.00  0.00    +0.072 C 
ATOM      5  C   UNL     1      -7.240  -4.567   0.506  0.00  0.00    -0.006 C 
ATOM      6  C   UNL     1      -5.788  -4.975   0.244  0.00  0.00    -0.077 C 
ATOM      7  H   UNL     1      -5.075  -3.098   0.598  0.00  0.00    -0.081 HD
ENDROOT
BRANCH   4   8
ATOM      8  C   UNL     1      -9.231  -3.470  -0.491  0.00  0.00    +0.219 C 
ATOM      9  O   UNL     1      -9.485  -2.285  -0.513  0.00  0.00    -0.275 OA
ATOM     10  N   UNL     1     -10.204  -4.363  -0.221  0.00  0.00    -0.301 N 
ATOM     11  C   UNL     1     -11.523  -3.872   0.109  0.00  0.00    +0.108 C 
ATOM     12  C   UNL     1     -11.626  -3.649   1.638  0.00  0.00    +0.019 C 
ATOM     13  C   UNL     1     -11.661  -4.940   2.342  0.00  0.00    +0.002 C 
ATOM     14  C   UNL     1     -10.403  -5.785   2.168  0.00  0.00    +0.002 C 
ATOM     15  C   UNL     1     -10.508  -6.583   0.892  0.00  0.00    +0.019 C 
ATOM     16  C   UNL     1      -9.880  -5.802  -0.281  0.00  0.00    +0.108 C 
ENDBRANCH   4   8
BRANCH   1  17
ATOM     17  C   UNL     1      -3.597  -4.175  -0.305  0.00  0.00    +0.016 C 
ATOM     18  C   UNL     1      -3.070  -4.788   0.994  0.00  0.00    -0.004 C 
BRANCH  17  26
ATOM     19  C   UNL     1      -0.162   1.675  -1.663  0.00  0.00    +0.089 C 
ATOM     20  C   UNL     1      -0.241   0.179  -1.827  0.00  0.00    +0.136 A 
ATOM     21  C   UNL     1      -1.202  -0.619  -1.327  0.00  0.00    +0.091 A 
ATOM     22  C   UNL     1      -0.908  -1.948  -1.705  0.00  0.00    +0.168 A 
ATOM     23  N   UNL     1       0.195  -1.931  -2.409  0.00  0.00    -0.063 NA
ATOM     24  O   UNL     1       0.631  -0.586  -2.501  0.00  0.00    -0.358 OA
ATOM     25  N   UNL     1      -1.661  -3.078  -1.386  0.00  0.00    -0.269 N 
ATOM     26  C   UNL     1      -2.783  -2.954  -0.650  0.00  0.00    +0.205 C 
ATOM     27  O   UNL     1      -3.139  -1.860  -0.266  0.00  0.00    -0.277 OA
ATOM     28  H   UNL     1      -1.377  -3.953  -1.693  0.00  0.00    +0.156 HD
ENDBRANCH  17  26
ENDBRANCH   1  17
TORSDOF 3
