REMARK  Name = ZINC13624159
REMARK  5 active torsions:
REMARK  status: ('A' for Active; 'I' for Inactive)
REMARK    1  A    between atoms: C_1  and  C_2
REMARK    2  A    between atoms: C_4  and  C_31
REMARK    3  A    between atoms: C_6  and  N_8
REMARK    4  A    between atoms: C_9  and  C_11
REMARK    5  A    between atoms: C_26  and  C_29
REMARK                            x       y       z     vdW  Elec       q    Type
REMARK                         _______ _______ _______ _____ _____    ______ ____
ROOT
ATOM      1  C   UNL     1      -2.428   4.289   7.311  0.00  0.00    +0.123 C 
ATOM      2  C   UNL     1      -1.101   5.115   7.312  0.00  0.00    +0.155 C 
ATOM      3  C   UNL     1      -0.158   4.442   8.316  0.00  0.00    +0.004 C 
ATOM      4  C   UNL     1       0.264   3.299   7.761  0.00  0.00    +0.008 C 
ATOM      5  C   UNL     1      -0.445   3.259   6.455  0.00  0.00    +0.116 C 
ATOM      6  C   UNL     1      -1.955   2.935   6.754  0.00  0.00    +0.127 C 
ATOM      7  C   UNL     1      -2.454   2.614   5.373  0.00  0.00    +0.228 C 
ATOM      8  O   UNL     1      -3.602   2.726   4.997  0.00  0.00    -0.275 OA
ATOM      9  N   UNL     1      -1.418   2.176   4.613  0.00  0.00    -0.250 N 
ATOM     10  C   UNL     1      -0.137   2.299   5.348  0.00  0.00    +0.155 C 
ATOM     11  C   UNL     1      -1.542   1.681   3.315  0.00  0.00    +0.171 A 
ATOM     12  C   UNL     1      -0.510   1.125   2.512  0.00  0.00    +0.091 A 
ATOM     13  C   UNL     1      -1.135   0.802   1.357  0.00  0.00    +0.136 A 
ATOM     14  O   UNL     1      -2.419   1.158   1.502  0.00  0.00    -0.358 OA
ATOM     15  N   UNL     1      -2.631   1.637   2.592  0.00  0.00    -0.063 NA
ATOM     16  C   UNL     1      -0.507   0.172   0.140  0.00  0.00    +0.089 C 
ATOM     17  O   UNL     1      -0.511   4.651   6.044  0.00  0.00    -0.359 OA
ENDROOT
BRANCH   1  19
ATOM     18  N   UNL     1      -4.766   4.777   6.669  0.00  0.00    -0.285 N 
ATOM     19  C   UNL     1      -3.453   4.918   6.402  0.00  0.00    +0.224 C 
ATOM     20  O   UNL     1      -3.096   5.551   5.431  0.00  0.00    -0.275 OA
ATOM     21  H   UNL     1      -5.051   4.328   7.481  0.00  0.00    +0.155 HD
BRANCH  18  27
ATOM     22  C   UNL     1      -6.153   8.236   3.463  0.00  0.00    +0.044 C 
ATOM     23  C   UNL     1      -6.418   6.954   4.209  0.00  0.00    -0.048 A 
ATOM     24  C   UNL     1      -7.604   6.273   4.011  0.00  0.00    +0.006 A 
ATOM     25  C   UNL     1      -7.851   5.096   4.694  0.00  0.00    -0.048 A 
ATOM     26  C   UNL     1      -6.912   4.597   5.576  0.00  0.00    +0.026 A 
ATOM     27  C   UNL     1      -5.719   5.279   5.776  0.00  0.00    +0.034 A 
ATOM     28  C   UNL     1      -5.477   6.464   5.093  0.00  0.00    +0.026 A 
ATOM     29  C   UNL     1      -9.146   4.356   4.476  0.00  0.00    +0.044 C 
ENDBRANCH  18  27
ENDBRANCH   1  19
TORSDOF 2
