REMARK  Name = ZINC17008457
REMARK  1 active torsions:
REMARK  status: ('A' for Active; 'I' for Inactive)
REMARK    1  A    between atoms: C_6  and  C_7
REMARK                            x       y       z     vdW  Elec       q    Type
REMARK                         _______ _______ _______ _____ _____    ______ ____
ROOT
ATOM      1  C   UNL     1      -0.288  -2.195  -0.007  0.00  0.00    +0.094 A 
ATOM      2  C   UNL     1      -0.979  -0.972   0.006  0.00  0.00    +0.063 A 
ATOM      3  C   UNL     1       0.002  -0.004   0.002  0.00  0.00    +0.135 A 
ATOM      4  C   UNL     1      -0.018   1.462   0.010  0.00  0.00    +0.290 A 
ATOM      5  O   UNL     1      -1.070   2.076   0.018  0.00  0.00    -0.264 OA
ATOM      6  N   UNL     1       1.169   2.112   0.002  0.00  0.00    -0.240 N 
ATOM      7  H   UNL     1       1.195   3.081   0.007  0.00  0.00    +0.192 HD
ATOM      8  N   UNL     1       2.359   1.377  -0.014  0.00  0.00    -0.159 NA
ATOM      9  C   UNL     1       2.373   0.087  -0.021  0.00  0.00    +0.245 A 
ATOM     10  N   UNL     1       1.211  -0.656  -0.013  0.00  0.00    -0.214 N 
ATOM     11  N   UNL     1       1.003  -1.926  -0.018  0.00  0.00    -0.165 NA
ENDROOT
BRANCH   1  17
ATOM     12  C   UNL     1      -0.091  -4.681  -0.022  0.00  0.00    +0.011 A 
ATOM     13  C   UNL     1      -0.665  -5.936  -0.022  0.00  0.00    +0.022 A 
ATOM     14  C   UNL     1      -2.042  -6.070  -0.009  0.00  0.00    +0.059 A 
ATOM     15  C   UNL     1      -2.852  -4.946   0.004  0.00  0.00    +0.060 A 
ATOM     16  C   UNL     1      -2.287  -3.686   0.011  0.00  0.00    +0.031 A 
ATOM     17  C   UNL     1      -0.900  -3.547  -0.008  0.00  0.00    +0.004 A 
ATOM     18 CL   UNL     1      -4.579  -5.121   0.021  0.00  0.00    -0.082 Cl
ATOM     19 CL   UNL     1      -2.758  -7.652  -0.011  0.00  0.00    -0.082 Cl
ENDBRANCH   1  17
TORSDOF 1
