REMARK  Name = ZINC63137631
REMARK  8 active torsions:
REMARK  status: ('A' for Active; 'I' for Inactive)
REMARK    1  A    between atoms: C_1  and  O_2
REMARK    2  A    between atoms: O_2  and  C_3
REMARK    3  A    between atoms: C_6  and  C_11
REMARK    4  A    between atoms: C_8  and  O_9
REMARK    5  A    between atoms: O_9  and  C_10
REMARK    6  A    between atoms: N_30  and  C_33
REMARK    7  A    between atoms: C_33  and  C_34
REMARK    8  A    between atoms: C_34  and  O_35
REMARK                            x       y       z     vdW  Elec       q    Type
REMARK                         _______ _______ _______ _____ _____    ______ ____
ROOT
ATOM      1  C   UNL     1      -4.987  -2.627   0.035  0.00  0.00    +0.134 C 
ATOM      2  C   UNL     1      -5.520  -2.663   1.467  0.00  0.00    +0.131 C 
ATOM      3  C   UNL     1      -6.019  -1.250   1.762  0.00  0.00    -0.034 C 
ATOM      4  C   UNL     1      -5.303  -0.797   2.783  0.00  0.00    -0.001 A 
ATOM      5  C   UNL     1      -5.346   0.475   3.521  0.00  0.00    +0.010 A 
ATOM      6  C   UNL     1      -4.448   0.613   4.532  0.00  0.00    +0.001 A 
ATOM      7  C   UNL     1      -3.522  -0.376   4.878  0.00  0.00    +0.002 A 
ATOM      8  C   UNL     1      -3.413  -1.576   4.254  0.00  0.00    +0.026 A 
ATOM      9  C   UNL     1      -4.306  -1.839   3.175  0.00  0.00    +0.043 A 
ATOM     10  N   UNL     1      -4.426  -2.910   2.417  0.00  0.00    -0.375 N 
ATOM     11  C   UNL     1      -7.106  -0.620   0.937  0.00  0.00    +0.065 C 
ATOM     12  C   UNL     1      -6.897  -0.945  -0.519  0.00  0.00    +0.167 C 
ATOM     13  N   UNL     1      -5.893  -1.928  -0.864  0.00  0.00    -0.279 N 
ATOM     14  C   UNL     1      -5.761  -2.185  -2.207  0.00  0.00    +0.234 C 
ATOM     15  O   UNL     1      -5.002  -3.037  -2.619  0.00  0.00    -0.274 OA
ATOM     16  C   UNL     1      -6.608  -1.355  -3.149  0.00  0.00    +0.203 C 
ATOM     17  N   UNL     1      -6.554   0.051  -2.710  0.00  0.00    -0.289 N 
ATOM     18  C   UNL     1      -6.721   0.282  -1.379  0.00  0.00    +0.237 C 
ATOM     19  O   UNL     1      -6.728   1.402  -0.915  0.00  0.00    -0.274 OA
ATOM     20  H   UNL     1      -3.893  -3.719   2.466  0.00  0.00    +0.160 HD
ENDROOT
BRANCH   1  24
ATOM     21  C   UNL     1      -1.201  -0.638   0.010  0.00  0.00    +0.162 A 
ATOM     22  C   UNL     1      -2.374   0.099   0.019  0.00  0.00    +0.050 A 
ATOM     23  C   UNL     1      -3.596  -0.546   0.027  0.00  0.00    +0.009 A 
ATOM     24  C   UNL     1      -3.652  -1.928   0.026  0.00  0.00    -0.021 A 
ATOM     25  C   UNL     1      -2.485  -2.669   0.017  0.00  0.00    +0.055 A 
ATOM     26  C   UNL     1      -1.257  -2.028   0.003  0.00  0.00    +0.162 A 
BRANCH  21  28
ATOM     27  C   UNL     1      -0.017   1.425   0.010  0.00  0.00    +0.277 C 
ATOM     28  O   UNL     1       0.002  -0.004   0.002  0.00  0.00    -0.491 OA
ENDBRANCH  21  28
BRANCH  26  29
ATOM     29  O   UNL     1      -0.108  -2.756  -0.012  0.00  0.00    -0.491 OA
ATOM     30  C   UNL     1      -0.242  -4.179  -0.018  0.00  0.00    +0.277 C 
ENDBRANCH  26  29
ENDBRANCH   1  24
BRANCH  17  31
ATOM     31  C   UNL     1      -6.332   1.145  -3.659  0.00  0.00    +0.136 C 
BRANCH  31  32
ATOM     32  C   UNL     1      -7.679   1.642  -4.188  0.00  0.00    +0.174 C 
BRANCH  32  33
ATOM     33  O   UNL     1      -8.429   2.218  -3.116  0.00  0.00    -0.393 OA
ATOM     34  H   UNL     1      -9.296   2.555  -3.379  0.00  0.00    +0.209 HD
ENDBRANCH  32  33
ENDBRANCH  31  32
ENDBRANCH  17  31
TORSDOF 6
