REMARK  Name = ZINC32635070
REMARK  6 active torsions:
REMARK  status: ('A' for Active; 'I' for Inactive)
REMARK    1  A    between atoms: C_1  and  C_2
REMARK    2  A    between atoms: C_2  and  C_3
REMARK    3  A    between atoms: C_3  and  C_5
REMARK    4  A    between atoms: C_3  and  C_6
REMARK    5  A    between atoms: C_6  and  N_8
REMARK    6  A    between atoms: N_10  and  C_21
REMARK                            x       y       z     vdW  Elec       q    Type
REMARK                         _______ _______ _______ _____ _____    ______ ____
ROOT
ATOM      1  N   UNL     1       0.736  -2.767  -2.728  0.00  0.00    -0.159 NA
ATOM      2  C   UNL     1       0.979  -4.058  -2.533  0.00  0.00    +0.154 C 
ATOM      3  N   UNL     1       0.592  -4.844  -1.451  0.00  0.00    -0.275 N 
ATOM      4  C   UNL     1       1.207  -6.134  -1.394  0.00  0.00    +0.116 C 
ATOM      5  C   UNL     1       0.759  -7.251  -0.467  0.00  0.00    +0.190 C 
ATOM      6  S   UNL     1       1.672  -8.679  -1.214  0.00  0.00    -0.028 S 
ATOM      7  O   UNL     1       0.737  -9.677  -1.599  0.00  0.00    -0.174 OA
ATOM      8  O   UNL     1       2.760  -9.028  -0.368  0.00  0.00    -0.174 OA
ATOM      9  C   UNL     1       2.329  -7.845  -2.735  0.00  0.00    +0.182 C 
ATOM     10  C   UNL     1       1.263  -6.732  -2.851  0.00  0.00    +0.097 C 
ATOM     11  S   UNL     1       1.876  -5.183  -3.614  0.00  0.00    -0.086 S 
ENDROOT
BRANCH   3  12
ATOM     12  C   UNL     1      -0.329  -4.406  -0.493  0.00  0.00    +0.056 A 
ATOM     13  C   UNL     1      -1.691  -4.475  -0.753  0.00  0.00    +0.025 A 
ATOM     14  C   UNL     1      -2.598  -4.042   0.194  0.00  0.00    +0.003 A 
ATOM     15  C   UNL     1      -2.151  -3.539   1.403  0.00  0.00    +0.021 A 
ATOM     16  C   UNL     1      -0.795  -3.468   1.667  0.00  0.00    +0.061 A 
ATOM     17  C   UNL     1       0.118  -3.905   0.724  0.00  0.00    +0.081 A 
ATOM     18 CL   UNL     1       1.820  -3.823   1.058  0.00  0.00    -0.080 Cl
ATOM     19 CL   UNL     1      -0.239  -2.836   3.185  0.00  0.00    -0.082 Cl
ENDBRANCH   3  12
BRANCH   1  20
ATOM     20  C   UNL     1       0.194  -2.039  -1.755  0.00  0.00    +0.241 C 
ATOM     21  O   UNL     1       0.701  -2.027  -0.650  0.00  0.00    -0.273 OA
BRANCH  20  22
ATOM     22  C   UNL     1      -1.048  -1.228  -2.023  0.00  0.00    +0.074 C 
ATOM     23  C   UNL     1      -0.764  -0.212  -3.131  0.00  0.00    +0.017 C 
BRANCH  22  25
ATOM     24  C   UNL     1      -2.787   0.234  -0.984  0.00  0.00    +0.004 C 
ATOM     25  C   UNL     1      -1.460  -0.489  -0.748  0.00  0.00    +0.009 C 
ENDBRANCH  22  25
ENDBRANCH  20  22
ENDBRANCH   1  20
TORSDOF 4
