REMARK  Name = ZINC66561920
REMARK  5 active torsions:
REMARK  status: ('A' for Active; 'I' for Inactive)
REMARK    1  A    between atoms: C_1  and  C_2
REMARK    2  A    between atoms: N_5  and  C_9
REMARK    3  A    between atoms: N_12  and  C_15
REMARK    4  A    between atoms: C_15  and  C_16
REMARK    5  A    between atoms: N_18  and  C_19
REMARK                            x       y       z     vdW  Elec       q    Type
REMARK                         _______ _______ _______ _____ _____    ______ ____
ROOT
ATOM      1  C   UNL     1       1.771  -4.740  -6.041  0.00  0.00    +0.019 C 
ENDROOT
BRANCH   1   5
ATOM      2  C   UNL     1       1.439  -2.486  -2.440  0.00  0.00    +0.053 C 
ATOM      3  C   UNL     1       0.609  -2.080  -3.662  0.00  0.00    +0.000 C 
ATOM      4  C   UNL     1       1.230  -2.692  -4.919  0.00  0.00    -0.077 C 
ATOM      5  N   UNL     1       1.246  -4.155  -4.800  0.00  0.00    +0.385 N 
ATOM      6  C   UNL     1       2.098  -4.554  -3.674  0.00  0.00    -0.077 C 
ATOM      7  C   UNL     1       1.510  -4.014  -2.368  0.00  0.00    +0.000 C 
ATOM      8  H   UNL     1       0.306  -4.488  -4.645  0.00  0.00    -0.081 HD
BRANCH   2  12
ATOM      9  C   UNL     1      -0.019   1.526   0.010  0.00  0.00    +0.039 C 
ATOM     10  C   UNL     1       0.002  -0.004   0.002  0.00  0.00    +0.129 C 
ATOM     11  C   UNL     1       0.720  -0.499  -1.256  0.00  0.00    +0.116 C 
ATOM     12  N   UNL     1       0.805  -1.966  -1.221  0.00  0.00    -0.295 NA
ATOM     13  C   UNL     1       1.523  -2.417  -0.020  0.00  0.00    +0.113 C 
ATOM     14  C   UNL     1       0.797  -1.904   1.226  0.00  0.00    +0.175 C 
ATOM     15  O   UNL     1       0.695  -0.479   1.159  0.00  0.00    -0.374 OA
ENDBRANCH   2  12
ENDBRANCH   1   5
BRANCH   1  16
ATOM     16  C   UNL     1       1.673  -6.242  -5.969  0.00  0.00    +0.197 C 
ATOM     17  O   UNL     1       1.211  -6.773  -4.981  0.00  0.00    -0.278 OA
ATOM     18  N   UNL     1       2.098  -6.996  -7.002  0.00  0.00    -0.314 N 
ATOM     19  H   UNL     1       2.467  -6.571  -7.792  0.00  0.00    +0.149 HD
BRANCH  18  20
ATOM     20  C   UNL     1       2.003  -8.456  -6.931  0.00  0.00    +0.073 C 
ATOM     21  C   UNL     1       3.231  -9.012  -6.209  0.00  0.00    +0.027 C 
ATOM     22  C   UNL     1       3.130 -10.537  -6.132  0.00  0.00    +0.067 C 
ATOM     23  C   UNL     1       3.060 -11.114  -7.546  0.00  0.00    +0.170 C 
ATOM     24  C   UNL     1       1.836 -10.556  -8.274  0.00  0.00    +0.067 C 
ATOM     25  C   UNL     1       1.939  -9.031  -8.348  0.00  0.00    +0.027 C 
ATOM     26  O   UNL     1       4.250 -10.755  -8.268  0.00  0.00    -0.346 OA
ATOM     27  C   UNL     1       5.132 -11.893  -8.117  0.00  0.00    +0.191 C 
ATOM     28  C   UNL     1       4.131 -13.075  -8.156  0.00  0.00    +0.191 C 
ATOM     29  O   UNL     1       2.973 -12.543  -7.481  0.00  0.00    -0.346 OA
ENDBRANCH  18  20
ENDBRANCH   1  16
TORSDOF 4
