REMARK  Name = ZINC50008545
REMARK  5 active torsions:
REMARK  status: ('A' for Active; 'I' for Inactive)
REMARK    1  A    between atoms: C_1  and  C_2
REMARK    2  A    between atoms: C_5  and  N_8
REMARK    3  A    between atoms: N_8  and  C_9
REMARK    4  A    between atoms: C_10  and  C_12
REMARK    5  A    between atoms: C_14  and  N_19
REMARK                            x       y       z     vdW  Elec       q    Type
REMARK                         _______ _______ _______ _____ _____    ______ ____
ROOT
ATOM      1  N   UNL     1      -0.487  -4.149   0.081  0.00  0.00    -0.270 N 
ATOM      2  C   UNL     1      -1.135  -4.951  -0.960  0.00  0.00    +0.138 C 
ATOM      3  C   UNL     1      -0.020  -4.744   1.197  0.00  0.00    +0.252 C 
ATOM      4  O   UNL     1       0.447  -4.071   2.095  0.00  0.00    -0.270 OA
ENDROOT
BRANCH   1   9
ATOM      5  C   UNL     1       0.057   1.458  -0.582  0.00  0.00    +0.044 C 
ATOM      6  C   UNL     1      -0.087  -0.032  -0.406  0.00  0.00    -0.050 A 
ATOM      7  C   UNL     1      -0.834  -0.764  -1.310  0.00  0.00    +0.005 A 
ATOM      8  C   UNL     1      -0.968  -2.130  -1.152  0.00  0.00    +0.024 A 
ATOM      9  C   UNL     1      -0.352  -2.767  -0.082  0.00  0.00    +0.036 A 
ATOM     10  C   UNL     1       0.398  -2.029   0.824  0.00  0.00    +0.024 A 
ATOM     11  C   UNL     1       0.532  -0.664   0.657  0.00  0.00    +0.005 A 
ENDBRANCH   1   9
BRANCH   3  12
ATOM     12  C   UNL     1      -0.076  -6.215   1.329  0.00  0.00    +0.053 A 
ATOM     13  C   UNL     1      -0.133  -7.020   0.189  0.00  0.00    +0.047 A 
ATOM     14  C   UNL     1      -0.184  -8.392   0.319  0.00  0.00    +0.127 A 
ATOM     15  C   UNL     1      -0.181  -8.972   1.575  0.00  0.00    +0.034 A 
ATOM     16  C   UNL     1      -0.126  -8.182   2.709  0.00  0.00    +0.018 A 
ATOM     17  C   UNL     1      -0.068  -6.807   2.594  0.00  0.00    +0.030 A 
ATOM     18 BR   UNL     1       0.016  -5.729   4.145  0.00  0.00    -0.050 Br
BRANCH  14  19
ATOM     19  N   UNL     1      -0.244  -9.245  -0.889  0.00  0.00    +0.056 N 
ATOM     20  O   UNL     1      -0.247  -8.740  -1.987  0.00  0.00    -0.126 OA
ATOM     21  O   UNL     1      -0.289 -10.448  -0.777  0.00  0.00    -0.126 OA
ENDBRANCH  14  19
ENDBRANCH   3  12
TORSDOF 3
