REMARK  Name = ZINC04571273
REMARK  7 active torsions:
REMARK  status: ('A' for Active; 'I' for Inactive)
REMARK    1  A    between atoms: C_4  and  S_7
REMARK    2  A    between atoms: S_7  and  C_8
REMARK    3  A    between atoms: C_10  and  N_17
REMARK    4  A    between atoms: C_12  and  N_14
REMARK    5  A    between atoms: N_17  and  C_18
REMARK    6  A    between atoms: C_21  and  O_28
REMARK    7  A    between atoms: C_23  and  O_27
REMARK                            x       y       z     vdW  Elec       q    Type
REMARK                         _______ _______ _______ _____ _____    ______ ____
ROOT
ATOM      1  C   UNL     1      -3.950   2.134   0.561  0.00  0.00    +0.017 A 
ATOM      2  C   UNL     1      -5.287   1.773   0.657  0.00  0.00    +0.038 A 
ATOM      3  C   UNL     1      -6.275   2.735   0.497  0.00  0.00    +0.032 A 
ATOM      4  C   UNL     1      -5.923   4.055   0.240  0.00  0.00    +0.055 A 
ATOM      5  C   UNL     1      -4.591   4.410   0.145  0.00  0.00    +0.129 A 
ATOM      6  C   UNL     1      -3.605   3.457   0.310  0.00  0.00    +0.048 A 
ENDROOT
BRANCH   5   7
ATOM      7  N   UNL     1      -4.220   5.817  -0.128  0.00  0.00    +0.057 N 
ATOM      8  O   UNL     1      -5.088   6.659  -0.268  0.00  0.00    -0.126 OA
ATOM      9  O   UNL     1      -3.046   6.132  -0.212  0.00  0.00    -0.126 OA
ENDBRANCH   5   7
BRANCH   3  10
ATOM     10  N   UNL     1      -7.621   2.376   0.593  0.00  0.00    -0.319 N 
ATOM     11  H   UNL     1      -8.308   3.062   0.577  0.00  0.00    +0.148 HD
BRANCH  10  12
ATOM     12  C   UNL     1      -7.997   0.966   0.720  0.00  0.00    +0.206 C 
ATOM     13  C   UNL     1      -9.339   0.731   0.023  0.00  0.00    +0.085 C 
ATOM     14  C   UNL     1     -10.420   1.564   0.719  0.00  0.00    +0.149 C 
ATOM     15  C   UNL     1     -10.462   1.188   2.204  0.00  0.00    +0.169 C 
ATOM     16  C   UNL     1      -9.076   1.405   2.816  0.00  0.00    +0.196 C 
ATOM     17  O   UNL     1      -8.113   0.626   2.103  0.00  0.00    -0.356 OA
BRANCH  15  18
ATOM     18  O   UNL     1     -11.416   2.009   2.879  0.00  0.00    -0.387 OA
ATOM     19  H   UNL     1     -11.492   1.827   3.826  0.00  0.00    +0.210 HD
ENDBRANCH  15  18
BRANCH  14  20
ATOM     20  O   UNL     1     -11.691   1.297   0.123  0.00  0.00    -0.389 OA
ATOM     21  H   UNL     1     -12.423   1.787   0.520  0.00  0.00    +0.210 HD
ENDBRANCH  14  20
ENDBRANCH  10  12
ENDBRANCH   3  10
BRANCH   1  22
ATOM     22  S   UNL     1      -2.692   0.917   0.764  0.00  0.00    -0.089 S 
BRANCH  22  26
ATOM     23  C   UNL     1       1.147   3.320   0.820  0.00  0.00    +0.000 A 
ATOM     24  C   UNL     1       0.691   2.777  -0.367  0.00  0.00    +0.001 A 
ATOM     25  C   UNL     1      -0.477   2.041  -0.387  0.00  0.00    +0.015 A 
ATOM     26  C   UNL     1      -1.197   1.850   0.787  0.00  0.00    +0.013 A 
ATOM     27  C   UNL     1      -0.732   2.392   1.979  0.00  0.00    +0.015 A 
ATOM     28  C   UNL     1       0.437   3.127   1.991  0.00  0.00    +0.001 A 
ENDBRANCH  22  26
ENDBRANCH   1  22
TORSDOF 7
