REMARK  Name = ZINC15652015
REMARK  6 active torsions:
REMARK  status: ('A' for Active; 'I' for Inactive)
REMARK    1  A    between atoms: C_1  and  C_2
REMARK    2  A    between atoms: C_5  and  C_8
REMARK    3  A    between atoms: C_8  and  N_9
REMARK    4  A    between atoms: N_14  and  C_15
REMARK    5  A    between atoms: C_15  and  C_17
REMARK    6  A    between atoms: C_23  and  C_25
REMARK                            x       y       z     vdW  Elec       q    Type
REMARK                         _______ _______ _______ _____ _____    ______ ____
ROOT
ATOM      1  N   UNL     1       3.555   1.748  -0.022  0.00  0.00    -0.324 N 
ATOM      2  C   UNL     1       4.608   0.890  -0.037  0.00  0.00    +0.095 A 
ATOM      3  C   UNL     1       4.365  -0.425  -0.041  0.00  0.00    +0.066 A 
ATOM      4  S   UNL     1       2.582  -0.471  -0.017  0.00  0.00    -0.061 S 
ATOM      5  C   UNL     1       2.290   1.240  -0.013  0.00  0.00    +0.166 A 
ATOM      6  N   UNL     1       1.125   1.891   0.002  0.00  0.00    -0.156 NA
ENDROOT
BRANCH   6   7
ATOM      7  C   UNL     1      -0.014   1.212   0.009  0.00  0.00    +0.242 C 
ATOM      8  O   UNL     1       0.002  -0.004   0.002  0.00  0.00    -0.273 OA
BRANCH   7   9
ATOM      9  C   UNL     1      -1.330   1.948   0.019  0.00  0.00    +0.080 C 
ATOM     10  C   UNL     1      -1.416   2.820   1.273  0.00  0.00    +0.032 C 
ATOM     11  C   UNL     1      -2.739   3.593   1.263  0.00  0.00    +0.108 C 
ATOM     12  N   UNL     1      -3.844   2.636   1.116  0.00  0.00    -0.301 N 
ATOM     13  C   UNL     1      -3.814   1.689  -0.006  0.00  0.00    +0.108 C 
ATOM     14  C   UNL     1      -2.479   0.938   0.018  0.00  0.00    +0.032 C 
ATOM     15  C   UNL     1      -4.866   2.628   1.994  0.00  0.00    +0.219 C 
ATOM     16  O   UNL     1      -5.773   1.833   1.862  0.00  0.00    -0.275 OA
BRANCH  15  17
ATOM     17  C   UNL     1      -4.883   3.606   3.141  0.00  0.00    +0.075 C 
ATOM     18  C   UNL     1      -4.697   3.045   4.552  0.00  0.00    +0.013 C 
ATOM     19  C   UNL     1      -6.071   3.547   4.103  0.00  0.00    +0.013 C 
ENDBRANCH  15  17
ENDBRANCH   7   9
ENDBRANCH   6   7
BRANCH   1  20
ATOM     20  C   UNL     1       3.775   3.196  -0.017  0.00  0.00    +0.158 C 
BRANCH  20  25
ATOM     21  C   UNL     1       8.755   4.379   2.666  0.00  0.00    +0.044 C 
ATOM     22  C   UNL     1       7.456   4.070   1.966  0.00  0.00    -0.050 A 
ATOM     23  C   UNL     1       7.442   3.844   0.603  0.00  0.00    +0.004 A 
ATOM     24  C   UNL     1       6.251   3.561  -0.039  0.00  0.00    +0.005 A 
ATOM     25  C   UNL     1       5.074   3.504   0.683  0.00  0.00    -0.028 A 
ATOM     26  C   UNL     1       5.087   3.736   2.046  0.00  0.00    +0.005 A 
ATOM     27  C   UNL     1       6.279   4.014   2.688  0.00  0.00    +0.004 A 
ENDBRANCH  20  25
ENDBRANCH   1  20
TORSDOF 5
