REMARK  Name = ZINC66605402
REMARK  4 active torsions:
REMARK  status: ('A' for Active; 'I' for Inactive)
REMARK    1  A    between atoms: C_5  and  C_7
REMARK    2  A    between atoms: C_9  and  C_12
REMARK    3  A    between atoms: N_14  and  C_15
REMARK    4  A    between atoms: C_15  and  C_16
REMARK                            x       y       z     vdW  Elec       q    Type
REMARK                         _______ _______ _______ _____ _____    ______ ____
ROOT
ATOM      1  C   UNL     1      -0.584  -5.300  -0.033  0.00  0.00    +0.263 C 
ATOM      2  O   UNL     1      -0.328  -6.489  -0.041  0.00  0.00    -0.269 OA
ATOM      3  N   UNL     1      -1.867  -4.887  -0.024  0.00  0.00    -0.303 N 
ATOM      4  H   UNL     1      -2.071  -3.939  -0.017  0.00  0.00    +0.150 HD
ENDROOT
BRANCH   1   7
ATOM      5  C   UNL     1       1.248  -2.161  -0.022  0.00  0.00    +0.110 A 
ATOM      6  N   UNL     1       0.239  -3.013  -0.023  0.00  0.00    -0.234 NA
ATOM      7  C   UNL     1       0.508  -4.311  -0.032  0.00  0.00    +0.133 A 
ATOM      8  C   UNL     1       1.815  -4.720  -0.041  0.00  0.00    +0.080 A 
ATOM      9  S   UNL     1       2.653  -3.261  -0.043  0.00  0.00    -0.075 S 
BRANCH   5  14
ATOM     10  C   UNL     1      -0.017   1.375   0.010  0.00  0.00    +0.001 A 
ATOM     11  C   UNL     1       1.170   2.087   0.002  0.00  0.00    +0.001 A 
ATOM     12  C   UNL     1       2.382   1.422  -0.013  0.00  0.00    +0.020 A 
ATOM     13  C   UNL     1       2.416   0.041  -0.021  0.00  0.00    +0.051 A 
ATOM     14  C   UNL     1       1.221  -0.682  -0.014  0.00  0.00    +0.025 A 
ATOM     15  C   UNL     1       0.002  -0.004   0.002  0.00  0.00    +0.012 A 
ATOM     16 CL   UNL     1       3.938  -0.793  -0.041  0.00  0.00    -0.083 Cl
ENDBRANCH   5  14
ENDBRANCH   1   7
BRANCH   3  17
ATOM     17  C   UNL     1      -2.953  -5.870  -0.024  0.00  0.00    +0.181 C 
BRANCH  17  18
ATOM     18  C   UNL     1      -4.279  -5.154  -0.013  0.00  0.00    +0.151 A 
ATOM     19  N   UNL     1      -4.954  -4.787   1.044  0.00  0.00    -0.133 NA
ATOM     20  N   UNL     1      -6.037  -4.193   0.681  0.00  0.00    -0.134 NA
ATOM     21  C   UNL     1      -6.099  -4.153  -0.619  0.00  0.00    +0.133 A 
ATOM     22  N   UNL     1      -4.990  -4.767  -1.095  0.00  0.00    -0.314 N 
ATOM     23  C   UNL     1      -4.648  -4.979  -2.502  0.00  0.00    +0.125 C 
ATOM     24  C   UNL     1      -5.278  -3.871  -3.350  0.00  0.00    +0.022 C 
ATOM     25  C   UNL     1      -6.681  -4.290  -3.787  0.00  0.00    +0.002 C 
ATOM     26  C   UNL     1      -7.576  -4.508  -2.571  0.00  0.00    +0.008 C 
ATOM     27  C   UNL     1      -7.185  -3.535  -1.461  0.00  0.00    +0.076 C 
ENDBRANCH  17  18
ENDBRANCH   3  17
TORSDOF 4
