REMARK  Name = ZINC26677573
REMARK  5 active torsions:
REMARK  status: ('A' for Active; 'I' for Inactive)
REMARK    1  A    between atoms: N_9  and  C_32
REMARK    2  A    between atoms: C_10  and  C_16
REMARK    3  A    between atoms: C_16  and  O_18
REMARK    4  A    between atoms: O_18  and  C_19
REMARK    5  A    between atoms: C_19  and  C_20
REMARK                            x       y       z     vdW  Elec       q    Type
REMARK                         _______ _______ _______ _____ _____    ______ ____
ROOT
ATOM      1  C   UNL     1       1.158   2.101   0.162  0.00  0.00    +0.001 A 
ATOM      2  C   UNL     1       2.369   1.435   0.056  0.00  0.00    +0.002 A 
ATOM      3  C   UNL     1       2.405   0.054  -0.035  0.00  0.00    +0.024 A 
ATOM      4  C   UNL     1       1.224  -0.655  -0.016  0.00  0.00    +0.051 A 
ATOM      5  C   UNL     1      -0.012   0.014   0.083  0.00  0.00    +0.058 A 
ATOM      6  C   UNL     1      -0.032   1.402   0.173  0.00  0.00    +0.015 A 
ATOM      7  C   UNL     1      -1.248  -0.791   0.071  0.00  0.00    +0.251 C 
ATOM      8  O   UNL     1      -2.317  -0.254  -0.150  0.00  0.00    -0.270 OA
ATOM      9  N   UNL     1      -1.199  -2.121   0.304  0.00  0.00    -0.263 N 
ATOM     10  C   UNL     1       0.072  -2.781   0.596  0.00  0.00    +0.210 C 
ATOM     11  N   UNL     1       1.160  -2.050  -0.076  0.00  0.00    -0.239 N 
ATOM     12  C   UNL     1       1.963  -2.877  -0.748  0.00  0.00    +0.222 C 
ATOM     13  O   UNL     1       3.018  -2.554  -1.252  0.00  0.00    -0.275 OA
ATOM     14  C   UNL     1       1.380  -4.267  -0.796  0.00  0.00    +0.101 C 
ATOM     15  C   UNL     1       0.098  -4.214   0.056  0.00  0.00    +0.067 C 
ENDROOT
BRANCH   9  16
ATOM     16  C   UNL     1      -2.432  -2.910   0.262  0.00  0.00    +0.079 C 
ATOM     17  C   UNL     1      -3.645  -2.365   1.018  0.00  0.00    +0.024 C 
ATOM     18  C   UNL     1      -2.887  -3.579   1.561  0.00  0.00    +0.024 C 
ENDBRANCH   9  16
BRANCH  10  19
ATOM     19  C   UNL     1       0.309  -2.793   2.084  0.00  0.00    +0.351 C 
ATOM     20  O   UNL     1      -0.600  -2.553   2.843  0.00  0.00    -0.246 OA
BRANCH  19  21
ATOM     21  O   UNL     1       1.531  -3.070   2.567  0.00  0.00    -0.457 OA
BRANCH  21  22
ATOM     22  C   UNL     1       1.687  -3.063   4.011  0.00  0.00    +0.268 C 
BRANCH  22  23
ATOM     23  C   UNL     1       3.114  -3.393   4.364  0.00  0.00    -0.005 A 
ATOM     24  C   UNL     1       4.045  -2.377   4.490  0.00  0.00    +0.056 A 
ATOM     25  C   UNL     1       5.356  -2.683   4.814  0.00  0.00    +0.164 A 
ATOM     26  C   UNL     1       5.733  -4.004   5.011  0.00  0.00    +0.180 A 
ATOM     27  C   UNL     1       4.799  -5.019   4.884  0.00  0.00    +0.087 A 
ATOM     28  C   UNL     1       3.487  -4.708   4.566  0.00  0.00    +0.031 A 
ATOM     29 CL   UNL     1       5.268  -6.672   5.131  0.00  0.00    -0.080 Cl
ATOM     30  O   UNL     1       7.028  -4.295   5.330  0.00  0.00    -0.487 OA
ATOM     31  C   UNL     1       7.465  -3.868   6.621  0.00  0.00    +0.232 C 
ATOM     32  C   UNL     1       7.918  -2.417   6.584  0.00  0.00    +0.082 C 
ATOM     33  C   UNL     1       6.778  -1.462   6.262  0.00  0.00    +0.232 C 
ATOM     34  O   UNL     1       6.285  -1.691   4.940  0.00  0.00    -0.488 OA
ENDBRANCH  22  23
ENDBRANCH  21  22
ENDBRANCH  19  21
ENDBRANCH  10  19
TORSDOF 5
