REMARK  Name = ZINC46025650
REMARK  8 active torsions:
REMARK  status: ('A' for Active; 'I' for Inactive)
REMARK    1  A    between atoms: C_1  and  C_2
REMARK    2  A    between atoms: C_2  and  C_3
REMARK    3  A    between atoms: C_2  and  C_4
REMARK    4  A    between atoms: C_2  and  C_5
REMARK    5  A    between atoms: C_11  and  N_13
REMARK    6  A    between atoms: N_16  and  N_17
REMARK    7  A    between atoms: C_18  and  C_20
REMARK    8  A    between atoms: C_20  and  C_21
REMARK                            x       y       z     vdW  Elec       q    Type
REMARK                         _______ _______ _______ _____ _____    ______ ____
ROOT
ATOM      1  N   UNL     1       2.506  -1.428  -0.241  0.00  0.00    -0.295 N 
ATOM      2  C   UNL     1       3.741  -1.035   0.129  0.00  0.00    +0.316 C 
ATOM      3  O   UNL     1       4.329  -0.188  -0.517  0.00  0.00    -0.251 OA
ATOM      4  N   UNL     1       4.325  -1.580   1.215  0.00  0.00    -0.218 N 
ATOM      5  H   UNL     1       2.038  -2.104   0.275  0.00  0.00    +0.151 HD
ATOM      6  H   UNL     1       5.214  -1.296   1.481  0.00  0.00    +0.174 HD
ENDROOT
BRANCH   1  12
ATOM      7  C   UNL     1       0.354  -0.814  -1.227  0.00  0.00    +0.015 C 
ATOM      8  C   UNL     1      -0.309  -0.196  -2.459  0.00  0.00    +0.006 C 
ATOM      9  C   UNL     1       0.035  -1.029  -3.696  0.00  0.00    +0.000 C 
ATOM     10  C   UNL     1       1.553  -1.051  -3.890  0.00  0.00    +0.002 C 
ATOM     11  C   UNL     1       2.216  -1.669  -2.657  0.00  0.00    +0.022 C 
ATOM     12  C   UNL     1       1.872  -0.836  -1.421  0.00  0.00    +0.078 C 
BRANCH   7  14
ATOM     13  C   UNL     1       0.661   1.399  -0.108  0.00  0.00    +0.011 C 
ATOM     14  C   UNL     1       0.010   0.019   0.009  0.00  0.00    -0.033 C 
ATOM     15  C   UNL     1       0.534  -0.687   1.262  0.00  0.00    +0.011 C 
ATOM     16  C   UNL     1      -1.508   0.178   0.111  0.00  0.00    +0.011 C 
ENDBRANCH   7  14
ENDBRANCH   1  12
BRANCH   4  17
ATOM     17  N   UNL     1       3.649  -2.555   1.959  0.00  0.00    -0.233 N 
ATOM     18  C   UNL     1       4.232  -3.100   3.045  0.00  0.00    +0.229 C 
ATOM     19  O   UNL     1       5.344  -2.746   3.377  0.00  0.00    -0.274 OA
ATOM     20  H   UNL     1       2.760  -2.838   1.693  0.00  0.00    +0.173 HD
BRANCH  18  21
ATOM     21  C   UNL     1       3.505  -4.149   3.845  0.00  0.00    +0.102 C 
BRANCH  21  22
ATOM     22  C   UNL     1       4.382  -4.597   5.015  0.00  0.00    +0.020 C 
ATOM     23  C   UNL     1       5.625  -5.329   4.482  0.00  0.00    +0.028 C 
ATOM     24  C   UNL     1       6.346  -6.059   5.641  0.00  0.00    +0.166 C 
ATOM     25  S   UNL     1       4.973  -6.408   6.814  0.00  0.00    -0.031 S 
ATOM     26  O   UNL     1       4.735  -7.809   6.845  0.00  0.00    -0.174 OA
ATOM     27  O   UNL     1       5.216  -5.713   8.030  0.00  0.00    -0.174 OA
ATOM     28  C   UNL     1       3.589  -5.585   5.918  0.00  0.00    +0.170 C 
ENDBRANCH  21  22
ENDBRANCH  18  21
ENDBRANCH   4  17
TORSDOF 5
