REMARK  Name = ZINC20962527
REMARK  3 active torsions:
REMARK  status: ('A' for Active; 'I' for Inactive)
REMARK    1  A    between atoms: C_4  and  C_7
REMARK    2  A    between atoms: C_7  and  C_9
REMARK    3  A    between atoms: C_7  and  N_15
REMARK                            x       y       z     vdW  Elec       q    Type
REMARK                         _______ _______ _______ _____ _____    ______ ____
ROOT
ATOM      1  C   UNL     1      -0.056   0.999   2.425  0.00  0.00    +0.174 C 
ENDROOT
BRANCH   1   2
ATOM      2  N   UNL     1      -0.690   1.554   1.222  0.00  0.00    -0.283 NA
ATOM      3  C   UNL     1      -2.119   1.210   1.174  0.00  0.00    +0.090 C 
ATOM      4  C   UNL     1      -2.796   2.099   0.130  0.00  0.00    +0.051 C 
ATOM      5  C   UNL     1      -2.027   2.048  -1.166  0.00  0.00    -0.042 A 
ATOM      6  C   UNL     1      -2.651   2.489  -2.323  0.00  0.00    +0.004 A 
ATOM      7  C   UNL     1      -1.980   2.464  -3.530  0.00  0.00    +0.000 A 
ATOM      8  C   UNL     1      -0.680   1.997  -3.584  0.00  0.00    +0.000 A 
ATOM      9  C   UNL     1      -0.059   1.556  -2.433  0.00  0.00    +0.005 A 
ATOM     10  C   UNL     1      -0.732   1.580  -1.220  0.00  0.00    -0.030 A 
ATOM     11  C   UNL     1      -0.013   1.086   0.008  0.00  0.00    +0.121 C 
ENDBRANCH   1   2
BRANCH   1  12
ATOM     12  C   UNL     1      -0.715   1.576   3.651  0.00  0.00    +0.242 C 
ATOM     13  O   UNL     1      -1.622   2.372   3.534  0.00  0.00    -0.273 OA
ATOM     14  N   UNL     1      -0.295   1.208   4.878  0.00  0.00    -0.239 N 
ATOM     15  C   UNL     1      -0.884   1.725   5.975  0.00  0.00    +0.303 C 
ATOM     16  O   UNL     1      -1.793   2.523   5.858  0.00  0.00    -0.253 OA
ATOM     17  N   UNL     1      -0.464   1.357   7.202  0.00  0.00    -0.313 N 
ATOM     18  H   UNL     1       0.528   0.487   4.984  0.00  0.00    +0.159 HD
ATOM     19  H   UNL     1      -0.945   1.779   8.097  0.00  0.00    +0.146 HD
ATOM     20  H   UNL     1       0.359   0.635   7.308  0.00  0.00    +0.146 HD
ENDBRANCH   1  12
BRANCH   1  24
ATOM     21  C   UNL     1       4.098   1.995   2.436  0.00  0.00    +0.000 A 
ATOM     22  C   UNL     1       3.687   0.741   2.849  0.00  0.00    +0.000 A 
ATOM     23  C   UNL     1       2.342   0.419   2.845  0.00  0.00    +0.005 A 
ATOM     24  C   UNL     1       1.409   1.350   2.429  0.00  0.00    -0.021 A 
ATOM     25  C   UNL     1       1.821   2.602   2.012  0.00  0.00    +0.005 A 
ATOM     26  C   UNL     1       3.165   2.926   2.019  0.00  0.00    +0.000 A 
ENDBRANCH   1  24
TORSDOF 3
