REMARK  Name = ZINC21213861
REMARK  2 active torsions:
REMARK  status: ('A' for Active; 'I' for Inactive)
REMARK    1  A    between atoms: C_1  and  C_2
REMARK    2  A    between atoms: C_7  and  C_12
REMARK                            x       y       z     vdW  Elec       q    Type
REMARK                         _______ _______ _______ _____ _____    ______ ____
ROOT
ATOM      1  C   UNL     1      -0.019   1.526   0.010  0.00  0.00    +0.008 C 
ATOM      2  C   UNL     1       0.002  -0.004   0.002  0.00  0.00    -0.009 C 
ATOM      3  C   UNL     1      -1.434  -0.536   0.019  0.00  0.00    +0.008 C 
ATOM      4  C   UNL     1      -1.433  -2.045  -0.238  0.00  0.00    +0.037 C 
ATOM      5  C   UNL     1      -0.465  -2.704   0.733  0.00  0.00    -0.025 A 
ATOM      6  C   UNL     1      -0.459  -4.117   1.061  0.00  0.00    +0.047 A 
ATOM      7  C   UNL     1       0.484  -4.556   1.961  0.00  0.00    +0.058 A 
ATOM      8  S   UNL     1       1.339  -3.170   2.371  0.00  0.00    -0.101 S 
ATOM      9  C   UNL     1       0.484  -1.986   1.374  0.00  0.00    -0.006 A 
ATOM     10  C   UNL     1       0.740  -0.515   1.249  0.00  0.00    +0.046 C 
ENDROOT
BRANCH   6  11
ATOM     11  C   UNL     1      -1.425  -5.046   0.453  0.00  0.00    +0.251 C 
ATOM     12  O   UNL     1      -2.249  -4.633  -0.341  0.00  0.00    -0.270 OA
ATOM     13  N   UNL     1      -1.397  -6.354   0.775  0.00  0.00    -0.259 N 
ATOM     14  C   UNL     1      -2.309  -7.231   0.201  0.00  0.00    +0.188 A 
ATOM     15  N   UNL     1      -3.275  -7.003  -0.678  0.00  0.00    -0.126 NA
ATOM     16  N   UNL     1      -4.023  -7.927  -1.100  0.00  0.00    -0.148 NA
ATOM     17  C   UNL     1      -3.893  -9.175  -0.696  0.00  0.00    +0.183 A 
ATOM     18  S   UNL     1      -2.513  -8.995   0.431  0.00  0.00    -0.039 S 
ATOM     19  H   UNL     1      -0.739  -6.684   1.408  0.00  0.00    +0.157 HD
ENDBRANCH   6  11
TORSDOF 1
