REMARK  Name = ZINC04362119
REMARK  8 active torsions:
REMARK  status: ('A' for Active; 'I' for Inactive)
REMARK    1  A    between atoms: C_1  and  O_2
REMARK    2  A    between atoms: O_2  and  C_3
REMARK    3  A    between atoms: C_6  and  C_9
REMARK    4  A    between atoms: C_9  and  S_10
REMARK    5  A    between atoms: S_10  and  C_11
REMARK    6  A    between atoms: C_13  and  C_20
REMARK    7  A    between atoms: N_22  and  N_23
REMARK    8  A    between atoms: C_24  and  C_26
REMARK                            x       y       z     vdW  Elec       q    Type
REMARK                         _______ _______ _______ _____ _____    ______ ____
ROOT
ATOM      1  C   UNL     1       4.577  -0.126  -1.580  0.00  0.00    +0.004 C 
ATOM      2  C   UNL     1       4.597  -1.306  -2.556  0.00  0.00    +0.075 C 
ATOM      3  C   UNL     1       5.770  -1.125  -3.527  0.00  0.00    -0.003 C 
ATOM      4  C   UNL     1       7.071  -1.057  -2.717  0.00  0.00    -0.015 C 
ATOM      5  C   UNL     1       6.982   0.117  -1.737  0.00  0.00    -0.077 C 
ATOM      6  C   UNL     1       5.541   1.342  -3.248  0.00  0.00    -0.077 C 
ATOM      7  C   UNL     1       5.588   0.204  -4.272  0.00  0.00    -0.015 C 
ATOM      8  N   UNL     1       5.683   0.809  -1.877  0.00  0.00    +0.388 N 
ATOM      9  H   UNL     1       5.648   1.589  -1.210  0.00  0.00    -0.080 HD
ENDROOT
BRANCH   2  10
ATOM     10  C   UNL     1       4.771  -2.592  -1.789  0.00  0.00    +0.232 C 
ATOM     11  O   UNL     1       5.729  -3.303  -2.006  0.00  0.00    -0.274 OA
ATOM     12  N   UNL     1       3.860  -2.953  -0.864  0.00  0.00    -0.234 N 
ATOM     13  H   UNL     1       3.093  -2.385  -0.691  0.00  0.00    +0.173 HD
BRANCH  12  14
ATOM     14  N   UNL     1       4.021  -4.149  -0.151  0.00  0.00    -0.230 N 
ATOM     15  C   UNL     1       3.110  -4.510   0.774  0.00  0.00    +0.260 C 
ATOM     16  O   UNL     1       2.149  -3.798   0.991  0.00  0.00    -0.269 OA
ATOM     17  H   UNL     1       4.788  -4.717  -0.324  0.00  0.00    +0.173 HD
BRANCH  15  18
ATOM     18  C   UNL     1       3.280  -5.771   1.526  0.00  0.00    +0.038 A 
ATOM     19  C   UNL     1       4.379  -6.594   1.275  0.00  0.00    +0.013 A 
ATOM     20  C   UNL     1       4.535  -7.767   1.984  0.00  0.00    +0.001 A 
ATOM     21  C   UNL     1       3.598  -8.135   2.934  0.00  0.00    +0.000 A 
ATOM     22  C   UNL     1       2.503  -7.327   3.183  0.00  0.00    +0.001 A 
ATOM     23  C   UNL     1       2.339  -6.148   2.485  0.00  0.00    +0.013 A 
ENDBRANCH  15  18
ENDBRANCH  12  14
ENDBRANCH   2  10
BRANCH   1  24
ATOM     24  S   UNL     1       3.001   0.758  -1.733  0.00  0.00    -0.171 S 
BRANCH  24  25
ATOM     25  C   UNL     1       2.490   1.045  -0.016  0.00  0.00    +0.102 C 
BRANCH  25  29
ATOM     26  C   UNL     1      -1.237   3.137   0.031  0.00  0.00    +0.120 A 
ATOM     27  C   UNL     1      -1.218   1.750   0.017  0.00  0.00    +0.046 A 
ATOM     28  C   UNL     1      -0.013   1.076   0.008  0.00  0.00    +0.008 A 
ATOM     29  C   UNL     1       1.176   1.783   0.000  0.00  0.00    -0.037 A 
ATOM     30  C   UNL     1       1.160   3.165   0.008  0.00  0.00    +0.008 A 
ATOM     31  C   UNL     1      -0.043   3.844   0.024  0.00  0.00    +0.046 A 
BRANCH  26  33
ATOM     32  C   UNL     1      -3.611   3.009   0.053  0.00  0.00    +0.277 C 
ATOM     33  O   UNL     1      -2.422   3.802   0.046  0.00  0.00    -0.495 OA
ENDBRANCH  26  33
ENDBRANCH  25  29
ENDBRANCH  24  25
ENDBRANCH   1  24
TORSDOF 7
