REMARK  Name = ZINC55491311
REMARK  2 active torsions:
REMARK  status: ('A' for Active; 'I' for Inactive)
REMARK    1  A    between atoms: C_1  and  C_2
REMARK    2  A    between atoms: C_14  and  C_18
REMARK                            x       y       z     vdW  Elec       q    Type
REMARK                         _______ _______ _______ _____ _____    ______ ____
ROOT
ATOM      1  C   UNL     1      -0.018   1.503   0.010  0.00  0.00    +0.086 C 
ATOM      2  C   UNL     1       0.002  -0.004   0.002  0.00  0.00    +0.108 A 
ATOM      3  N   UNL     1      -1.172  -0.687   0.004  0.00  0.00    -0.311 N 
ATOM      4  H   UNL     1      -2.007  -0.195   0.011  0.00  0.00    +0.170 HD
ATOM      5  C   UNL     1      -1.199  -2.033  -0.004  0.00  0.00    +0.260 A 
ATOM      6  O   UNL     1      -2.261  -2.631  -0.003  0.00  0.00    -0.267 OA
ATOM      7  C   UNL     1       0.042  -2.751  -0.013  0.00  0.00    +0.075 A 
ATOM      8  C   UNL     1       0.254  -4.197  -0.021  0.00  0.00    -0.023 A 
ATOM      9  C   UNL     1       1.533  -4.628  -0.030  0.00  0.00    -0.004 A 
ATOM     10  S   UNL     1       2.515  -3.152  -0.029  0.00  0.00    -0.073 S 
ATOM     11  C   UNL     1       1.201  -1.959  -0.015  0.00  0.00    +0.116 A 
ATOM     12  N   UNL     1       1.149  -0.630  -0.012  0.00  0.00    -0.227 NA
ATOM     13  C   UNL     1       2.013  -6.048  -0.038  0.00  0.00    +0.051 C 
ATOM     14  C   UNL     1       0.837  -6.958   0.341  0.00  0.00    +0.024 C 
ATOM     15  C   UNL     1      -0.385  -6.553  -0.489  0.00  0.00    +0.013 C 
ATOM     16  C   UNL     1      -0.903  -5.192  -0.020  0.00  0.00    +0.037 C 
ENDROOT
BRANCH  14  17
ATOM     17  C   UNL     1       1.194  -8.393   0.051  0.00  0.00    -0.044 A 
ATOM     18  C   UNL     1       1.517  -8.778  -1.237  0.00  0.00    +0.004 A 
ATOM     19  C   UNL     1       1.846 -10.095  -1.503  0.00  0.00    +0.000 A 
ATOM     20  C   UNL     1       1.851 -11.026  -0.481  0.00  0.00    +0.000 A 
ATOM     21  C   UNL     1       1.529 -10.640   0.807  0.00  0.00    +0.000 A 
ATOM     22  C   UNL     1       1.205  -9.323   1.073  0.00  0.00    +0.004 A 
ENDBRANCH  14  17
TORSDOF 1
