REMARK  Name = ZINC39607699
REMARK  7 active torsions:
REMARK  status: ('A' for Active; 'I' for Inactive)
REMARK    1  A    between atoms: C_4  and  N_8
REMARK    2  A    between atoms: C_5  and  C_6
REMARK    3  A    between atoms: C_9  and  C_11
REMARK    4  A    between atoms: C_11  and  O_12
REMARK    5  A    between atoms: O_12  and  C_13
REMARK    6  A    between atoms: C_13  and  C_15
REMARK    7  A    between atoms: C_16  and  C_17
REMARK                            x       y       z     vdW  Elec       q    Type
REMARK                         _______ _______ _______ _____ _____    ______ ____
ROOT
ATOM      1  O   UNL     1       4.557  -4.035  -0.065  0.00  0.00    -0.452 OA
ENDROOT
BRANCH   1   2
ATOM      2  C   UNL     1       5.011  -5.308  -0.077  0.00  0.00    +0.332 C 
ATOM      3  O   UNL     1       4.222  -6.236  -0.075  0.00  0.00    -0.246 OA
BRANCH   2   4
ATOM      4  C   UNL     1       6.394  -5.561  -0.091  0.00  0.00    +0.093 C 
ATOM      5  C   UNL     1       6.852  -6.845  -0.103  0.00  0.00    +0.036 C 
BRANCH   5   6
ATOM      6  C   UNL     1       8.236  -7.098  -0.118  0.00  0.00    +0.085 A 
ATOM      7  C   UNL     1       9.169  -6.533  -0.973  0.00  0.00    +0.156 A 
ATOM      8  N   UNL     1      10.361  -7.032  -0.663  0.00  0.00    -0.209 NA
ATOM      9  C   UNL     1      10.240  -7.875   0.332  0.00  0.00    +0.179 A 
ATOM     10  N   UNL     1       8.938  -7.968   0.736  0.00  0.00    -0.292 N 
ATOM     11  C   UNL     1       8.665  -8.818   1.782  0.00  0.00    +0.101 A 
ATOM     12  C   UNL     1       9.640  -9.511   2.370  0.00  0.00    +0.067 A 
ATOM     13  S   UNL     1      11.072  -8.995   1.435  0.00  0.00    -0.058 S 
ATOM     14 CL   UNL     1       8.840  -5.378  -2.226  0.00  0.00    -0.060 Cl
ENDBRANCH   5   6
ENDBRANCH   2   4
ENDBRANCH   1   2
BRANCH   1  15
ATOM     15  C   UNL     1       3.140  -3.852  -0.050  0.00  0.00    +0.328 C 
BRANCH  15  17
ATOM     16  N   UNL     1       1.541  -1.965  -0.024  0.00  0.00    -0.276 N 
ATOM     17  C   UNL     1       2.824  -2.379  -0.039  0.00  0.00    +0.255 C 
ATOM     18  O   UNL     1       3.723  -1.566  -0.043  0.00  0.00    -0.272 OA
ATOM     19  H   UNL     1       0.821  -2.615  -0.021  0.00  0.00    +0.155 HD
BRANCH  16  23
ATOM     20  C   UNL     1      -0.018   1.440   0.010  0.00  0.00    +0.028 A 
ATOM     21  C   UNL     1       1.187   2.043   0.002  0.00  0.00    +0.048 A 
ATOM     22  S   UNL     1       2.328   0.678  -0.017  0.00  0.00    -0.081 S 
ATOM     23  C   UNL     1       1.250  -0.608  -0.013  0.00  0.00    +0.089 A 
ATOM     24  C   UNL     1       0.002  -0.004   0.002  0.00  0.00    +0.080 A 
BRANCH  24  25
ATOM     25  C   UNL     1      -1.206  -0.773   0.010  0.00  0.00    +0.102 C 
ATOM     26  N   UNL     1      -2.164  -1.383   0.016  0.00  0.00    -0.191 NA
ENDBRANCH  24  25
ENDBRANCH  16  23
ENDBRANCH  15  17
ENDBRANCH   1  15
TORSDOF 7
