REMARK  Name = ZINC57844410
REMARK  6 active torsions:
REMARK  status: ('A' for Active; 'I' for Inactive)
REMARK    1  A    between atoms: C_1  and  C_2
REMARK    2  A    between atoms: C_5  and  C_8
REMARK    3  A    between atoms: N_12  and  C_16
REMARK    4  A    between atoms: C_16  and  C_17
REMARK    5  A    between atoms: C_17  and  C_19
REMARK    6  A    between atoms: C_17  and  C_20
REMARK                            x       y       z     vdW  Elec       q    Type
REMARK                         _______ _______ _______ _____ _____    ______ ____
ROOT
ATOM      1  C   UNL     1       0.059  -4.275  -0.021  0.00  0.00    +0.191 C 
ATOM      2  C   UNL     1      -1.319  -4.828   0.281  0.00  0.00    +0.248 C 
ATOM      3  O   UNL     1      -2.332  -4.664  -0.364  0.00  0.00    -0.273 OA
ATOM      4  N   UNL     1      -1.184  -5.541   1.417  0.00  0.00    -0.223 N 
ATOM      5  C   UNL     1       0.074  -5.516   1.869  0.00  0.00    +0.309 C 
ATOM      6  O   UNL     1       0.442  -6.085   2.878  0.00  0.00    -0.252 OA
ATOM      7  N   UNL     1       0.892  -4.789   1.080  0.00  0.00    -0.284 N 
ATOM      8  H   UNL     1       1.841  -4.634   1.210  0.00  0.00    +0.151 HD
ENDROOT
BRANCH   1  13
ATOM      9  C   UNL     1      -0.018   1.503   0.010  0.00  0.00    +0.044 C 
ATOM     10  C   UNL     1       0.002  -0.004   0.002  0.00  0.00    -0.050 A 
ATOM     11  C   UNL     1       0.006  -0.689  -1.199  0.00  0.00    +0.004 A 
ATOM     12  C   UNL     1       0.025  -2.071  -1.206  0.00  0.00    +0.006 A 
ATOM     13  C   UNL     1       0.040  -2.768  -0.013  0.00  0.00    -0.018 A 
ATOM     14  C   UNL     1       0.037  -2.084   1.188  0.00  0.00    +0.006 A 
ATOM     15  C   UNL     1       0.023  -0.702   1.195  0.00  0.00    +0.004 A 
ENDBRANCH   1  13
BRANCH   4  16
ATOM     16  C   UNL     1      -2.281  -6.255   2.076  0.00  0.00    +0.136 C 
BRANCH  16  17
ATOM     17  C   UNL     1      -2.362  -7.682   1.530  0.00  0.00    +0.106 C 
ATOM     18  C   UNL     1      -1.093  -8.447   1.913  0.00  0.00    +0.025 C 
BRANCH  17  19
ATOM     19  C   UNL     1      -3.536  -8.361   2.102  0.00  0.00    +0.067 C 
ATOM     20  N   UNL     1      -4.442  -8.884   2.544  0.00  0.00    -0.196 NA
ENDBRANCH  17  19
ENDBRANCH  16  17
ENDBRANCH   4  16
TORSDOF 4
