REMARK  Name = ZINC02724747
REMARK  4 active torsions:
REMARK  status: ('A' for Active; 'I' for Inactive)
REMARK    1  A    between atoms: C_1  and  O_2
REMARK    2  A    between atoms: O_2  and  C_3
REMARK    3  A    between atoms: C_8  and  C_9
REMARK    4  A    between atoms: C_22  and  C_24
REMARK                            x       y       z     vdW  Elec       q    Type
REMARK                         _______ _______ _______ _____ _____    ______ ____
ROOT
ATOM      1  C   UNL     1       0.042  -2.687   0.289  0.00  0.00    +0.251 C 
ATOM      2  O   UNL     1       0.521  -1.871  -0.473  0.00  0.00    -0.270 OA
ATOM      3  N   UNL     1       0.286  -4.001   0.111  0.00  0.00    -0.277 N 
ATOM      4  C   UNL     1       1.213  -4.393  -0.937  0.00  0.00    +0.205 C 
ATOM      5  C   UNL     1       0.478  -5.063  -2.052  0.00  0.00    +0.235 C 
ATOM      6  O   UNL     1       0.899  -4.873  -3.174  0.00  0.00    -0.274 OA
ATOM      7  N   UNL     1      -0.568  -5.830  -1.943  0.00  0.00    -0.284 N 
ATOM      8  C   UNL     1      -1.546  -6.063  -1.003  0.00  0.00    +0.039 A 
ATOM      9  C   UNL     1      -2.669  -6.764  -1.476  0.00  0.00    +0.026 A 
ATOM     10  C   UNL     1      -3.725  -7.065  -0.651  0.00  0.00    +0.040 A 
ATOM     11  C   UNL     1      -3.691  -6.672   0.677  0.00  0.00    +0.124 A 
ATOM     12  C   UNL     1      -2.594  -5.986   1.150  0.00  0.00    +0.046 A 
ATOM     13  C   UNL     1      -1.516  -5.680   0.321  0.00  0.00    +0.001 A 
ATOM     14  C   UNL     1      -0.381  -4.942   0.971  0.00  0.00    +0.139 C 
ATOM     15  F   UNL     1      -4.724  -6.959   1.500  0.00  0.00    -0.205 F 
ATOM     16  H   UNL     1      -0.690  -6.383  -2.731  0.00  0.00    +0.155 HD
ENDROOT
BRANCH   1  22
ATOM     17  C   UNL     1      -0.317  -1.314   2.340  0.00  0.00    +0.132 A 
ATOM     18  C   UNL     1      -1.125  -0.896   3.387  0.00  0.00    +0.046 A 
ATOM     19  C   UNL     1      -2.405  -1.397   3.514  0.00  0.00    +0.004 A 
ATOM     20  C   UNL     1      -2.892  -2.319   2.601  0.00  0.00    +0.001 A 
ATOM     21  C   UNL     1      -2.102  -2.744   1.555  0.00  0.00    +0.017 A 
ATOM     22  C   UNL     1      -0.807  -2.241   1.410  0.00  0.00    +0.078 A 
BRANCH  17  24
ATOM     23  C   UNL     1       1.373   0.119   3.198  0.00  0.00    +0.277 C 
ATOM     24  O   UNL     1       0.942  -0.822   2.213  0.00  0.00    -0.494 OA
ENDBRANCH  17  24
ENDBRANCH   1  22
BRANCH  14  25
ATOM     25  C   UNL     1       0.633  -5.948   1.452  0.00  0.00    -0.023 A 
ATOM     26  C   UNL     1       0.971  -6.002   2.791  0.00  0.00    +0.006 A 
ATOM     27  C   UNL     1       1.901  -6.926   3.232  0.00  0.00    +0.000 A 
ATOM     28  C   UNL     1       2.491  -7.795   2.334  0.00  0.00    +0.000 A 
ATOM     29  C   UNL     1       2.152  -7.741   0.995  0.00  0.00    +0.000 A 
ATOM     30  C   UNL     1       1.220  -6.821   0.555  0.00  0.00    +0.006 A 
ENDBRANCH  14  25
TORSDOF 3
