REMARK  Name = ZINC06344655
REMARK  1 active torsions:
REMARK  status: ('A' for Active; 'I' for Inactive)
REMARK    1  A    between atoms: C_4  and  C_7
REMARK                            x       y       z     vdW  Elec       q    Type
REMARK                         _______ _______ _______ _____ _____    ______ ____
ROOT
ATOM      1  C   UNL     1      -3.415   2.867   0.049  0.00  0.00    +0.224 C 
ATOM      2  C   UNL     1      -2.475   4.053   0.046  0.00  0.00    +0.256 C 
ATOM      3  O   UNL     1      -2.774   5.228   0.054  0.00  0.00    -0.272 OA
ATOM      4  N   UNL     1      -1.228   3.525   0.031  0.00  0.00    -0.203 N 
ATOM      5  C   UNL     1      -1.294   2.140   0.020  0.00  0.00    +0.139 C 
ATOM      6  N   UNL     1      -2.520   1.703   0.035  0.00  0.00    -0.250 NA
ATOM      7  C   UNL     1      -0.017   1.386   0.010  0.00  0.00    +0.036 A 
ATOM      8  C   UNL     1       0.002  -0.004   0.002  0.00  0.00    +0.013 A 
ATOM      9  C   UNL     1       1.213  -0.667  -0.013  0.00  0.00    +0.001 A 
ATOM     10  C   UNL     1       2.401   0.046  -0.021  0.00  0.00    +0.002 A 
ATOM     11  C   UNL     1       2.393   1.427  -0.014  0.00  0.00    +0.024 A 
ATOM     12  C   UNL     1       1.185   2.109   0.002  0.00  0.00    +0.043 A 
ATOM     13  N   UNL     1       1.137   3.497   0.009  0.00  0.00    -0.296 N 
ATOM     14  C   UNL     1      -0.033   4.151   0.023  0.00  0.00    +0.149 C 
ATOM     15  S   UNL     1      -0.010   5.863   0.032  0.00  0.00    -0.018 S 
ATOM     16  H   UNL     1       2.070   4.080   0.004  0.00  0.00    +0.154 HD
ENDROOT
BRANCH   1  20
ATOM     17  C   UNL     1      -5.814   2.869   3.583  0.00  0.00    +0.000 A 
ATOM     18  C   UNL     1      -6.336   3.340   2.393  0.00  0.00    +0.000 A 
ATOM     19  C   UNL     1      -5.560   3.340   1.250  0.00  0.00    +0.006 A 
ATOM     20  C   UNL     1      -4.261   2.868   1.296  0.00  0.00    -0.014 A 
ATOM     21  C   UNL     1      -3.741   2.391   2.485  0.00  0.00    +0.006 A 
ATOM     22  C   UNL     1      -4.516   2.396   3.629  0.00  0.00    +0.000 A 
ENDBRANCH   1  20
TORSDOF 1
