REMARK  Name = ZINC16502020
REMARK  9 active torsions:
REMARK  status: ('A' for Active; 'I' for Inactive)
REMARK    1  A    between atoms: C_1  and  C_2
REMARK    2  A    between atoms: C_5  and  N_9
REMARK    3  A    between atoms: C_10  and  C_31
REMARK    4  A    between atoms: C_11  and  C_27
REMARK    5  A    between atoms: C_12  and  C_17
REMARK    6  A    between atoms: C_22  and  O_23
REMARK    7  A    between atoms: O_23  and  C_24
REMARK    8  A    between atoms: C_27  and  O_29
REMARK    9  A    between atoms: O_29  and  C_30
REMARK                            x       y       z     vdW  Elec       q    Type
REMARK                         _______ _______ _______ _____ _____    ______ ____
ROOT
ATOM      1  N   UNL     1      -1.578   1.549  -0.273  0.00  0.00    -0.255 N 
ATOM      2  C   UNL     1      -1.298   2.816   0.157  0.00  0.00    +0.027 C 
ATOM      3  C   UNL     1      -2.285   3.713   0.372  0.00  0.00    +0.078 C 
ATOM      4  C   UNL     1      -3.711   3.266   0.121  0.00  0.00    +0.145 C 
ATOM      5  N   UNL     1      -3.905   1.881  -0.341  0.00  0.00    -0.315 N 
ATOM      6  C   UNL     1      -2.818   1.105  -0.515  0.00  0.00    +0.142 C 
ATOM      7  S   UNL     1      -3.029  -0.505  -1.057  0.00  0.00    -0.018 S 
ATOM      8  C   UNL     1       0.135   3.218   0.395  0.00  0.00    +0.062 C 
ATOM      9  H   UNL     1      -4.795   1.538  -0.519  0.00  0.00    +0.149 HD
ENDROOT
BRANCH   1  14
ATOM     10  C   UNL     1       2.748  -2.028  -1.113  0.00  0.00    +0.047 C 
ATOM     11  C   UNL     1       1.600  -1.077  -0.888  0.00  0.00    -0.015 A 
ATOM     12  C   UNL     1       1.345  -0.075  -1.806  0.00  0.00    +0.008 A 
ATOM     13  C   UNL     1       0.294   0.798  -1.603  0.00  0.00    +0.024 A 
ATOM     14  C   UNL     1      -0.508   0.669  -0.476  0.00  0.00    +0.043 A 
ATOM     15  C   UNL     1      -0.252  -0.338   0.444  0.00  0.00    +0.062 A 
ATOM     16  C   UNL     1       0.803  -1.210   0.236  0.00  0.00    +0.128 A 
ATOM     17  F   UNL     1       1.054  -2.190   1.131  0.00  0.00    -0.205 F 
ENDBRANCH   1  14
BRANCH   4  18
ATOM     18  C   UNL     1      -4.311   4.188  -0.910  0.00  0.00    +0.019 A 
ATOM     19  C   UNL     1      -5.228   5.148  -0.528  0.00  0.00    +0.009 A 
ATOM     20  C   UNL     1      -5.779   5.994  -1.472  0.00  0.00    +0.001 A 
ATOM     21  C   UNL     1      -5.414   5.881  -2.801  0.00  0.00    +0.004 A 
ATOM     22  C   UNL     1      -4.497   4.923  -3.188  0.00  0.00    +0.046 A 
ATOM     23  C   UNL     1      -3.940   4.076  -2.241  0.00  0.00    +0.132 A 
BRANCH  23  24
ATOM     24  O   UNL     1      -3.034   3.136  -2.619  0.00  0.00    -0.434 OA
BRANCH  24  25
ATOM     25  C   UNL     1      -2.697   3.079  -4.006  0.00  0.00    +0.541 C 
ATOM     26  F   UNL     1      -3.837   2.753  -4.750  0.00  0.00    -0.166 F 
ATOM     27  F   UNL     1      -2.212   4.324  -4.420  0.00  0.00    -0.166 F 
ENDBRANCH  24  25
ENDBRANCH  23  24
ENDBRANCH   4  18
BRANCH   3  28
ATOM     28  C   UNL     1      -1.997   5.024   0.817  0.00  0.00    +0.339 C 
ATOM     29  O   UNL     1      -0.841   5.383   0.945  0.00  0.00    -0.245 OA
BRANCH  28  30
ATOM     30  O   UNL     1      -3.004   5.877   1.101  0.00  0.00    -0.465 OA
ATOM     31  C   UNL     1      -2.643   7.218   1.437  0.00  0.00    +0.280 C 
ENDBRANCH  28  30
ENDBRANCH   3  28
TORSDOF 6
