REMARK  Name = ZINC50811131
REMARK  5 active torsions:
REMARK  status: ('A' for Active; 'I' for Inactive)
REMARK    1  A    between atoms: C_5  and  N_7
REMARK    2  A    between atoms: N_7  and  C_8
REMARK    3  A    between atoms: C_10  and  C_11
REMARK    4  A    between atoms: C_10  and  C_13
REMARK    5  A    between atoms: C_13  and  C_15
REMARK                            x       y       z     vdW  Elec       q    Type
REMARK                         _______ _______ _______ _____ _____    ______ ____
ROOT
ATOM      1  C   UNL     1       0.073  -2.780   0.090  0.00  0.00    +0.262 C 
ATOM      2  O   UNL     1      -1.107  -2.129   0.107  0.00  0.00    -0.269 OA
ATOM      3  C   UNL     1       0.103  -4.169   0.185  0.00  0.00    +0.162 C 
ENDROOT
BRANCH   1   4
ATOM      4  N   UNL     1       1.237  -2.079  -0.021  0.00  0.00    -0.280 N 
ATOM      5  H   UNL     1       2.079  -2.550  -0.121  0.00  0.00    +0.155 HD
BRANCH   4  10
ATOM      6  C   UNL     1       0.161   1.367   0.674  0.00  0.00    +0.002 A 
ATOM      7  C   UNL     1       1.177   2.086   0.071  0.00  0.00    +0.002 A 
ATOM      8  C   UNL     1       2.213   1.425  -0.563  0.00  0.00    +0.022 A 
ATOM      9  C   UNL     1       2.237   0.044  -0.596  0.00  0.00    +0.062 A 
ATOM     10  C   UNL     1       1.217  -0.681   0.010  0.00  0.00    +0.052 A 
ATOM     11  C   UNL     1       0.178  -0.014   0.646  0.00  0.00    +0.025 A 
ATOM     12 CL   UNL     1       3.538  -0.785  -1.393  0.00  0.00    -0.082 Cl
ENDBRANCH   4  10
ENDBRANCH   1   4
BRANCH   3  13
ATOM     13  C   UNL     1       1.356  -4.861   0.167  0.00  0.00    +0.108 C 
ATOM     14  N   UNL     1       2.351  -5.410   0.153  0.00  0.00    -0.191 NA
ENDBRANCH   3  13
BRANCH   3  15
ATOM     15  C   UNL     1      -1.149  -4.923   0.304  0.00  0.00    +0.228 C 
ATOM     16  O   UNL     1      -2.220  -4.343   0.227  0.00  0.00    -0.284 OA
BRANCH  15  17
ATOM     17  C   UNL     1      -1.114  -6.369   0.515  0.00  0.00    +0.133 A 
ATOM     18  C   UNL     1      -0.997  -7.029   1.730  0.00  0.00    +0.159 A 
ATOM     19  N   UNL     1      -1.005  -8.332   1.494  0.00  0.00    -0.216 NA
ATOM     20  C   UNL     1      -1.122  -8.554   0.186  0.00  0.00    +0.140 A 
ATOM     21  N   UNL     1      -1.198  -7.350  -0.456  0.00  0.00    -0.295 N 
ATOM     22  C   UNL     1      -1.329  -7.293  -1.808  0.00  0.00    +0.093 A 
ATOM     23  C   UNL     1      -1.389  -8.426  -2.543  0.00  0.00    +0.018 A 
ATOM     24  C   UNL     1      -1.317  -9.678  -1.915  0.00  0.00    +0.005 A 
ATOM     25  C   UNL     1      -1.179  -9.744  -0.561  0.00  0.00    +0.047 A 
ATOM     26 CL   UNL     1      -0.861  -6.276   3.288  0.00  0.00    -0.060 Cl
ENDBRANCH  15  17
ENDBRANCH   3  15
TORSDOF 5
