REMARK  Name = ZINC11898443
REMARK  7 active torsions:
REMARK  status: ('A' for Active; 'I' for Inactive)
REMARK    1  A    between atoms: C_1  and  N_2
REMARK    2  A    between atoms: C_6  and  C_7
REMARK    3  A    between atoms: C_7  and  C_9
REMARK    4  A    between atoms: C_7  and  N_65
REMARK    5  A    between atoms: C_9  and  N_10
REMARK    6  A    between atoms: C_11  and  C_13
REMARK    7  A    between atoms: N_15  and  C_16
REMARK                            x       y       z     vdW  Elec       q    Type
REMARK                         _______ _______ _______ _____ _____    ______ ____
ROOT
ATOM      1  C   UNL     1       2.365   0.676  -0.077  0.00  0.00    -0.003 C 
ENDROOT
BRANCH   1  11
ATOM      2  C   UNL     1       1.000  -0.442  -1.738  0.00  0.00    -0.073 C 
ATOM      3  C   UNL     1       1.083  -1.052  -3.138  0.00  0.00    +0.017 C 
ATOM      4  C   UNL     1       2.021  -2.231  -3.130  0.00  0.00    -0.048 A 
ATOM      5  C   UNL     1       1.968  -3.126  -4.188  0.00  0.00    +0.004 A 
ATOM      6  C   UNL     1       2.816  -4.214  -4.224  0.00  0.00    +0.000 A 
ATOM      7  C   UNL     1       3.723  -4.414  -3.199  0.00  0.00    +0.000 A 
ATOM      8  C   UNL     1       3.775  -3.525  -2.145  0.00  0.00    +0.002 A 
ATOM      9  C   UNL     1       2.923  -2.431  -2.106  0.00  0.00    -0.061 A 
ATOM     10  C   UNL     1       3.014  -1.492  -0.933  0.00  0.00    -0.042 C 
ATOM     11  N   UNL     1       2.379  -0.206  -1.266  0.00  0.00    +0.389 N 
ATOM     12  H   UNL     1       2.916   0.250  -2.013  0.00  0.00    -0.080 HD
ENDBRANCH   1  11
BRANCH   1  18
ATOM     13  C   UNL     1       3.283   2.423   2.314  0.00  0.00    +0.148 C 
ATOM     14  N   UNL     1       4.163   1.904   1.264  0.00  0.00    -0.355 N 
ATOM     15  C   UNL     1       5.509   2.106   1.184  0.00  0.00    +0.085 A 
ATOM     16  C   UNL     1       5.964   1.478   0.080  0.00  0.00    +0.019 A 
ATOM     17  C   UNL     1       4.859   0.861  -0.539  0.00  0.00    +0.021 A 
ATOM     18  C   UNL     1       3.772   1.135   0.209  0.00  0.00    +0.006 A 
ENDBRANCH   1  18
BRANCH   1  19
ATOM     19  C   UNL     1       1.480   1.891  -0.362  0.00  0.00    +0.095 C 
BRANCH  19  20
ATOM     20  N   UNL     1       1.923   2.538  -1.599  0.00  0.00    -0.309 N 
ATOM     21  C   UNL     1       1.232   3.581  -2.099  0.00  0.00    +0.299 C 
ATOM     22  O   UNL     1       0.238   3.981  -1.528  0.00  0.00    -0.265 OA
ATOM     23  H   UNL     1       2.717   2.219  -2.056  0.00  0.00    +0.149 HD
BRANCH  21  24
ATOM     24  C   UNL     1       1.688   4.246  -3.358  0.00  0.00    +0.299 C 
ATOM     25  O   UNL     1       2.681   3.846  -3.929  0.00  0.00    -0.265 OA
ATOM     26  N   UNL     1       0.996   5.289  -3.858  0.00  0.00    -0.305 N 
ATOM     27  H   UNL     1       0.202   5.608  -3.401  0.00  0.00    +0.149 HD
BRANCH  26  28
ATOM     28  C   UNL     1       1.443   5.940  -5.092  0.00  0.00    +0.073 C 
ATOM     29  C   UNL     1       2.561   6.945  -4.749  0.00  0.00    +0.022 C 
ATOM     30  C   UNL     1       3.353   7.224  -5.998  0.00  0.00    +0.002 C 
ATOM     31  C   UNL     1       2.852   8.474  -6.747  0.00  0.00    +0.000 C 
ATOM     32  C   UNL     1       1.315   8.565  -6.796  0.00  0.00    +0.000 C 
ATOM     33  C   UNL     1       0.668   7.235  -7.074  0.00  0.00    +0.002 C 
ATOM     34  C   UNL     1       0.300   6.578  -5.729  0.00  0.00    +0.022 C 
ENDBRANCH  26  28
ENDBRANCH  21  24
ENDBRANCH  19  20
ENDBRANCH   1  19
TORSDOF 6
