REMARK  Name = ZINC35693795
REMARK  5 active torsions:
REMARK  status: ('A' for Active; 'I' for Inactive)
REMARK    1  A    between atoms: C_1  and  C_2
REMARK    2  A    between atoms: C_2  and  C_4
REMARK    3  A    between atoms: C_2  and  N_10
REMARK    4  A    between atoms: N_10  and  C_11
REMARK    5  A    between atoms: C_16  and  N_17
REMARK                            x       y       z     vdW  Elec       q    Type
REMARK                         _______ _______ _______ _____ _____    ______ ____
ROOT
ATOM      1  C   UNL     1      -2.054  -0.661   1.225  0.00  0.00    +0.060 A 
ATOM      2  C   UNL     1      -1.414  -0.318   2.416  0.00  0.00    +0.026 A 
ATOM      3  C   UNL     1      -2.084  -0.465   3.614  0.00  0.00    +0.019 A 
ATOM      4  C   UNL     1      -3.371  -0.946   3.617  0.00  0.00    +0.041 A 
ATOM      5  C   UNL     1      -4.051  -1.303   2.430  0.00  0.00    +0.110 A 
ATOM      6  C   UNL     1      -3.345  -1.139   1.220  0.00  0.00    +0.173 A 
ATOM      7  N   UNL     1      -5.304  -1.754   2.646  0.00  0.00    -0.245 NA
ATOM      8  C   UNL     1      -5.814  -1.841   3.840  0.00  0.00    +0.157 A 
ATOM      9  S   UNL     1      -4.590  -1.295   4.858  0.00  0.00    -0.075 S 
ENDROOT
BRANCH   6  10
ATOM     10  N   UNL     1      -3.996  -1.487  -0.064  0.00  0.00    +0.060 N 
ATOM     11  O   UNL     1      -3.899  -2.608  -0.505  0.00  0.00    -0.126 OA
ATOM     12  O   UNL     1      -4.623  -0.650  -0.670  0.00  0.00    -0.126 OA
ENDBRANCH   6  10
BRANCH   1  13
ATOM     13  N   UNL     1      -1.372  -0.511   0.012  0.00  0.00    -0.335 N 
ATOM     14  H   UNL     1      -1.810  -0.743  -0.822  0.00  0.00    +0.147 HD
BRANCH  13  16
ATOM     15  C   UNL     1      -0.019   1.526   0.010  0.00  0.00    +0.033 C 
ATOM     16  C   UNL     1       0.002  -0.004   0.002  0.00  0.00    +0.098 C 
BRANCH  16  17
ATOM     17  C   UNL     1       0.707  -0.490  -1.238  0.00  0.00    -0.025 A 
ATOM     18  C   UNL     1       0.051  -0.528  -2.459  0.00  0.00    +0.025 A 
ATOM     19  C   UNL     1       0.731  -0.980  -3.574  0.00  0.00    +0.111 A 
ATOM     20  N   UNL     1       1.987  -1.372  -3.487  0.00  0.00    -0.263 NA
ATOM     21  C   UNL     1       2.642  -1.349  -2.342  0.00  0.00    +0.111 A 
ATOM     22  C   UNL     1       2.030  -0.904  -1.186  0.00  0.00    +0.025 A 
ENDBRANCH  16  17
ENDBRANCH  13  16
ENDBRANCH   1  13
TORSDOF 4
