REMARK  Name = ZINC16212322
REMARK  3 active torsions:
REMARK  status: ('A' for Active; 'I' for Inactive)
REMARK    1  A    between atoms: C_1  and  C_2
REMARK    2  A    between atoms: C_2  and  C_3
REMARK    3  A    between atoms: C_8  and  N_9
REMARK                            x       y       z     vdW  Elec       q    Type
REMARK                         _______ _______ _______ _____ _____    ______ ____
ROOT
ATOM      1  N   UNL     1       2.358   3.889  -0.001  0.00  0.00    -0.210 N 
ATOM      2  C   UNL     1       2.991   4.256   1.121  0.00  0.00    +0.231 C 
ATOM      3  O   UNL     1       2.616   4.019   2.249  0.00  0.00    -0.274 OA
ATOM      4  C   UNL     1       4.250   5.013   0.756  0.00  0.00    +0.095 C 
ATOM      5  C   UNL     1       4.159   6.440   1.311  0.00  0.00    +0.027 C 
ATOM      6  C   UNL     1       2.934   7.087   0.672  0.00  0.00    -0.026 C 
ATOM      7  C   UNL     1       2.922   7.093  -0.655  0.00  0.00    -0.026 C 
ATOM      8  C   UNL     1       4.135   6.453  -1.322  0.00  0.00    +0.027 C 
ATOM      9  C   UNL     1       4.235   5.020  -0.782  0.00  0.00    +0.095 C 
ATOM     10  C   UNL     1       2.972   4.262  -1.131  0.00  0.00    +0.231 C 
ATOM     11  O   UNL     1       2.578   4.032  -2.254  0.00  0.00    -0.274 OA
ATOM     12  C   UNL     1       5.381   7.220  -0.804  0.00  0.00    +0.001 C 
ATOM     13  C   UNL     1       5.386   7.217   0.763  0.00  0.00    +0.001 C 
ATOM     14  C   UNL     1       6.420   6.390  -0.003  0.00  0.00    +0.009 C 
ENDROOT
BRANCH   1  20
ATOM     15  C   UNL     1       1.175   1.782   0.000  0.00  0.00    -0.026 A 
ATOM     16  C   UNL     1      -0.013   1.076   0.008  0.00  0.00    +0.005 A 
ATOM     17  C   UNL     1      -1.220   1.750   0.017  0.00  0.00    +0.000 A 
ATOM     18  C   UNL     1      -1.242   3.133   0.030  0.00  0.00    +0.002 A 
ATOM     19  C   UNL     1      -0.059   3.844   0.022  0.00  0.00    +0.024 A 
ATOM     20  C   UNL     1       1.155   3.170   0.008  0.00  0.00    +0.047 A 
BRANCH  15  22
ATOM     21  C   UNL     1       3.010   0.899   1.415  0.00  0.00    +0.009 C 
ATOM     22  C   UNL     1       2.490   1.046  -0.016  0.00  0.00    +0.033 C 
ENDBRANCH  15  22
ENDBRANCH   1  20
TORSDOF 2
