REMARK  Name = ZINC64554991
REMARK  5 active torsions:
REMARK  status: ('A' for Active; 'I' for Inactive)
REMARK    1  A    between atoms: C_1  and  C_2
REMARK    2  A    between atoms: C_2  and  C_3
REMARK    3  A    between atoms: C_2  and  C_4
REMARK    4  A    between atoms: C_7  and  C_9
REMARK    5  A    between atoms: N_17  and  C_18
REMARK                            x       y       z     vdW  Elec       q    Type
REMARK                         _______ _______ _______ _____ _____    ______ ____
ROOT
ATOM      1  C   UNL     1      -3.529  -3.304  -1.295  0.00  0.00    +0.048 C 
ATOM      2  C   UNL     1      -4.623  -2.900  -2.285  0.00  0.00    +0.029 C 
ATOM      3  C   UNL     1      -5.158  -4.152  -2.989  0.00  0.00    +0.110 C 
ATOM      4  N   UNL     1      -5.593  -5.117  -1.970  0.00  0.00    -0.286 N 
ATOM      5  C   UNL     1      -4.646  -5.506  -0.916  0.00  0.00    +0.110 C 
ATOM      6  C   UNL     1      -4.117  -4.239  -0.236  0.00  0.00    +0.029 C 
ATOM      7  C   UNL     1      -6.836  -5.636  -2.002  0.00  0.00    +0.302 C 
ATOM      8  O   UNL     1      -7.641  -5.236  -2.821  0.00  0.00    -0.253 OA
ATOM      9  N   UNL     1      -7.188  -6.598  -1.126  0.00  0.00    -0.302 N 
ATOM     10  C   UNL     1      -8.501  -7.239  -1.230  0.00  0.00    +0.129 C 
ATOM     11  H   UNL     1      -6.571  -6.866  -0.427  0.00  0.00    +0.150 HD
ENDROOT
BRANCH   1  15
ATOM     12  C   UNL     1      -1.416  -0.517   0.003  0.00  0.00    +0.051 A 
ATOM     13  C   UNL     1      -2.406   0.128   0.671  0.00  0.00    +0.070 A 
ATOM     14  S   UNL     1      -3.792  -0.940   0.317  0.00  0.00    -0.080 S 
ATOM     15  C   UNL     1      -2.978  -2.071  -0.626  0.00  0.00    +0.082 A 
ATOM     16  N   UNL     1      -1.749  -1.619  -0.641  0.00  0.00    -0.248 NA
BRANCH  12  18
ATOM     17  C   UNL     1      -0.023   1.534  -0.005  0.00  0.00    +0.014 C 
ATOM     18  C   UNL     1      -0.002   0.004  -0.007  0.00  0.00    +0.032 C 
ATOM     19  C   UNL     1       0.736  -0.498   1.236  0.00  0.00    +0.014 C 
ENDBRANCH  12  18
ENDBRANCH   1  15
TORSDOF 2
