REMARK  Name = ZINC48544327
REMARK  5 active torsions:
REMARK  status: ('A' for Active; 'I' for Inactive)
REMARK    1  A    between atoms: C_1  and  C_2
REMARK    2  A    between atoms: C_2  and  C_3
REMARK    3  A    between atoms: C_2  and  C_4
REMARK    4  A    between atoms: C_10  and  C_12
REMARK    5  A    between atoms: C_12  and  N_13
REMARK                            x       y       z     vdW  Elec       q    Type
REMARK                         _______ _______ _______ _____ _____    ______ ____
ROOT
ATOM      1  C   UNL     1      -1.412  -0.526   0.013  0.00  0.00    +0.053 A 
ATOM      2  C   UNL     1      -2.102  -0.677   1.170  0.00  0.00    +0.072 A 
ATOM      3  S   UNL     1      -3.654  -1.306   0.551  0.00  0.00    -0.060 S 
ATOM      4  C   UNL     1      -3.268  -1.309  -1.087  0.00  0.00    +0.165 A 
ATOM      5  N   UNL     1      -2.035  -0.850  -1.105  0.00  0.00    -0.229 NA
ATOM      6  N   UNL     1      -4.061  -1.698  -2.160  0.00  0.00    -0.264 N 
ATOM      7  C   UNL     1      -5.315  -2.142  -1.946  0.00  0.00    +0.233 C 
ATOM      8  O   UNL     1      -5.752  -2.202  -0.816  0.00  0.00    -0.274 OA
ATOM      9  H   UNL     1      -3.711  -1.649  -3.064  0.00  0.00    +0.157 HD
ENDROOT
BRANCH   1  11
ATOM     10  C   UNL     1      -0.019   1.526   0.010  0.00  0.00    +0.014 C 
ATOM     11  C   UNL     1       0.002  -0.004   0.002  0.00  0.00    +0.032 C 
ATOM     12  C   UNL     1       0.742  -0.511   1.242  0.00  0.00    +0.014 C 
ENDBRANCH   1  11
BRANCH   7  13
ATOM     13  C   UNL     1      -6.175  -2.563  -3.110  0.00  0.00    +0.181 C 
BRANCH  13  14
ATOM     14  N   UNL     1      -7.486  -3.003  -2.616  0.00  0.00    -0.290 NA
ATOM     15  C   UNL     1      -7.364  -4.231  -1.818  0.00  0.00    +0.113 C 
ATOM     16  C   UNL     1      -8.741  -4.621  -1.274  0.00  0.00    +0.175 C 
ATOM     17  O   UNL     1      -9.653  -4.773  -2.366  0.00  0.00    -0.377 OA
ATOM     18  C   UNL     1      -9.797  -3.595  -3.164  0.00  0.00    +0.175 C 
ATOM     19  C   UNL     1      -8.430  -3.196  -3.727  0.00  0.00    +0.113 C 
ENDBRANCH  13  14
ENDBRANCH   7  13
TORSDOF 3
