REMARK  Name = ZINC39897910
REMARK  3 active torsions:
REMARK  status: ('A' for Active; 'I' for Inactive)
REMARK    1  A    between atoms: C_7  and  N_12
REMARK    2  A    between atoms: N_15  and  C_16
REMARK    3  A    between atoms: C_16  and  C_17
REMARK                            x       y       z     vdW  Elec       q    Type
REMARK                         _______ _______ _______ _____ _____    ______ ____
ROOT
ATOM      1  N   UNL     1       1.037  -2.781  -1.222  0.00  0.00    -0.260 N 
ATOM      2  C   UNL     1       0.515  -4.021  -1.140  0.00  0.00    +0.303 C 
ATOM      3  O   UNL     1       0.494  -4.603  -0.073  0.00  0.00    -0.253 OA
ATOM      4  N   UNL     1       0.018  -4.617  -2.242  0.00  0.00    -0.295 N 
ATOM      5  H   UNL     1       1.054  -2.317  -2.074  0.00  0.00    +0.154 HD
ATOM      6  H   UNL     1       0.035  -4.153  -3.094  0.00  0.00    +0.151 HD
ENDROOT
BRANCH   1  13
ATOM      7  C   UNL     1      -0.017   1.381   0.010  0.00  0.00    +0.000 A 
ATOM      8  C   UNL     1       1.169   2.094   0.002  0.00  0.00    +0.001 A 
ATOM      9  C   UNL     1       2.380   1.432  -0.013  0.00  0.00    +0.015 A 
ATOM     10  C   UNL     1       2.406   0.037  -0.021  0.00  0.00    +0.067 A 
ATOM     11  C   UNL     1       1.203  -0.674  -0.013  0.00  0.00    +0.025 A 
ATOM     12  C   UNL     1       0.002  -0.004   0.002  0.00  0.00    +0.010 A 
ATOM     13  C   UNL     1       1.578  -2.134  -0.024  0.00  0.00    +0.299 C 
ATOM     14  O   UNL     1       3.007  -2.192  -0.038  0.00  0.00    -0.435 OA
ATOM     15  C   UNL     1       3.506  -0.945  -0.037  0.00  0.00    +0.342 C 
ATOM     16  O   UNL     1       4.688  -0.667  -0.047  0.00  0.00    -0.245 OA
ENDBRANCH   1  13
BRANCH   4  17
ATOM     17  C   UNL     1      -0.549  -5.965  -2.154  0.00  0.00    +0.141 C 
BRANCH  17  18
ATOM     18  C   UNL     1      -1.032  -6.397  -3.514  0.00  0.00    -0.030 A 
ATOM     19  C   UNL     1      -2.328  -6.122  -3.907  0.00  0.00    +0.006 A 
ATOM     20  C   UNL     1      -2.771  -6.518  -5.155  0.00  0.00    +0.020 A 
ATOM     21  C   UNL     1      -1.917  -7.190  -6.011  0.00  0.00    +0.041 A 
ATOM     22  C   UNL     1      -0.620  -7.465  -5.617  0.00  0.00    +0.020 A 
ATOM     23  C   UNL     1      -0.176  -7.064  -4.371  0.00  0.00    +0.006 A 
ATOM     24 CL   UNL     1      -2.473  -7.689  -7.578  0.00  0.00    -0.084 Cl
ENDBRANCH  17  18
ENDBRANCH   4  17
TORSDOF 3
