REMARK  Name = ZINC23682957
REMARK  3 active torsions:
REMARK  status: ('A' for Active; 'I' for Inactive)
REMARK    1  A    between atoms: C_4  and  C_10
REMARK    2  A    between atoms: C_6  and  N_7
REMARK    3  A    between atoms: C_15  and  C_18
REMARK                            x       y       z     vdW  Elec       q    Type
REMARK                         _______ _______ _______ _____ _____    ______ ____
ROOT
ATOM      1  C   UNL     1       3.694  -0.686  -0.037  0.00  0.00    +0.251 C 
ATOM      2  O   UNL     1       4.737  -0.062  -0.044  0.00  0.00    -0.270 OA
ATOM      3  N   UNL     1       3.715  -2.034  -0.045  0.00  0.00    -0.261 N 
ATOM      4  C   UNL     1       4.911  -2.700  -0.060  0.00  0.00    +0.165 A 
ATOM      5  N   UNL     1       5.119  -4.002  -0.074  0.00  0.00    -0.224 NA
ATOM      6  C   UNL     1       6.357  -4.465  -0.089  0.00  0.00    +0.087 A 
ATOM      7  C   UNL     1       7.433  -3.448  -0.087  0.00  0.00    +0.077 A 
ATOM      8  S   UNL     1       6.555  -2.012  -0.073  0.00  0.00    -0.060 S 
ATOM      9  H   UNL     1       2.882  -2.532  -0.039  0.00  0.00    +0.157 HD
ENDROOT
BRANCH   1  13
ATOM     10  C   UNL     1      -0.017   1.380   0.010  0.00  0.00    +0.034 A 
ATOM     11  C   UNL     1       1.168   2.094   0.002  0.00  0.00    +0.023 A 
ATOM     12  C   UNL     1       2.378   1.430  -0.013  0.00  0.00    +0.053 A 
ATOM     13  C   UNL     1       2.404   0.032  -0.021  0.00  0.00    +0.057 A 
ATOM     14  C   UNL     1       1.204  -0.681  -0.013  0.00  0.00    +0.047 A 
ATOM     15  C   UNL     1       0.002  -0.004   0.002  0.00  0.00    +0.127 A 
ATOM     16 CL   UNL     1       3.864   2.328  -0.023  0.00  0.00    -0.083 Cl
BRANCH  15  17
ATOM     17  N   UNL     1      -1.271  -0.759   0.011  0.00  0.00    +0.056 N 
ATOM     18  O   UNL     1      -2.419  -0.115   0.025  0.00  0.00    -0.126 OA
ATOM     19  O   UNL     1      -1.255  -2.076   0.003  0.00  0.00    -0.126 OA
ENDBRANCH  15  17
ENDBRANCH   1  13
BRANCH   6  20
ATOM     20  C   UNL     1       6.634  -5.833  -0.104  0.00  0.00    +0.040 A 
ATOM     21  C   UNL     1       5.698  -6.971  -0.114  0.00  0.00    +0.019 A 
ATOM     22  C   UNL     1       6.285  -8.174  -0.128  0.00  0.00    +0.028 A 
ATOM     23  C   UNL     1       7.682  -8.255  -0.132  0.00  0.00    +0.079 A 
ATOM     24  S   UNL     1       8.213  -6.662  -0.124  0.00  0.00    -0.075 S 
ATOM     25 CL   UNL     1       8.656  -9.692  -0.149  0.00  0.00    -0.076 Cl
ENDBRANCH   6  20
TORSDOF 3
