REMARK  Name = ZINC54600604
REMARK  2 active torsions:
REMARK  status: ('A' for Active; 'I' for Inactive)
REMARK    1  A    between atoms: N_6  and  C_8
REMARK    2  A    between atoms: C_15  and  O_17
REMARK                            x       y       z     vdW  Elec       q    Type
REMARK                         _______ _______ _______ _____ _____    ______ ____
ROOT
ATOM      1  C   UNL     1      -0.016   1.300   0.009  0.00  0.00    +0.154 A 
ATOM      2  C   UNL     1       1.187   2.028   0.002  0.00  0.00    +0.084 A 
ATOM      3  C   UNL     1       2.366   1.333  -0.013  0.00  0.00    +0.126 A 
ATOM      4  C   UNL     1       2.298  -0.076  -0.020  0.00  0.00    +0.287 A 
ATOM      5  O   UNL     1       3.321  -0.743  -0.033  0.00  0.00    -0.265 OA
ATOM      6  N   UNL     1       1.094  -0.679  -0.012  0.00  0.00    -0.223 N 
ATOM      7  N   UNL     1       0.002  -0.004   0.002  0.00  0.00    -0.175 NA
ATOM      8 CL   UNL     1       3.893   2.158  -0.024  0.00  0.00    -0.076 Cl
ATOM      9 CL   UNL     1       1.176   3.764   0.010  0.00  0.00    -0.080 Cl
ENDROOT
BRANCH   6  10
ATOM     10  C   UNL     1       1.028  -2.142  -0.019  0.00  0.00    +0.139 C 
ATOM     11  C   UNL     1       0.301  -2.622   1.208  0.00  0.00    +0.029 C 
ATOM     12  C   UNL     1       0.851  -3.962   1.733  0.00  0.00    +0.002 C 
ATOM     13  C   UNL     1       1.161  -4.964   0.605  0.00  0.00    +0.000 C 
ATOM     14  C   UNL     1       0.101  -4.974  -0.463  0.00  0.00    +0.003 C 
ATOM     15  C   UNL     1       0.531  -4.012  -1.589  0.00  0.00    +0.033 C 
ATOM     16  C   UNL     1       0.259  -2.620  -1.268  0.00  0.00    +0.139 C 
BRANCH  16  17
ATOM     17  O   UNL     1       0.630  -1.804  -2.381  0.00  0.00    -0.390 OA
ATOM     18  H   UNL     1       0.188  -2.042  -3.207  0.00  0.00    +0.210 HD
ENDBRANCH  16  17
ENDBRANCH   6  10
TORSDOF 2
