REMARK  Name = ZINC45907024
REMARK  5 active torsions:
REMARK  status: ('A' for Active; 'I' for Inactive)
REMARK    1  A    between atoms: C_1  and  S_2
REMARK    2  A    between atoms: S_2  and  C_5
REMARK    3  A    between atoms: C_8  and  O_11
REMARK    4  A    between atoms: O_11  and  C_12
REMARK    5  A    between atoms: C_12  and  C_14
REMARK                            x       y       z     vdW  Elec       q    Type
REMARK                         _______ _______ _______ _____ _____    ______ ____
ROOT
ATOM      1  C   UNL     1       4.168  -1.503  -4.932  0.00  0.00    +0.351 C 
ATOM      2  O   UNL     1       4.761  -1.341  -3.881  0.00  0.00    -0.244 OA
ENDROOT
BRANCH   1   3
ATOM      3  C   UNL     1       4.917  -1.751  -6.163  0.00  0.00    +0.098 A 
ATOM      4  C   UNL     1       6.291  -1.845  -6.345  0.00  0.00    +0.030 A 
ATOM      5  C   UNL     1       6.793  -2.087  -7.596  0.00  0.00    +0.005 A 
ATOM      6  C   UNL     1       5.849  -2.228  -8.625  0.00  0.00    +0.030 A 
ATOM      7  S   UNL     1       4.297  -2.019  -7.820  0.00  0.00    -0.081 S 
ATOM      8  C   UNL     1       6.234  -2.498 -10.005  0.00  0.00    +0.031 A 
ATOM      9  C   UNL     1       5.376  -2.385 -11.087  0.00  0.00    +0.012 A 
ATOM     10  C   UNL     1       5.844  -2.647 -12.361  0.00  0.00    +0.001 A 
ATOM     11  C   UNL     1       7.163  -3.020 -12.553  0.00  0.00    +0.004 A 
ATOM     12  C   UNL     1       8.026  -3.142 -11.479  0.00  0.00    +0.046 A 
ATOM     13  C   UNL     1       7.577  -2.892 -10.196  0.00  0.00    +0.129 A 
ATOM     14  O   UNL     1       8.387  -3.046  -9.123  0.00  0.00    -0.487 OA
ATOM     15  C   UNL     1       8.264  -2.213  -7.972  0.00  0.00    +0.265 C 
ENDBRANCH   1   3
BRANCH   1  16
ATOM     16  O   UNL     1       2.820  -1.453  -4.960  0.00  0.00    -0.422 OA
BRANCH  16  20
ATOM     17  C   UNL     1       0.846  -0.390  -1.497  0.00  0.00    +0.088 A 
ATOM     18  C   UNL     1       1.595   0.550  -2.181  0.00  0.00    +0.030 A 
ATOM     19  C   UNL     1       2.256   0.197  -3.341  0.00  0.00    +0.048 A 
ATOM     20  C   UNL     1       2.170  -1.103  -3.819  0.00  0.00    +0.132 A 
ATOM     21  C   UNL     1       1.419  -2.044  -3.130  0.00  0.00    +0.048 A 
ATOM     22  C   UNL     1       0.763  -1.687  -1.968  0.00  0.00    +0.030 A 
BRANCH  17  24
ATOM     23  C   UNL     1       1.196  -0.247   1.313  0.00  0.00    +0.200 C 
ATOM     24  S   UNL     1       0.003   0.064  -0.018  0.00  0.00    -0.006 S 
ATOM     25  O   UNL     1      -1.083  -0.847   0.075  0.00  0.00    -0.170 OA
ATOM     26  O   UNL     1      -0.231   1.460  -0.148  0.00  0.00    -0.170 OA
ENDBRANCH  17  24
ENDBRANCH  16  20
ENDBRANCH   1  16
TORSDOF 4
