REMARK  Name = ZINC44175393
REMARK  4 active torsions:
REMARK  status: ('A' for Active; 'I' for Inactive)
REMARK    1  A    between atoms: C_1  and  C_2
REMARK    2  A    between atoms: C_2  and  C_3
REMARK    3  A    between atoms: C_2  and  C_4
REMARK    4  A    between atoms: N_10  and  C_11
REMARK                            x       y       z     vdW  Elec       q    Type
REMARK                         _______ _______ _______ _____ _____    ______ ____
ROOT
ATOM      1  C   UNL     1      -1.433  -0.534   0.013  0.00  0.00    +0.143 C 
ATOM      2  C   UNL     1      -1.460  -2.054   0.034  0.00  0.00    +0.232 C 
ATOM      3  O   UNL     1      -0.991  -2.693   0.951  0.00  0.00    -0.274 OA
ATOM      4  N   UNL     1      -2.026  -2.634  -1.010  0.00  0.00    -0.264 N 
ATOM      5  C   UNL     1      -2.562  -1.914  -2.057  0.00  0.00    +0.161 C 
ATOM      6  N   UNL     1      -3.147  -2.370  -3.139  0.00  0.00    -0.226 NA
ATOM      7  S   UNL     1      -2.275  -0.211  -1.592  0.00  0.00    -0.077 S 
ATOM      8  H   UNL     1      -2.067  -3.603  -1.041  0.00  0.00    +0.157 HD
ENDROOT
BRANCH   6   9
ATOM      9  C   UNL     1      -3.623  -1.497  -4.081  0.00  0.00    +0.067 A 
ATOM     10  C   UNL     1      -4.349  -0.371  -3.688  0.00  0.00    +0.029 A 
ATOM     11  C   UNL     1      -4.826   0.505  -4.641  0.00  0.00    +0.022 A 
ATOM     12  C   UNL     1      -4.587   0.269  -5.984  0.00  0.00    +0.041 A 
ATOM     13  C   UNL     1      -3.868  -0.846  -6.380  0.00  0.00    +0.022 A 
ATOM     14  C   UNL     1      -3.380  -1.726  -5.436  0.00  0.00    +0.029 A 
ATOM     15 CL   UNL     1      -5.191   1.376  -7.178  0.00  0.00    -0.084 Cl
ENDBRANCH   6   9
BRANCH   1  17
ATOM     16  C   UNL     1      -0.019   1.526   0.010  0.00  0.00    +0.009 C 
ATOM     17  C   UNL     1       0.002  -0.004   0.002  0.00  0.00    +0.005 C 
ATOM     18  C   UNL     1       0.742  -0.511   1.242  0.00  0.00    +0.009 C 
ENDBRANCH   1  17
TORSDOF 2
