REMARK  Name = ZINC66498112
REMARK  2 active torsions:
REMARK  status: ('A' for Active; 'I' for Inactive)
REMARK    1  A    between atoms: N_13  and  C_16
REMARK    2  A    between atoms: C_16  and  C_17
REMARK                            x       y       z     vdW  Elec       q    Type
REMARK                         _______ _______ _______ _____ _____    ______ ____
ROOT
ATOM      1  C   UNL     1      -0.017   1.381   0.010  0.00  0.00    +0.022 A 
ATOM      2  C   UNL     1       1.160   2.096   0.002  0.00  0.00    +0.032 A 
ATOM      3  C   UNL     1       2.389   1.398  -0.013  0.00  0.00    +0.099 A 
ATOM      4  C   UNL     1       2.294  -0.014  -0.020  0.00  0.00    +0.129 A 
ATOM      5  N   UNL     1       1.153  -0.653  -0.012  0.00  0.00    -0.246 NA
ATOM      6  C   UNL     1       0.002  -0.004   0.002  0.00  0.00    +0.112 A 
ATOM      7  S   UNL     1       4.004  -0.502  -0.039  0.00  0.00    -0.033 S 
ATOM      8  C   UNL     1       4.709   1.140  -0.037  0.00  0.00    +0.163 A 
ATOM      9  N   UNL     1       3.641   1.904  -0.022  0.00  0.00    -0.223 NA
ATOM     10  N   UNL     1       6.038   1.510  -0.047  0.00  0.00    -0.307 N 
ATOM     11  C   UNL     1       6.426   2.929  -0.037  0.00  0.00    +0.122 C 
ATOM     12  C   UNL     1       7.420   3.170  -1.177  0.00  0.00    +0.104 C 
ATOM     13  N   UNL     1       8.535   2.220  -1.059  0.00  0.00    -0.294 NA
ATOM     14  C   UNL     1       8.072   0.834  -1.208  0.00  0.00    +0.104 C 
ATOM     15  C   UNL     1       7.104   0.497  -0.063  0.00  0.00    +0.122 C 
ENDROOT
BRANCH  13  16
ATOM     16  C   UNL     1       9.594   2.529  -2.030  0.00  0.00    +0.137 C 
BRANCH  16  17
ATOM     17  C   UNL     1      10.814   1.700  -1.721  0.00  0.00    +0.037 A 
ATOM     18  C   UNL     1      11.242   0.770  -2.606  0.00  0.00    +0.094 A 
ATOM     19  C   UNL     1      12.384  -0.002  -2.314  0.00  0.00    +0.275 A 
ATOM     20  O   UNL     1      12.773  -0.841  -3.107  0.00  0.00    -0.266 OA
ATOM     21  N   UNL     1      13.045   0.189  -1.155  0.00  0.00    -0.180 N 
ATOM     22  C   UNL     1      12.608   1.129  -0.267  0.00  0.00    +0.138 A 
ATOM     23  N   UNL     1      11.491   1.891  -0.554  0.00  0.00    -0.342 N 
ATOM     24  C   UNL     1      13.454   1.106   0.800  0.00  0.00    +0.068 A 
ATOM     25  C   UNL     1      14.424   0.133   0.556  0.00  0.00    +0.137 A 
ATOM     26  N   UNL     1      14.183  -0.416  -0.608  0.00  0.00    -0.170 NA
ATOM     27  H   UNL     1      11.186   2.561   0.078  0.00  0.00    +0.167 HD
ENDBRANCH  16  17
ENDBRANCH  13  16
TORSDOF 2
