REMARK  Name = ZINC10034249
REMARK  7 active torsions:
REMARK  status: ('A' for Active; 'I' for Inactive)
REMARK    1  A    between atoms: C_1  and  C_2
REMARK    2  A    between atoms: C_2  and  C_3
REMARK    3  A    between atoms: C_2  and  C_4
REMARK    4  A    between atoms: C_2  and  N_5
REMARK    5  A    between atoms: C_6  and  N_15
REMARK    6  A    between atoms: C_16  and  C_18
REMARK    7  A    between atoms: N_20  and  C_21
REMARK                            x       y       z     vdW  Elec       q    Type
REMARK                         _______ _______ _______ _____ _____    ______ ____
ROOT
ATOM      1  N   UNL     1       8.748   1.726  -0.417  0.00  0.00    -0.245 N 
ATOM      2  C   UNL     1       8.263   2.183   0.761  0.00  0.00    +0.129 A 
ATOM      3  C   UNL     1       9.304   2.784   1.435  0.00  0.00    +0.038 A 
ATOM      4  C   UNL     1      10.436   2.674   0.647  0.00  0.00    +0.091 A 
ATOM      5  N   UNL     1      10.106   2.042  -0.470  0.00  0.00    -0.172 NA
ATOM      6  C   UNL     1      11.724   3.275   1.208  0.00  0.00    +0.223 C 
ATOM      7  S   UNL     1      11.080   4.348   2.559  0.00  0.00    -0.021 S 
ATOM      8  O   UNL     1      10.855   5.660   2.062  0.00  0.00    -0.174 OA
ATOM      9  O   UNL     1      11.873   4.161   3.723  0.00  0.00    -0.174 OA
ATOM     10  C   UNL     1       9.465   3.494   2.777  0.00  0.00    +0.206 C 
ENDROOT
BRANCH   1  12
ATOM     11  C   UNL     1       6.936   1.971  -2.042  0.00  0.00    +0.036 C 
ATOM     12  C   UNL     1       7.983   1.025  -1.451  0.00  0.00    +0.057 C 
ATOM     13  C   UNL     1       8.931   0.558  -2.558  0.00  0.00    +0.036 C 
ATOM     14  C   UNL     1       7.284  -0.188  -0.834  0.00  0.00    +0.036 C 
ENDBRANCH   1  12
BRANCH   2  15
ATOM     15  N   UNL     1       6.950   2.073   1.208  0.00  0.00    -0.262 N 
ATOM     16  C   UNL     1       6.688   2.045   2.530  0.00  0.00    +0.304 C 
ATOM     17  O   UNL     1       7.601   2.006   3.329  0.00  0.00    -0.265 OA
ATOM     18  H   UNL     1       6.223   2.016   0.569  0.00  0.00    +0.157 HD
BRANCH  16  19
ATOM     19  C   UNL     1       5.275   2.061   3.012  0.00  0.00    +0.300 C 
ATOM     20  O   UNL     1       4.362   2.100   2.213  0.00  0.00    -0.265 OA
ATOM     21  N   UNL     1       5.013   2.033   4.334  0.00  0.00    -0.305 N 
ATOM     22  H   UNL     1       5.743   2.002   4.972  0.00  0.00    +0.149 HD
BRANCH  21  23
ATOM     23  C   UNL     1       3.627   2.049   4.807  0.00  0.00    +0.073 C 
ATOM     24  C   UNL     1       3.091   0.607   4.987  0.00  0.00    +0.022 C 
ATOM     25  C   UNL     1       1.949   0.753   6.013  0.00  0.00    +0.002 C 
ATOM     26  C   UNL     1       2.235   2.038   6.810  0.00  0.00    +0.002 C 
ATOM     27  C   UNL     1       3.542   2.627   6.241  0.00  0.00    +0.022 C 
ENDBRANCH  21  23
ENDBRANCH  16  19
ENDBRANCH   2  15
TORSDOF 4
