REMARK  Name = ZINC24534882
REMARK  10 active torsions:
REMARK  status: ('A' for Active; 'I' for Inactive)
REMARK    1  A    between atoms: C_1  and  C_2
REMARK    2  A    between atoms: C_2  and  C_4
REMARK    3  A    between atoms: C_2  and  S_18
REMARK    4  A    between atoms: C_4  and  C_6
REMARK    5  A    between atoms: C_15  and  C_17
REMARK    6  A    between atoms: S_18  and  C_19
REMARK    7  A    between atoms: C_23  and  S_28
REMARK    8  A    between atoms: S_28  and  N_31
REMARK    9  A    between atoms: N_31  and  C_32
REMARK   10  A    between atoms: N_31  and  C_33
REMARK                            x       y       z     vdW  Elec       q    Type
REMARK                         _______ _______ _______ _____ _____    ______ ____
ROOT
ATOM      1  C   UNL     1       6.004   3.142   1.275  0.00  0.00    +0.028 C 
ATOM      2  C   UNL     1       6.508   2.546  -0.041  0.00  0.00    +0.124 C 
ENDROOT
BRANCH   2   3
ATOM      3  C   UNL     1       7.985   2.810  -0.179  0.00  0.00    +0.176 C 
ATOM      4  O   UNL     1       8.787   1.971   0.173  0.00  0.00    -0.291 OA
BRANCH   3   5
ATOM      5  C   UNL     1       8.454   4.084  -0.740  0.00  0.00    +0.019 A 
ATOM      6  C   UNL     1       7.533   5.055  -1.153  0.00  0.00    +0.013 A 
ATOM      7  C   UNL     1       7.969   6.238  -1.669  0.00  0.00    +0.024 A 
ATOM      8  C   UNL     1       9.339   6.496  -1.803  0.00  0.00    +0.040 A 
ATOM      9  C   UNL     1      10.255   5.532  -1.399  0.00  0.00    -0.024 A 
ATOM     10  C   UNL     1       9.825   4.336  -0.871  0.00  0.00    +0.017 A 
ATOM     11  C   UNL     1      11.649   6.060  -1.650  0.00  0.00    +0.056 C 
ATOM     12  C   UNL     1      11.429   7.457  -2.253  0.00  0.00    +0.118 C 
ATOM     13  N   UNL     1       9.975   7.629  -2.305  0.00  0.00    -0.271 N 
ATOM     14  C   UNL     1       9.345   8.725  -2.772  0.00  0.00    +0.217 C 
ATOM     15  O   UNL     1       8.135   8.737  -2.859  0.00  0.00    -0.276 OA
ATOM     16  C   UNL     1      10.142   9.935  -3.185  0.00  0.00    +0.109 C 
ENDBRANCH   3   5
ENDBRANCH   2   3
BRANCH   2  17
ATOM     17  S   UNL     1       6.211   0.761  -0.046  0.00  0.00    -0.056 S 
BRANCH  17  18
ATOM     18  C   UNL     1       4.449   0.743  -0.027  0.00  0.00    +0.259 A 
ATOM     19  N   UNL     1       3.710  -0.337  -0.025  0.00  0.00    -0.203 NA
ATOM     20  C   UNL     1       2.400   0.031  -0.010  0.00  0.00    +0.112 A 
ATOM     21  C   UNL     1       1.199  -0.680  -0.001  0.00  0.00    +0.060 A 
ATOM     22  C   UNL     1       0.001   0.001   0.015  0.00  0.00    +0.108 A 
ATOM     23  C   UNL     1      -0.017   1.387   0.022  0.00  0.00    +0.032 A 
ATOM     24  C   UNL     1       1.163   2.103   0.013  0.00  0.00    +0.050 A 
ATOM     25  C   UNL     1       2.376   1.434  -0.003  0.00  0.00    +0.156 A 
ATOM     26  O   UNL     1       3.668   1.837  -0.014  0.00  0.00    -0.431 OA
BRANCH  22  27
ATOM     27  S   UNL     1      -1.516  -0.895   0.026  0.00  0.00    +0.060 S 
ATOM     28  O   UNL     1      -1.227  -2.176   0.568  0.00  0.00    -0.153 OA
ATOM     29  O   UNL     1      -2.493  -0.032   0.591  0.00  0.00    -0.153 OA
BRANCH  27  30
ATOM     30  N   UNL     1      -1.953  -1.136  -1.553  0.00  0.00    -0.183 NA
ATOM     31  C   UNL     1      -1.502  -2.336  -2.263  0.00  0.00    +0.131 C 
ATOM     32  C   UNL     1      -2.792  -0.151  -2.240  0.00  0.00    +0.131 C 
ENDBRANCH  27  30
ENDBRANCH  22  27
ENDBRANCH  17  18
ENDBRANCH   2  17
TORSDOF 6
