REMARK  Name = ZINC38715523
REMARK  12 active torsions:
REMARK  status: ('A' for Active; 'I' for Inactive)
REMARK    1  A    between atoms: C_1  and  C_2
REMARK    2  A    between atoms: C_2  and  O_3
REMARK    3  A    between atoms: O_3  and  C_4
REMARK    4  A    between atoms: C_7  and  C_10
REMARK    5  A    between atoms: C_17  and  C_33
REMARK    6  A    between atoms: C_18  and  C_32
REMARK    7  A    between atoms: N_25  and  C_26
REMARK    8  A    between atoms: C_26  and  C_27
REMARK    9  A    between atoms: C_27  and  C_28
REMARK   10  A    between atoms: C_28  and  N_29
REMARK   11  A    between atoms: N_29  and  C_30
REMARK   12  A    between atoms: N_29  and  C_31
REMARK                            x       y       z     vdW  Elec       q    Type
REMARK                         _______ _______ _______ _____ _____    ______ ____
ROOT
ATOM      1  C   UNL     1      -2.001  -6.092  -0.011  0.00  0.00    +0.144 C 
ATOM      2  C   UNL     1      -2.368  -6.561  -1.380  0.00  0.00    +0.072 A 
ATOM      3  C   UNL     1      -1.657  -6.461  -2.659  0.00  0.00    +0.199 A 
ATOM      4  O   UNL     1      -0.500  -6.091  -2.752  0.00  0.00    -0.287 OA
ATOM      5  C   UNL     1      -2.482  -6.855  -3.830  0.00  0.00    +0.065 A 
ATOM      6  C   UNL     1      -2.021  -6.628  -5.127  0.00  0.00    +0.019 A 
ATOM      7  C   UNL     1      -2.794  -6.992  -6.194  0.00  0.00    -0.047 A 
ATOM      8  C   UNL     1      -4.033  -7.584  -5.990  0.00  0.00    -0.044 A 
ATOM      9  C   UNL     1      -4.502  -7.817  -4.717  0.00  0.00    +0.050 A 
ATOM     10  C   UNL     1      -3.731  -7.457  -3.611  0.00  0.00    +0.140 A 
ATOM     11  O   UNL     1      -4.207  -7.704  -2.370  0.00  0.00    -0.450 OA
ATOM     12  C   UNL     1      -3.591  -7.164  -1.300  0.00  0.00    +0.199 A 
ATOM     13  C   UNL     1      -4.048  -7.098   0.100  0.00  0.00    +0.283 C 
ATOM     14  O   UNL     1      -5.103  -7.541   0.509  0.00  0.00    -0.267 OA
ATOM     15  N   UNL     1      -3.123  -6.474   0.861  0.00  0.00    -0.284 N 
ATOM     16  C   UNL     1      -4.875  -7.977  -7.176  0.00  0.00    +0.044 C 
ATOM     17  C   UNL     1      -2.300  -6.748  -7.597  0.00  0.00    +0.044 C 
ENDROOT
BRANCH   1  21
ATOM     18  C   UNL     1      -1.498  -1.848   0.006  0.00  0.00    +0.121 A 
ATOM     19  C   UNL     1      -0.388  -2.679  -0.003  0.00  0.00    +0.046 A 
ATOM     20  C   UNL     1      -0.553  -4.051  -0.008  0.00  0.00    +0.009 A 
ATOM     21  C   UNL     1      -1.823  -4.596  -0.005  0.00  0.00    -0.022 A 
ATOM     22  C   UNL     1      -2.932  -3.769   0.004  0.00  0.00    +0.009 A 
ATOM     23  C   UNL     1      -2.772  -2.397   0.016  0.00  0.00    +0.046 A 
BRANCH  18  24
ATOM     24  O   UNL     1      -1.339  -0.499   0.012  0.00  0.00    -0.492 OA
BRANCH  24  26
ATOM     25  C   UNL     1      -0.019   1.526   0.010  0.00  0.00    +0.048 C 
ATOM     26  C   UNL     1       0.002  -0.004   0.002  0.00  0.00    +0.225 C 
ENDBRANCH  24  26
ENDBRANCH  18  24
ENDBRANCH   1  21
BRANCH  15  27
ATOM     27  C   UNL     1      -3.220  -6.222   2.301  0.00  0.00    +0.107 C 
BRANCH  27  28
ATOM     28  C   UNL     1      -3.890  -4.867   2.537  0.00  0.00    +0.000 C 
BRANCH  28  29
ATOM     29  C   UNL     1      -3.991  -4.603   4.041  0.00  0.00    -0.078 C 
BRANCH  29  30
ATOM     30  N   UNL     1      -4.635  -3.302   4.268  0.00  0.00    +0.376 N 
ATOM     31  C   UNL     1      -6.022  -3.352   3.788  0.00  0.00    -0.097 C 
ATOM     32  C   UNL     1      -4.624  -2.994   5.704  0.00  0.00    -0.097 C 
ATOM     33  H   UNL     1      -4.131  -2.586   3.767  0.00  0.00    -0.083 HD
ENDBRANCH  29  30
ENDBRANCH  28  29
ENDBRANCH  27  28
ENDBRANCH  15  27
TORSDOF 7
