REMARK  Name = ZINC49340065
REMARK  2 active torsions:
REMARK  status: ('A' for Active; 'I' for Inactive)
REMARK    1  A    between atoms: C_1  and  C_2
REMARK    2  A    between atoms: N_11  and  C_12
REMARK                            x       y       z     vdW  Elec       q    Type
REMARK                         _______ _______ _______ _____ _____    ______ ____
ROOT
ATOM      1  C   UNL     1       3.317  -2.129   1.749  0.00  0.00    +0.039 C 
ATOM      2  C   UNL     1       2.782  -1.726   0.373  0.00  0.00    +0.133 C 
ATOM      3  C   UNL     1       1.487  -2.495   0.083  0.00  0.00    +0.140 C 
ATOM      4  N   UNL     1       0.895  -1.957  -1.152  0.00  0.00    -0.281 N 
ATOM      5  C   UNL     1       0.724  -0.499  -1.259  0.00  0.00    +0.137 C 
ATOM      6  C   UNL     1       2.055   0.172  -0.903  0.00  0.00    +0.179 C 
ATOM      7  O   UNL     1       2.510  -0.323   0.358  0.00  0.00    -0.374 OA
ATOM      8  C   UNL     1       0.522  -2.775  -2.156  0.00  0.00    +0.303 C 
ATOM      9  O   UNL     1      -0.048  -2.321  -3.130  0.00  0.00    -0.253 OA
ATOM     10  N   UNL     1       0.780  -4.096  -2.080  0.00  0.00    -0.292 N 
ATOM     11  H   UNL     1       1.167  -4.469  -1.273  0.00  0.00    +0.151 HD
ENDROOT
BRANCH  10  12
ATOM     12  C   UNL     1       0.475  -4.968  -3.217  0.00  0.00    +0.105 C 
ATOM     13  C   UNL     1       0.284  -6.423  -2.740  0.00  0.00    +0.032 C 
ATOM     14  C   UNL     1       1.702  -7.012  -2.898  0.00  0.00    +0.037 C 
ATOM     15  C   UNL     1       2.354  -6.189  -3.988  0.00  0.00    -0.041 A 
ATOM     16  C   UNL     1       1.648  -5.012  -4.173  0.00  0.00    -0.024 A 
ATOM     17  C   UNL     1       2.064  -4.098  -5.127  0.00  0.00    +0.007 A 
ATOM     18  C   UNL     1       3.182  -4.356  -5.896  0.00  0.00    +0.020 A 
ATOM     19  C   UNL     1       3.889  -5.530  -5.714  0.00  0.00    +0.041 A 
ATOM     20  C   UNL     1       3.475  -6.449  -4.759  0.00  0.00    +0.024 A 
ATOM     21 CL   UNL     1       5.294  -5.857  -6.680  0.00  0.00    -0.084 Cl
ENDBRANCH  10  12
TORSDOF 1
