REMARK  Name = ZINC04743627
REMARK  5 active torsions:
REMARK  status: ('A' for Active; 'I' for Inactive)
REMARK    1  A    between atoms: C_1  and  C_2
REMARK    2  A    between atoms: C_7  and  C_8
REMARK    3  A    between atoms: C_7  and  C_9
REMARK    4  A    between atoms: N_12  and  C_15
REMARK    5  A    between atoms: C_20  and  O_21
REMARK                            x       y       z     vdW  Elec       q    Type
REMARK                         _______ _______ _______ _____ _____    ______ ____
ROOT
ATOM      1  C   UNL     1      -0.019   1.526   0.010  0.00  0.00    +0.021 C 
ATOM      2  C   UNL     1       0.002  -0.004   0.002  0.00  0.00    +0.051 C 
ATOM      3  C   UNL     1       0.777  -0.595  -1.201  0.00  0.00    +0.017 C 
ATOM      4  C   UNL     1       1.361  -1.934  -0.713  0.00  0.00    +0.014 C 
ATOM      5  C   UNL     1       0.910  -2.085   0.760  0.00  0.00    +0.083 C 
ATOM      6  C   UNL     1       0.737  -0.613   1.230  0.00  0.00    -0.010 C 
ATOM      7  C   UNL     1      -0.130  -0.532   2.488  0.00  0.00    +0.012 C 
ATOM      8  C   UNL     1       2.093   0.060   1.451  0.00  0.00    +0.012 C 
ATOM      9  C   UNL     1      -0.477  -2.702   0.736  0.00  0.00    +0.230 C 
ATOM     10  O   UNL     1      -0.633  -3.864   1.044  0.00  0.00    -0.275 OA
ATOM     11  N   UNL     1      -1.532  -1.950   0.372  0.00  0.00    -0.206 N 
ATOM     12  C   UNL     1      -1.387  -0.616   0.002  0.00  0.00    +0.233 C 
ATOM     13  O   UNL     1      -2.342   0.039  -0.355  0.00  0.00    -0.274 OA
ENDROOT
BRANCH  11  14
ATOM     14  C   UNL     1      -2.814  -2.521   0.403  0.00  0.00    +0.085 A 
ATOM     15  C   UNL     1      -3.586  -2.436   1.552  0.00  0.00    +0.027 A 
ATOM     16  C   UNL     1      -4.848  -2.998   1.580  0.00  0.00    +0.002 A 
ATOM     17  C   UNL     1      -5.345  -3.646   0.464  0.00  0.00    +0.004 A 
ATOM     18  C   UNL     1      -4.582  -3.734  -0.685  0.00  0.00    +0.047 A 
ATOM     19  C   UNL     1      -3.317  -3.168  -0.723  0.00  0.00    +0.139 A 
BRANCH  19  20
ATOM     20  O   UNL     1      -2.568  -3.249  -1.854  0.00  0.00    -0.505 OA
ATOM     21  H   UNL     1      -2.005  -4.034  -1.898  0.00  0.00    +0.292 HD
ENDBRANCH  19  20
ENDBRANCH  11  14
TORSDOF 2
