REMARK  Name = ZINC35537226
REMARK  6 active torsions:
REMARK  status: ('A' for Active; 'I' for Inactive)
REMARK    1  A    between atoms: C_1  and  C_2
REMARK    2  A    between atoms: C_5  and  C_8
REMARK    3  A    between atoms: C_8  and  N_9
REMARK    4  A    between atoms: C_10  and  C_12
REMARK    5  A    between atoms: C_12  and  N_13
REMARK    6  A    between atoms: N_22  and  C_23
REMARK                            x       y       z     vdW  Elec       q    Type
REMARK                         _______ _______ _______ _____ _____    ______ ____
ROOT
ATOM      1  N   UNL     1       3.143  -8.019  -0.068  0.00  0.00    -0.290 N 
ATOM      2  C   UNL     1       3.159  -8.699   1.220  0.00  0.00    +0.127 C 
ATOM      3  C   UNL     1       2.649 -10.135   1.082  0.00  0.00    +0.129 C 
ATOM      4  N   UNL     1       3.313 -10.749  -0.080  0.00  0.00    -0.275 N 
ATOM      5  C   UNL     1       3.077 -10.132  -1.395  0.00  0.00    +0.205 C 
ATOM      6  C   UNL     1       3.143  -8.636  -1.250  0.00  0.00    +0.233 C 
ATOM      7  O   UNL     1       3.203  -7.961  -2.256  0.00  0.00    -0.274 OA
ATOM      8  C   UNL     1       4.103 -11.832   0.054  0.00  0.00    +0.307 C 
ATOM      9  O   UNL     1       4.280 -12.322   1.153  0.00  0.00    -0.252 OA
ATOM     10  N   UNL     1       4.697 -12.372  -1.028  0.00  0.00    -0.269 N 
ATOM     11  H   UNL     1       4.502 -12.024  -1.912  0.00  0.00    +0.156 HD
ENDROOT
BRANCH  10  12
ATOM     12  C   UNL     1       5.596 -13.436  -0.877  0.00  0.00    +0.035 A 
ATOM     13  C   UNL     1       6.702 -13.535  -1.709  0.00  0.00    +0.026 A 
ATOM     14  C   UNL     1       7.587 -14.584  -1.558  0.00  0.00    +0.040 A 
ATOM     15  C   UNL     1       7.372 -15.537  -0.577  0.00  0.00    +0.124 A 
ATOM     16  C   UNL     1       6.269 -15.440   0.255  0.00  0.00    +0.040 A 
ATOM     17  C   UNL     1       5.384 -14.389   0.110  0.00  0.00    +0.026 A 
ATOM     18  F   UNL     1       8.239 -16.563  -0.430  0.00  0.00    -0.205 F 
ENDBRANCH  10  12
BRANCH   1  19
ATOM     19  C   UNL     1       3.118  -6.554  -0.065  0.00  0.00    +0.203 C 
BRANCH  19  21
ATOM     20  N   UNL     1       1.421  -4.755  -0.046  0.00  0.00    -0.310 N 
ATOM     21  C   UNL     1       1.689  -6.076  -0.051  0.00  0.00    +0.231 C 
ATOM     22  O   UNL     1       0.781  -6.879  -0.045  0.00  0.00    -0.274 OA
ATOM     23  H   UNL     1       2.147  -4.112  -0.051  0.00  0.00    +0.149 HD
BRANCH  20  24
ATOM     24  C   UNL     1       0.032  -4.290  -0.033  0.00  0.00    +0.139 C 
BRANCH  24  29
ATOM     25  C   UNL     1      -0.068   1.488  -0.019  0.00  0.00    +0.044 C 
ATOM     26  C   UNL     1      -0.042  -0.019  -0.023  0.00  0.00    -0.050 A 
ATOM     27  C   UNL     1      -0.040  -0.707  -1.221  0.00  0.00    +0.003 A 
ATOM     28  C   UNL     1      -0.016  -2.089  -1.225  0.00  0.00    +0.005 A 
ATOM     29  C   UNL     1       0.006  -2.783  -0.029  0.00  0.00    -0.030 A 
ATOM     30  C   UNL     1       0.005  -2.095   1.170  0.00  0.00    +0.005 A 
ATOM     31  C   UNL     1      -0.015  -0.713   1.173  0.00  0.00    +0.003 A 
ENDBRANCH  24  29
ENDBRANCH  20  24
ENDBRANCH  19  21
ENDBRANCH   1  19
TORSDOF 5
