REMARK  Name = ZINC39218142
REMARK  5 active torsions:
REMARK  status: ('A' for Active; 'I' for Inactive)
REMARK    1  A    between atoms: C_1  and  C_2
REMARK    2  A    between atoms: P_7  and  S_13
REMARK    3  A    between atoms: C_10  and  S_11
REMARK    4  A    between atoms: S_11  and  C_12
REMARK    5  A    between atoms: S_13  and  C_14
REMARK                            x       y       z     vdW  Elec       q    Type
REMARK                         _______ _______ _______ _____ _____    ______ ____
ROOT
ATOM      1  C   UNL     1      -0.018   1.503   0.010  0.00  0.00    +0.068 C 
ATOM      2  C   UNL     1       0.002  -0.004   0.002  0.00  0.00    +0.069 C 
ATOM      3  C   UNL     1      -1.081  -0.784   0.003  0.00  0.00    +0.048 C 
ATOM      4  C   UNL     1      -0.523  -2.188   0.224  0.00  0.00    +0.236 C 
ATOM      5  N   UNL     1      -1.112  -2.991  -0.863  0.00  0.00    -0.239 NA
ATOM      6  P   UNL     1      -2.759  -2.944  -0.972  0.00  0.00    +0.157 P 
ATOM      7  S   UNL     1      -3.279  -3.420  -2.697  0.00  0.00    -0.015 S 
ATOM      8  N   UNL     1      -3.293  -1.430  -0.640  0.00  0.00    -0.223 NA
ATOM      9  C   UNL     1      -2.502  -0.497  -0.189  0.00  0.00    +0.107 C 
ATOM     10  N   UNL     1       0.918  -1.984   0.080  0.00  0.00    -0.163 NA
ATOM     11  N   UNL     1       1.122  -0.766  -0.013  0.00  0.00    -0.157 NA
ATOM     12  H   UNL     1      -0.568  -3.512  -1.474  0.00  0.00    +0.132 HD
ENDROOT
BRANCH   9  13
ATOM     13  S   UNL     1      -3.150   1.091   0.212  0.00  0.00    -0.109 S 
ATOM     14  C   UNL     1      -4.914   0.959  -0.190  0.00  0.00    +0.091 C 
ENDBRANCH   9  13
BRANCH   6  15
ATOM     15  S   UNL     1      -3.597  -4.306   0.419  0.00  0.00    -0.094 S 
ATOM     16  C   UNL     1      -5.386  -4.136   0.176  0.00  0.00    +0.093 C 
ENDBRANCH   6  15
TORSDOF 2
