REMARK  Name = ZINC00427720
REMARK  6 active torsions:
REMARK  status: ('A' for Active; 'I' for Inactive)
REMARK    1  A    between atoms: C_1  and  C_2
REMARK    2  A    between atoms: C_5  and  C_8
REMARK    3  A    between atoms: C_13  and  C_21
REMARK    4  A    between atoms: C_14  and  C_17
REMARK    5  A    between atoms: C_17  and  O_19
REMARK    6  A    between atoms: O_19  and  C_20
REMARK                            x       y       z     vdW  Elec       q    Type
REMARK                         _______ _______ _______ _____ _____    ______ ____
ROOT
ATOM      1  C   UNL     1       0.059  -4.275  -0.021  0.00  0.00    +0.032 C 
ATOM      2  C   UNL     1      -1.190  -4.800   0.693  0.00  0.00    +0.062 C 
ATOM      3  C   UNL     1      -1.088  -6.297   0.836  0.00  0.00    +0.028 A 
ATOM      4  C   UNL     1       0.124  -6.985   0.762  0.00  0.00    +0.042 A 
ATOM      5  C   UNL     1      -0.149  -8.347   0.932  0.00  0.00    -0.008 A 
ATOM      6  C   UNL     1      -1.502  -8.457   1.105  0.00  0.00    +0.128 A 
ATOM      7  N   UNL     1      -2.055  -7.191   1.044  0.00  0.00    -0.352 N 
ATOM      8  H   UNL     1      -2.998  -6.986   1.138  0.00  0.00    +0.166 HD
ATOM      9  C   UNL     1       0.852  -9.473   0.924  0.00  0.00    +0.047 C 
ATOM     10  C   UNL     1       1.397  -6.281   0.544  0.00  0.00    +0.166 C 
ATOM     11  O   UNL     1       2.426  -6.866   0.276  0.00  0.00    -0.292 OA
ATOM     12  C   UNL     1       1.330  -4.767   0.679  0.00  0.00    +0.088 C 
ENDROOT
BRANCH   1  17
ATOM     13  C   UNL     1      -0.018   1.503   0.010  0.00  0.00    +0.044 C 
ATOM     14  C   UNL     1       0.002  -0.004   0.002  0.00  0.00    -0.050 A 
ATOM     15  C   UNL     1       0.006  -0.689  -1.199  0.00  0.00    +0.003 A 
ATOM     16  C   UNL     1       0.025  -2.071  -1.206  0.00  0.00    +0.004 A 
ATOM     17  C   UNL     1       0.040  -2.768  -0.013  0.00  0.00    -0.043 A 
ATOM     18  C   UNL     1       0.037  -2.084   1.188  0.00  0.00    +0.004 A 
ATOM     19  C   UNL     1       0.023  -0.702   1.195  0.00  0.00    +0.003 A 
ENDBRANCH   1  17
BRANCH   6  20
ATOM     20  C   UNL     1      -2.240  -9.706   1.320  0.00  0.00    +0.356 C 
ATOM     21  O   UNL     1      -1.645 -10.765   1.355  0.00  0.00    -0.243 OA
BRANCH  20  22
ATOM     22  O   UNL     1      -3.579  -9.679   1.478  0.00  0.00    -0.463 OA
ATOM     23  C   UNL     1      -4.233 -10.932   1.683  0.00  0.00    +0.280 C 
ENDBRANCH  20  22
ENDBRANCH   6  20
TORSDOF 3
