REMARK  Name = ZINC46665777
REMARK  10 active torsions:
REMARK  status: ('A' for Active; 'I' for Inactive)
REMARK    1  A    between atoms: C_1  and  C_2
REMARK    2  A    between atoms: C_2  and  C_3
REMARK    3  A    between atoms: C_3  and  N_4
REMARK    4  A    between atoms: C_13  and  C_15
REMARK    5  A    between atoms: N_17  and  C_18
REMARK    6  A    between atoms: C_20  and  C_30
REMARK    7  A    between atoms: N_22  and  C_23
REMARK    8  A    between atoms: C_30  and  C_31
REMARK    9  A    between atoms: C_30  and  C_32
REMARK   10  A    between atoms: C_30  and  C_33
REMARK                            x       y       z     vdW  Elec       q    Type
REMARK                         _______ _______ _______ _____ _____    ______ ____
ROOT
ATOM      1  C   UNL     1      -1.392  -4.503  -2.618  0.00  0.00    +0.270 C 
ATOM      2  O   UNL     1      -1.376  -5.712  -2.743  0.00  0.00    -0.268 OA
ATOM      3  N   UNL     1      -1.408  -3.712  -3.709  0.00  0.00    -0.265 N 
ATOM      4  H   UNL     1      -1.421  -2.747  -3.609  0.00  0.00    +0.157 HD
ENDROOT
BRANCH   1  14
ATOM      5  N   UNL     1      -1.413  -1.998   0.005  0.00  0.00    -0.228 N 
ATOM      6  C   UNL     1      -1.399  -2.643   1.190  0.00  0.00    +0.275 A 
ATOM      7  O   UNL     1      -1.403  -2.022   2.237  0.00  0.00    -0.266 OA
ATOM      8  C   UNL     1      -1.379  -4.112   1.187  0.00  0.00    +0.050 A 
ATOM      9  C   UNL     1      -1.363  -4.870   2.354  0.00  0.00    +0.014 A 
ATOM     10  C   UNL     1      -1.344  -6.246   2.266  0.00  0.00    +0.001 A 
ATOM     11  C   UNL     1      -1.341  -6.878   1.029  0.00  0.00    +0.001 A 
ATOM     12  C   UNL     1      -1.357  -6.145  -0.139  0.00  0.00    +0.011 A 
ATOM     13  C   UNL     1      -1.376  -4.756  -0.072  0.00  0.00    +0.020 A 
ATOM     14  C   UNL     1      -1.394  -3.901  -1.270  0.00  0.00    +0.154 A 
ATOM     15  N   UNL     1      -1.416  -2.598  -1.125  0.00  0.00    -0.163 NA
BRANCH   5  16
ATOM     16  C   UNL     1      -1.433  -0.534   0.013  0.00  0.00    +0.147 C 
BRANCH  16  18
ATOM     17  C   UNL     1      -0.019   1.526   0.010  0.00  0.00    +0.005 C 
ATOM     18  C   UNL     1       0.002  -0.004   0.002  0.00  0.00    +0.020 C 
ENDBRANCH  16  18
ENDBRANCH   5  16
ENDBRANCH   1  14
BRANCH   3  19
ATOM     19  C   UNL     1      -1.407  -4.280  -4.981  0.00  0.00    +0.129 A 
ATOM     20  C   UNL     1      -1.396  -5.611  -5.269  0.00  0.00    +0.069 A 
ATOM     21  C   UNL     1      -1.399  -5.749  -6.660  0.00  0.00    +0.071 A 
ATOM     22  N   UNL     1      -1.412  -4.555  -7.195  0.00  0.00    -0.169 NA
ATOM     23  N   UNL     1      -1.422  -3.607  -6.164  0.00  0.00    -0.218 N 
BRANCH  23  24
ATOM     24  C   UNL     1      -1.441  -2.214  -6.322  0.00  0.00    +0.068 A 
ATOM     25  C   UNL     1      -2.132  -1.421  -5.415  0.00  0.00    +0.030 A 
ATOM     26  C   UNL     1      -2.150  -0.049  -5.572  0.00  0.00    +0.040 A 
ATOM     27  C   UNL     1      -1.480   0.536  -6.633  0.00  0.00    +0.124 A 
ATOM     28  C   UNL     1      -0.790  -0.253  -7.538  0.00  0.00    +0.040 A 
ATOM     29  C   UNL     1      -0.765  -1.625  -7.381  0.00  0.00    +0.030 A 
ATOM     30  F   UNL     1      -1.499   1.878  -6.785  0.00  0.00    -0.205 F 
ENDBRANCH  23  24
BRANCH  21  31
ATOM     31  C   UNL     1      -1.390  -7.053  -7.415  0.00  0.00    +0.006 C 
ATOM     32  C   UNL     1      -2.777  -7.694  -7.343  0.00  0.00    +0.017 C 
ATOM     33  C   UNL     1      -1.024  -6.792  -8.878  0.00  0.00    +0.017 C 
ATOM     34  C   UNL     1      -0.359  -7.996  -6.792  0.00  0.00    +0.017 C 
ENDBRANCH  21  31
ENDBRANCH   3  19
TORSDOF 6
