REMARK  Name = ZINC24879701
REMARK  6 active torsions:
REMARK  status: ('A' for Active; 'I' for Inactive)
REMARK    1  A    between atoms: C_1  and  C_2
REMARK    2  A    between atoms: C_2  and  C_3
REMARK    3  A    between atoms: C_2  and  C_4
REMARK    4  A    between atoms: C_2  and  C_5
REMARK    5  A    between atoms: C_8  and  C_11
REMARK    6  A    between atoms: C_11  and  N_12
REMARK                            x       y       z     vdW  Elec       q    Type
REMARK                         _______ _______ _______ _____ _____    ______ ____
ROOT
ATOM      1  N   UNL     1      -0.146   4.075  -0.368  0.00  0.00    -0.294 NA
ATOM      2  C   UNL     1      -1.202   3.457   0.450  0.00  0.00    +0.091 C 
ATOM      3  C   UNL     1      -1.361   2.000   0.019  0.00  0.00    +0.071 C 
ATOM      4  C   UNL     1      -0.016   1.315   0.009  0.00  0.00    +0.049 A 
ATOM      5  C   UNL     1       1.164   2.048   0.002  0.00  0.00    -0.011 A 
ATOM      6  C   UNL     1       2.371   1.398  -0.019  0.00  0.00    +0.018 A 
ATOM      7  C   UNL     1       2.377  -0.005  -0.029  0.00  0.00    +0.020 A 
ATOM      8  C   UNL     1       3.581  -0.738  -0.052  0.00  0.00    +0.015 A 
ATOM      9  C   UNL     1       3.507  -2.098  -0.061  0.00  0.00    +0.044 A 
ATOM     10  C   UNL     1       2.254  -2.728  -0.048  0.00  0.00    +0.119 A 
ATOM     11  N   UNL     1       1.133  -2.035  -0.026  0.00  0.00    -0.213 NA
ATOM     12  C   UNL     1       1.142  -0.697  -0.018  0.00  0.00    +0.162 A 
ATOM     13  N   UNL     1       0.002  -0.004   0.002  0.00  0.00    -0.232 NA
ATOM     14  N   UNL     1       2.193  -4.112  -0.058  0.00  0.00    -0.343 N 
ATOM     15  C   UNL     1       1.167   3.554   0.021  0.00  0.00    +0.121 C 
ATOM     16  H   UNL     1       1.217  -4.619  -0.048  0.00  0.00    +0.144 HD
ATOM     17  H   UNL     1       3.120  -4.703  -0.075  0.00  0.00    +0.144 HD
ENDROOT
BRANCH   1  18
ATOM     18  C   UNL     1      -0.185   5.540  -0.260  0.00  0.00    +0.120 C 
BRANCH  18  22
ATOM     19  C   UNL     1       2.479   7.252  -3.126  0.00  0.00    -0.042 A 
ATOM     20  C   UNL     1       1.161   7.011  -3.466  0.00  0.00    +0.004 A 
ATOM     21  C   UNL     1       0.299   6.457  -2.538  0.00  0.00    +0.005 A 
ATOM     22  C   UNL     1       0.755   6.144  -1.271  0.00  0.00    -0.033 A 
ATOM     23  C   UNL     1       2.071   6.389  -0.930  0.00  0.00    +0.005 A 
ATOM     24  C   UNL     1       2.935   6.939  -1.859  0.00  0.00    +0.004 A 
BRANCH  19  26
ATOM     25  C   UNL     1       2.892   9.224  -4.571  0.00  0.00    +0.015 C 
ATOM     26  C   UNL     1       3.419   7.855  -4.138  0.00  0.00    -0.013 C 
ATOM     27  C   UNL     1       4.806   8.016  -3.512  0.00  0.00    +0.015 C 
ATOM     28  C   UNL     1       3.514   6.936  -5.358  0.00  0.00    +0.015 C 
ENDBRANCH  19  26
ENDBRANCH  18  22
ENDBRANCH   1  18
TORSDOF 3
