REMARK  Name = ZINC43040512
REMARK  9 active torsions:
REMARK  status: ('A' for Active; 'I' for Inactive)
REMARK    1  A    between atoms: C_1  and  C_2
REMARK    2  A    between atoms: C_3  and  O_30
REMARK    3  A    between atoms: C_6  and  C_10
REMARK    4  A    between atoms: C_7  and  O_8
REMARK    5  A    between atoms: O_8  and  C_9
REMARK    6  A    between atoms: C_10  and  N_11
REMARK    7  A    between atoms: C_14  and  N_17
REMARK    8  A    between atoms: C_20  and  C_23
REMARK    9  A    between atoms: O_30  and  C_31
REMARK                            x       y       z     vdW  Elec       q    Type
REMARK                         _______ _______ _______ _____ _____    ______ ____
ROOT
ATOM      1  N   UNL     1      -1.153  -2.787   2.992  0.00  0.00    +0.383 N 
ATOM      2  C   UNL     1      -2.079  -3.406   2.036  0.00  0.00    -0.077 C 
ATOM      3  C   UNL     1      -3.508  -3.321   2.575  0.00  0.00    +0.000 C 
ATOM      4  C   UNL     1      -3.588  -4.057   3.915  0.00  0.00    +0.053 C 
ATOM      5  C   UNL     1      -2.566  -3.450   4.881  0.00  0.00    +0.000 C 
ATOM      6  C   UNL     1      -1.171  -3.531   4.257  0.00  0.00    -0.077 C 
ATOM      7  H   UNL     1      -1.436  -1.833   3.161  0.00  0.00    -0.081 HD
ENDROOT
BRANCH   4   8
ATOM      8  N   UNL     1      -4.938  -3.914   4.475  0.00  0.00    -0.299 NA
ATOM      9  C   UNL     1      -5.954  -4.387   3.526  0.00  0.00    +0.085 C 
ATOM     10  C   UNL     1      -7.349  -4.090   4.080  0.00  0.00    +0.028 C 
ATOM     11  C   UNL     1      -7.518  -4.793   5.430  0.00  0.00    +0.078 C 
ATOM     12  C   UNL     1      -6.419  -4.319   6.384  0.00  0.00    +0.028 C 
ATOM     13  C   UNL     1      -5.050  -4.610   5.763  0.00  0.00    +0.085 C 
BRANCH  11  14
ATOM     14  C   UNL     1      -8.868  -4.455   6.009  0.00  0.00    +0.219 C 
ATOM     15  O   UNL     1      -9.013  -3.440   6.656  0.00  0.00    -0.275 OA
ATOM     16  N   UNL     1      -9.913  -5.282   5.807  0.00  0.00    -0.301 N 
ATOM     17  C   UNL     1      -9.855  -6.591   5.141  0.00  0.00    +0.108 C 
ATOM     18  C   UNL     1     -11.290  -7.158   5.118  0.00  0.00    +0.020 C 
ATOM     19  C   UNL     1     -12.168  -5.887   5.267  0.00  0.00    +0.020 C 
ATOM     20  C   UNL     1     -11.304  -5.025   6.225  0.00  0.00    +0.108 C 
ENDBRANCH  11  14
ENDBRANCH   4   8
BRANCH   1  21
ATOM     21  C   UNL     1       0.206  -2.802   2.436  0.00  0.00    -0.039 C 
BRANCH  21  27
ATOM     22  C   UNL     1       0.312   1.772   0.387  0.00  0.00    +0.051 C 
ATOM     23  C   UNL     1       0.310   0.273   0.235  0.00  0.00    +0.033 A 
ATOM     24  C   UNL     1       0.355  -0.297  -1.028  0.00  0.00    +0.126 A 
ATOM     25  C   UNL     1       0.353  -1.678  -1.165  0.00  0.00    +0.046 A 
ATOM     26  C   UNL     1       0.305  -2.485  -0.044  0.00  0.00    +0.009 A 
ATOM     27  C   UNL     1       0.259  -1.919   1.216  0.00  0.00    -0.022 A 
ATOM     28  C   UNL     1       0.268  -0.538   1.358  0.00  0.00    +0.128 A 
BRANCH  28  29
ATOM     29  O   UNL     1       0.230   0.018   2.598  0.00  0.00    -0.495 OA
ATOM     30  C   UNL     1       1.481   0.374   3.188  0.00  0.00    +0.277 C 
ENDBRANCH  28  29
BRANCH  24  31
ATOM     31  O   UNL     1       0.401   0.496  -2.131  0.00  0.00    -0.495 OA
ATOM     32  C   UNL     1       0.446  -0.160  -3.400  0.00  0.00    +0.277 C 
ENDBRANCH  24  31
ENDBRANCH  21  27
ENDBRANCH   1  21
TORSDOF 6
