REMARK  Name = ZINC04077323
REMARK  6 active torsions:
REMARK  status: ('A' for Active; 'I' for Inactive)
REMARK    1  A    between atoms: C_4  and  S_7
REMARK    2  A    between atoms: S_7  and  N_10
REMARK    3  A    between atoms: C_11  and  N_25
REMARK    4  A    between atoms: C_13  and  O_15
REMARK    5  A    between atoms: O_15  and  C_16
REMARK    6  A    between atoms: C_16  and  C_18
REMARK                            x       y       z     vdW  Elec       q    Type
REMARK                         _______ _______ _______ _____ _____    ______ ____
ROOT
ATOM      1  N   UNL     1       4.378  -1.079   1.536  0.00  0.00    -0.112 N 
ATOM      2  C   UNL     1       5.123  -0.237   2.297  0.00  0.00    +0.143 A 
ATOM      3  C   UNL     1       5.260  -0.806   3.526  0.00  0.00    +0.114 A 
ATOM      4  C   UNL     1       4.577  -2.030   3.509  0.00  0.00    +0.246 A 
ATOM      5  N   UNL     1       4.045  -2.190   2.321  0.00  0.00    -0.110 NA
ENDROOT
BRANCH   1   6
ATOM      6  S   UNL     1       3.934  -0.832  -0.041  0.00  0.00    +0.101 S 
ATOM      7  O   UNL     1       3.674  -2.114  -0.595  0.00  0.00    -0.146 OA
ATOM      8  O   UNL     1       4.890   0.060  -0.597  0.00  0.00    -0.146 OA
BRANCH   6  12
ATOM      9  C   UNL     1      -0.017   1.378   0.010  0.00  0.00    +0.000 A 
ATOM     10  C   UNL     1       1.171   2.086   0.002  0.00  0.00    +0.002 A 
ATOM     11  C   UNL     1       2.377   1.411  -0.013  0.00  0.00    +0.029 A 
ATOM     12  C   UNL     1       2.396   0.029  -0.020  0.00  0.00    +0.113 A 
ATOM     13  C   UNL     1       1.208  -0.679  -0.012  0.00  0.00    +0.029 A 
ATOM     14  C   UNL     1       0.002  -0.004   0.002  0.00  0.00    +0.002 A 
ENDBRANCH   6  12
ENDBRANCH   1   6
BRANCH   2  15
ATOM     15  N   UNL     1       5.652   0.986   1.894  0.00  0.00    -0.342 N 
ATOM     16  H   UNL     1       5.498   1.308   0.992  0.00  0.00    +0.144 HD
ATOM     17  H   UNL     1       6.174   1.517   2.516  0.00  0.00    +0.144 HD
ENDBRANCH   2  15
BRANCH   4  18
ATOM     18  O   UNL     1       4.477  -2.901   4.549  0.00  0.00    -0.402 OA
BRANCH  18  19
ATOM     19  C   UNL     1       3.779  -4.037   4.358  0.00  0.00    +0.347 C 
ATOM     20  O   UNL     1       3.260  -4.258   3.282  0.00  0.00    -0.244 OA
BRANCH  19  21
ATOM     21  C   UNL     1       3.642  -5.013   5.458  0.00  0.00    +0.073 A 
ATOM     22  C   UNL     1       4.232  -4.760   6.698  0.00  0.00    +0.016 A 
ATOM     23  C   UNL     1       4.101  -5.676   7.721  0.00  0.00    +0.001 A 
ATOM     24  C   UNL     1       3.388  -6.845   7.520  0.00  0.00    +0.001 A 
ATOM     25  C   UNL     1       2.801  -7.104   6.295  0.00  0.00    +0.016 A 
ATOM     26  C   UNL     1       2.918  -6.192   5.263  0.00  0.00    +0.032 A 
ATOM     27 BR   UNL     1       2.109  -6.543   3.591  0.00  0.00    -0.049 Br
ENDBRANCH  19  21
ENDBRANCH  18  19
ENDBRANCH   4  18
TORSDOF 6
