REMARK  Name = ZINC51146545
REMARK  3 active torsions:
REMARK  status: ('A' for Active; 'I' for Inactive)
REMARK    1  A    between atoms: N_9  and  C_10
REMARK    2  A    between atoms: C_10  and  C_11
REMARK    3  A    between atoms: N_20  and  N_21
REMARK                            x       y       z     vdW  Elec       q    Type
REMARK                         _______ _______ _______ _____ _____    ______ ____
ROOT
ATOM      1  C   UNL     1       5.399  -0.285   1.368  0.00  0.00    +0.149 A 
ATOM      2  N   UNL     1       5.272   0.876   1.986  0.00  0.00    -0.214 NA
ATOM      3  C   UNL     1       5.686   1.061   3.229  0.00  0.00    +0.144 A 
ATOM      4  C   UNL     1       6.289  -0.021   3.928  0.00  0.00    +0.049 A 
ATOM      5  C   UNL     1       6.819  -0.074   5.279  0.00  0.00    +0.021 A 
ATOM      6  C   UNL     1       7.347  -1.221   5.731  0.00  0.00    +0.048 A 
ATOM      7  S   UNL     1       7.169  -2.334   4.349  0.00  0.00    -0.077 S 
ATOM      8  C   UNL     1       6.389  -1.228   3.203  0.00  0.00    +0.114 A 
ATOM      9  N   UNL     1       5.944  -1.327   1.966  0.00  0.00    -0.223 NA
ATOM     10  N   UNL     1       5.536   2.293   3.840  0.00  0.00    -0.267 N 
ATOM     11  H   UNL     1       5.842   2.422   4.752  0.00  0.00    +0.167 HD
ENDROOT
BRANCH  10  12
ATOM     12  N   UNL     1       4.957   3.327   3.161  0.00  0.00    -0.255 NA
ATOM     13  H   UNL     1       4.039   3.071   2.828  0.00  0.00    +0.140 HD
ATOM     14  H   UNL     1       4.916   4.157   3.732  0.00  0.00    +0.140 HD
ENDBRANCH  10  12
BRANCH   1  15
ATOM     15  C   UNL     1       4.903  -0.424  -0.048  0.00  0.00    +0.181 C 
BRANCH  15  24
ATOM     16  C   UNL     1      -0.017   1.378   0.010  0.00  0.00    +0.000 A 
ATOM     17  C   UNL     1       1.174   2.082   0.002  0.00  0.00    +0.002 A 
ATOM     18  C   UNL     1       2.377   1.411  -0.013  0.00  0.00    +0.023 A 
ATOM     19  C   UNL     1       2.405   0.014  -0.021  0.00  0.00    +0.033 A 
ATOM     20  C   UNL     1       1.206  -0.682  -0.013  0.00  0.00    -0.025 A 
ATOM     21  C   UNL     1       0.002  -0.004   0.002  0.00  0.00    +0.005 A 
ATOM     22  C   UNL     1       1.510  -2.163  -0.023  0.00  0.00    +0.056 C 
ATOM     23  C   UNL     1       3.046  -2.241  -0.038  0.00  0.00    +0.110 C 
ATOM     24  N   UNL     1       3.501  -0.849  -0.036  0.00  0.00    -0.322 N 
ENDBRANCH  15  24
ENDBRANCH   1  15
TORSDOF 3
