REMARK  Name = ZINC50743129
REMARK  5 active torsions:
REMARK  status: ('A' for Active; 'I' for Inactive)
REMARK    1  A    between atoms: C_1  and  C_2
REMARK    2  A    between atoms: C_5  and  C_21
REMARK    3  A    between atoms: C_10  and  C_12
REMARK    4  A    between atoms: C_14  and  N_19
REMARK    5  A    between atoms: N_19  and  C_20
REMARK                            x       y       z     vdW  Elec       q    Type
REMARK                         _______ _______ _______ _____ _____    ______ ____
ROOT
ATOM      1  C   UNL     1       0.466   2.362  -0.024  0.00  0.00    +0.009 C 
ATOM      2  C   UNL     1       0.165   0.877  -0.242  0.00  0.00    +0.004 C 
ATOM      3  C   UNL     1       0.881   0.391  -1.503  0.00  0.00    +0.009 C 
ATOM      4  C   UNL     1       2.388   0.618  -1.356  0.00  0.00    +0.004 C 
ATOM      5  C   UNL     1       2.908  -0.189  -0.162  0.00  0.00    +0.111 C 
ATOM      6  N   UNL     1       2.124   0.169   1.028  0.00  0.00    -0.297 N 
ATOM      7  C   UNL     1       0.659   0.073   0.965  0.00  0.00    +0.111 C 
ATOM      8  C   UNL     1       2.738   0.577   2.157  0.00  0.00    +0.247 C 
ATOM      9  O   UNL     1       3.951   0.585   2.220  0.00  0.00    -0.270 OA
ATOM     10  C   UNL     1       3.100   0.162  -2.631  0.00  0.00    +0.009 C 
ENDROOT
BRANCH   8  11
ATOM     11  C   UNL     1       1.932   1.014   3.321  0.00  0.00    +0.043 A 
ATOM     12  C   UNL     1       0.886   0.227   3.805  0.00  0.00    +0.056 A 
ATOM     13  C   UNL     1       0.157   0.676   4.900  0.00  0.00    +0.121 A 
ATOM     14  N   UNL     1       0.446   1.831   5.478  0.00  0.00    -0.221 NA
ATOM     15  C   UNL     1       1.427   2.601   5.047  0.00  0.00    +0.132 A 
ATOM     16  C   UNL     1       2.204   2.225   3.967  0.00  0.00    +0.053 A 
ATOM     17 CL   UNL     1       1.752   4.104   5.851  0.00  0.00    -0.062 Cl
BRANCH  13  18
ATOM     18  N   UNL     1      -0.888  -0.097   5.393  0.00  0.00    -0.332 N 
ATOM     19  C   UNL     1      -1.216  -1.376   4.760  0.00  0.00    +0.127 C 
ATOM     20  H   UNL     1      -1.401   0.212   6.157  0.00  0.00    +0.147 HD
ENDBRANCH  13  18
ENDBRANCH   8  11
TORSDOF 2
