REMARK  Name = ZINC04164899
REMARK  5 active torsions:
REMARK  status: ('A' for Active; 'I' for Inactive)
REMARK    1  A    between atoms: C_1  and  C_2
REMARK    2  A    between atoms: C_6  and  C_33
REMARK    3  A    between atoms: C_10  and  C_12
REMARK    4  A    between atoms: C_17  and  C_29
REMARK    5  A    between atoms: C_20  and  C_23
REMARK                            x       y       z     vdW  Elec       q    Type
REMARK                         _______ _______ _______ _____ _____    ______ ____
ROOT
ATOM      1  C   UNL     1      -4.309   0.938  -1.526  0.00  0.00    +0.149 A 
ATOM      2  C   UNL     1      -4.037   0.587  -0.184  0.00  0.00    +0.078 A 
ATOM      3  C   UNL     1      -2.760   0.933   0.076  0.00  0.00    +0.119 A 
ATOM      4  N   UNL     1      -2.230   1.484  -1.056  0.00  0.00    -0.238 N 
ATOM      5  N   UNL     1      -3.217   1.476  -2.040  0.00  0.00    -0.164 NA
ATOM      6  C   UNL     1      -0.853   1.978  -1.151  0.00  0.00    +0.215 C 
ATOM      7  C   UNL     1      -0.023   1.354  -0.024  0.00  0.00    +0.063 C 
ATOM      8  C   UNL     1      -0.749   1.529   1.315  0.00  0.00    +0.104 C 
ATOM      9  N   UNL     1      -2.026   0.795   1.257  0.00  0.00    -0.322 N 
ATOM     10  H   UNL     1      -2.339   0.248   1.996  0.00  0.00    +0.148 HD
ENDROOT
BRANCH   1  18
ATOM     11  C   UNL     1      -3.562   2.967  -5.989  0.00  0.00    +0.009 C 
ATOM     12  C   UNL     1      -4.744   2.659  -5.068  0.00  0.00    +0.003 C 
ATOM     13  C   UNL     1      -6.021   2.531  -5.901  0.00  0.00    +0.006 C 
ATOM     14  C   UNL     1      -7.209   2.255  -4.977  0.00  0.00    +0.022 C 
ATOM     15  C   UNL     1      -6.979   0.927  -4.239  0.00  0.00    +0.073 C 
ATOM     16  N   UNL     1      -5.683   0.994  -3.551  0.00  0.00    -0.293 N 
ATOM     17  C   UNL     1      -4.486   1.341  -4.330  0.00  0.00    +0.111 C 
ATOM     18  C   UNL     1      -5.592   0.737  -2.231  0.00  0.00    +0.267 C 
ATOM     19  O   UNL     1      -6.565   0.340  -1.621  0.00  0.00    -0.268 OA
ATOM     20  C   UNL     1      -6.968  -0.227  -5.243  0.00  0.00    +0.028 C 
ENDBRANCH   1  18
BRANCH   8  21
ATOM     21  C   UNL     1       0.101   0.973   2.428  0.00  0.00    -0.027 A 
ATOM     22  C   UNL     1       0.125  -0.388   2.666  0.00  0.00    +0.005 A 
ATOM     23  C   UNL     1       0.908  -0.898   3.684  0.00  0.00    +0.000 A 
ATOM     24  C   UNL     1       1.661  -0.046   4.471  0.00  0.00    +0.000 A 
ATOM     25  C   UNL     1       1.633   1.316   4.236  0.00  0.00    +0.000 A 
ATOM     26  C   UNL     1       0.853   1.826   3.214  0.00  0.00    +0.005 A 
ENDBRANCH   8  21
BRANCH   6  27
ATOM     27  C   UNL     1      -0.260   1.581  -2.505  0.00  0.00    +0.412 C 
ATOM     28  F   UNL     1      -0.276   0.188  -2.631  0.00  0.00    -0.168 F 
ATOM     29  F   UNL     1      -1.019   2.151  -3.532  0.00  0.00    -0.168 F 
ATOM     30  F   UNL     1       1.059   2.041  -2.588  0.00  0.00    -0.168 F 
ENDBRANCH   6  27
TORSDOF 3
