REMARK  Name = ZINC64182240
REMARK  8 active torsions:
REMARK  status: ('A' for Active; 'I' for Inactive)
REMARK    1  A    between atoms: C_1  and  N_2
REMARK    2  A    between atoms: N_2  and  C_3
REMARK    3  A    between atoms: N_2  and  S_23
REMARK    4  A    between atoms: C_3  and  C_4
REMARK    5  A    between atoms: C_4  and  C_5
REMARK    6  A    between atoms: C_5  and  C_6
REMARK    7  A    between atoms: C_11  and  C_14
REMARK    8  A    between atoms: S_23  and  C_26
REMARK                            x       y       z     vdW  Elec       q    Type
REMARK                         _______ _______ _______ _____ _____    ______ ____
ROOT
ATOM      1  C   UNL     1      -2.997  -1.818   3.602  0.00  0.00    +0.216 C 
ATOM      2  O   UNL     1      -3.989  -1.281   3.158  0.00  0.00    -0.276 OA
ATOM      3  N   UNL     1      -3.061  -2.498   4.763  0.00  0.00    -0.297 N 
ATOM      4  C   UNL     1      -4.323  -2.613   5.514  0.00  0.00    +0.113 C 
ATOM      5  C   UNL     1      -4.707  -4.094   5.571  0.00  0.00    +0.054 C 
ATOM      6  C   UNL     1      -3.515  -4.929   5.937  0.00  0.00    -0.043 C 
ATOM      7  C   UNL     1      -2.257  -4.522   5.826  0.00  0.00    -0.004 C 
ATOM      8  C   UNL     1      -1.876  -3.159   5.328  0.00  0.00    +0.135 C 
ENDROOT
BRANCH   6   9
ATOM      9  C   UNL     1      -3.747  -6.229   6.431  0.00  0.00    -0.016 C 
ATOM     10  C   UNL     1      -4.966  -6.889   6.517  0.00  0.00    +0.003 A 
ATOM     11  C   UNL     1      -6.284  -6.513   6.166  0.00  0.00    +0.010 A 
ATOM     12  C   UNL     1      -7.306  -7.381   6.366  0.00  0.00    +0.001 A 
ATOM     13  C   UNL     1      -7.095  -8.650   6.914  0.00  0.00    +0.002 A 
ATOM     14  C   UNL     1      -5.862  -9.078   7.273  0.00  0.00    +0.026 A 
ATOM     15  C   UNL     1      -4.739  -8.226   7.095  0.00  0.00    +0.043 A 
ATOM     16  N   UNL     1      -3.462  -8.402   7.358  0.00  0.00    -0.380 N 
ATOM     17  C   UNL     1      -2.719  -7.198   6.973  0.00  0.00    +0.149 C 
ATOM     18  H   UNL     1      -3.072  -9.203   7.742  0.00  0.00    +0.160 HD
ENDBRANCH   6   9
BRANCH   1  19
ATOM     19  C   UNL     1      -1.691  -1.724   2.855  0.00  0.00    +0.097 C 
BRANCH  19  20
ATOM     20  C   UNL     1      -1.891  -0.903   1.579  0.00  0.00    +0.026 C 
BRANCH  20  21
ATOM     21  C   UNL     1      -0.566  -0.807   0.821  0.00  0.00    +0.109 C 
BRANCH  21  23
ATOM     22  C   UNL     1      -0.674   1.440  -0.352  0.00  0.00    +0.131 C 
ATOM     23  N   UNL     1      -0.758  -0.021  -0.401  0.00  0.00    -0.179 NA
BRANCH  23  24
ATOM     24  S   UNL     1      -1.070  -0.785  -1.836  0.00  0.00    +0.067 S 
ATOM     25  O   UNL     1      -1.634  -2.048  -1.510  0.00  0.00    -0.152 OA
ATOM     26  O   UNL     1      -1.740   0.158  -2.661  0.00  0.00    -0.152 OA
BRANCH  24  27
ATOM     27  C   UNL     1       0.484  -1.110  -2.602  0.00  0.00    +0.143 A 
ATOM     28  C   UNL     1       1.278  -2.203  -2.490  0.00  0.00    +0.036 A 
ATOM     29  C   UNL     1       2.468  -2.241  -3.192  0.00  0.00    +0.010 A 
ATOM     30  C   UNL     1       2.806  -1.184  -3.971  0.00  0.00    +0.047 A 
ATOM     31  S   UNL     1       1.416  -0.090  -3.731  0.00  0.00    -0.077 S 
ENDBRANCH  24  27
ENDBRANCH  23  24
ENDBRANCH  21  23
ENDBRANCH  20  21
ENDBRANCH  19  20
ENDBRANCH   1  19
TORSDOF 7
