REMARK  Name = ZINC63426672
REMARK  3 active torsions:
REMARK  status: ('A' for Active; 'I' for Inactive)
REMARK    1  A    between atoms: C_8  and  C_20
REMARK    2  A    between atoms: CA_11  and  C_17
REMARK    3  A    between atoms: C_23  and  N_26
REMARK                            x       y       z     vdW  Elec       q    Type
REMARK                         _______ _______ _______ _____ _____    ______ ____
ROOT
ATOM      1  C   UNL     1      -1.133   0.919  -0.065  0.00  0.00    +0.001 A 
ATOM      2  C   UNL     1      -0.120   1.879   0.061  0.00  0.00    +0.002 A 
ATOM      3  C   UNL     1       1.185   1.550   0.166  0.00  0.00    +0.026 A 
ATOM      4  C   UNL     1       1.588   0.187   0.152  0.00  0.00    +0.043 A 
ATOM      5  N   UNL     1       2.776  -0.373   0.214  0.00  0.00    -0.376 N 
ATOM      6  C   UNL     1       2.602  -1.821   0.254  0.00  0.00    +0.128 C 
ATOM      7  C   UNL     1       3.365  -2.537  -0.864  0.00  0.00    +0.111 C 
ATOM      8  N   UNL     1       2.900  -3.932  -0.921  0.00  0.00    -0.295 NA
ATOM      9  CA  UNL     1       1.505  -4.060  -1.352  0.00  0.00    +0.172 C 
ATOM     10  C   UNL     1       0.569  -3.428  -0.305  0.00  0.00    +0.063 C 
ATOM     11  C   UNL     1       1.119  -2.054   0.006  0.00  0.00    -0.035 C 
ATOM     12  C   UNL     1       0.535  -0.850   0.011  0.00  0.00    -0.001 A 
ATOM     13  C   UNL     1      -0.860  -0.404  -0.093  0.00  0.00    +0.010 A 
ATOM     14  H   UNL     1       3.510  -4.493  -1.498  0.00  0.00    +0.123 HD
ATOM     15  H   UNL     1       3.624   0.097   0.230  0.00  0.00    +0.160 HD
ENDROOT
BRANCH   7  16
ATOM     16  C   UNL     1       4.843  -2.505  -0.572  0.00  0.00    -0.028 A 
ATOM     17  C   UNL     1       5.391  -3.406   0.321  0.00  0.00    +0.007 A 
ATOM     18  C   UNL     1       6.746  -3.376   0.589  0.00  0.00    +0.033 A 
ATOM     19  C   UNL     1       7.554  -2.445  -0.036  0.00  0.00    +0.126 A 
ATOM     20  C   UNL     1       7.006  -1.544  -0.930  0.00  0.00    +0.033 A 
ATOM     21  C   UNL     1       5.651  -1.577  -1.202  0.00  0.00    +0.007 A 
BRANCH  19  22
ATOM     22  N   UNL     1       9.006  -2.412   0.251  0.00  0.00    +0.056 N 
ATOM     23  O   UNL     1       9.485  -3.200   1.033  0.00  0.00    -0.126 OA
ATOM     24  O   UNL     1       9.712  -1.598  -0.296  0.00  0.00    -0.126 OA
ENDBRANCH  19  22
ENDBRANCH   7  16
BRANCH   9  25
ATOM     25  C   UNL     1       1.323  -3.356  -2.672  0.00  0.00    +0.373 C 
ATOM     26  O   UNL     1       2.292  -2.916  -3.267  0.00  0.00    -0.245 OA
ATOM     27  OXT UNL     1       0.207  -3.226  -3.145  0.00  0.00    -0.245 OA
ENDBRANCH   9  25
TORSDOF 3
