REMARK  Name = ZINC67518232
REMARK  3 active torsions:
REMARK  status: ('A' for Active; 'I' for Inactive)
REMARK    1  A    between atoms: C_1  and  C_2
REMARK    2  A    between atoms: C_15  and  C_17
REMARK    3  A    between atoms: C_17  and  N_18
REMARK                            x       y       z     vdW  Elec       q    Type
REMARK                         _______ _______ _______ _____ _____    ______ ____
ROOT
ATOM      1  C   UNL     1      -0.013   1.540   0.022  0.00  0.00    +0.007 C 
ATOM      2  C   UNL     1       0.002   0.010   0.011  0.00  0.00    -0.014 C 
ATOM      3  C   UNL     1       0.711  -0.482  -1.252  0.00  0.00    +0.005 C 
ATOM      4  C   UNL     1       2.158   0.018  -1.264  0.00  0.00    +0.023 C 
ATOM      5  C   UNL     1       2.879  -0.513  -0.026  0.00  0.00    +0.079 C 
ATOM      6  C   UNL     1       2.176   0.019   1.228  0.00  0.00    +0.010 C 
ATOM      7  C   UNL     1       0.741  -0.500   1.252  0.00  0.00    +0.008 C 
ATOM      8  C   UNL     1       2.936  -0.454   2.466  0.00  0.00    +0.007 C 
ATOM      9  C   UNL     1       4.356   0.120   2.435  0.00  0.00    +0.019 C 
ATOM     10  C   UNL     1       5.086  -0.377   1.184  0.00  0.00    +0.108 C 
ATOM     11  N   UNL     1       4.274  -0.061  -0.008  0.00  0.00    -0.297 N 
ATOM     12  C   UNL     1       4.796   0.615  -1.050  0.00  0.00    +0.237 C 
ATOM     13  O   UNL     1       4.141   0.776  -2.058  0.00  0.00    -0.274 OA
ENDROOT
BRANCH  12  14
ATOM     14  C   UNL     1       6.194   1.172  -0.964  0.00  0.00    +0.244 C 
BRANCH  14  15
ATOM     15  N   UNL     1       6.525   1.858  -2.215  0.00  0.00    -0.204 N 
ATOM     16  C   UNL     1       6.314   3.165  -2.491  0.00  0.00    +0.347 A 
ATOM     17  O   UNL     1       5.816   3.990  -1.746  0.00  0.00    -0.245 OA
ATOM     18  N   UNL     1       6.756   3.385  -3.735  0.00  0.00    -0.279 N 
ATOM     19  C   UNL     1       7.250   2.195  -4.240  0.00  0.00    +0.134 A 
ATOM     20  N   UNL     1       7.124   1.281  -3.346  0.00  0.00    -0.153 NA
ATOM     21  C   UNL     1       7.836   2.080  -5.633  0.00  0.00    +0.076 C 
ATOM     22  C   UNL     1       9.131   2.898  -5.662  0.00  0.00    +0.008 C 
ATOM     23  C   UNL     1       8.854   4.369  -5.871  0.00  0.00    +0.002 C 
ATOM     24  C   UNL     1       8.210   5.072  -4.700  0.00  0.00    +0.022 C 
ATOM     25  C   UNL     1       6.754   4.638  -4.507  0.00  0.00    +0.128 C 
ENDBRANCH  14  15
ENDBRANCH  12  14
TORSDOF 2
