REMARK  Name = ZINC18357715
REMARK  12 active torsions:
REMARK  status: ('A' for Active; 'I' for Inactive)
REMARK    1  A    between atoms: C_1  and  C_2
REMARK    2  A    between atoms: C_5  and  C_8
REMARK    3  A    between atoms: C_11  and  S_20
REMARK    4  A    between atoms: N_12  and  C_13
REMARK    5  A    between atoms: C_16  and  C_19
REMARK    6  A    between atoms: S_20  and  C_21
REMARK    7  A    between atoms: C_21  and  C_23
REMARK    8  A    between atoms: C_21  and  C_24
REMARK    9  A    between atoms: N_26  and  C_27
REMARK   10  A    between atoms: C_28  and  C_34
REMARK   11  A    between atoms: N_30  and  C_33
REMARK   12  A    between atoms: C_31  and  C_32
REMARK                            x       y       z     vdW  Elec       q    Type
REMARK                         _______ _______ _______ _____ _____    ______ ____
ROOT
ATOM      1  C   UNL     1       1.870  -0.544  -0.010  0.00  0.00    +0.169 A 
ATOM      2  N   UNL     1       2.483  -1.324  -0.870  0.00  0.00    -0.128 NA
ATOM      3  N   UNL     1       3.753  -1.274  -0.680  0.00  0.00    -0.122 NA
ATOM      4  C   UNL     1       4.031  -0.460   0.313  0.00  0.00    +0.197 A 
ATOM      5  N   UNL     1       2.843   0.038   0.773  0.00  0.00    -0.270 N 
ENDROOT
BRANCH   1  10
ATOM      6  C   UNL     1      -3.808   0.301   0.397  0.00  0.00    +0.044 C 
ATOM      7  C   UNL     1      -2.321   0.079   0.291  0.00  0.00    -0.050 A 
ATOM      8  C   UNL     1      -1.493   0.448   1.336  0.00  0.00    +0.004 A 
ATOM      9  C   UNL     1      -0.130   0.253   1.243  0.00  0.00    +0.012 A 
ATOM     10  C   UNL     1       0.411  -0.328   0.095  0.00  0.00    +0.020 A 
ATOM     11  C   UNL     1      -0.430  -0.703  -0.954  0.00  0.00    +0.012 A 
ATOM     12  C   UNL     1      -1.790  -0.497  -0.850  0.00  0.00    +0.004 A 
ENDBRANCH   1  10
BRANCH   5  13
ATOM     13  C   UNL     1       2.654   0.949   1.822  0.00  0.00    +0.051 A 
ATOM     14  C   UNL     1       2.158   2.219   1.559  0.00  0.00    +0.026 A 
ATOM     15  C   UNL     1       1.967   3.112   2.596  0.00  0.00    +0.005 A 
ATOM     16  C   UNL     1       2.282   2.746   3.892  0.00  0.00    -0.050 A 
ATOM     17  C   UNL     1       2.782   1.484   4.155  0.00  0.00    +0.005 A 
ATOM     18  C   UNL     1       2.969   0.585   3.124  0.00  0.00    +0.026 A 
ATOM     19  C   UNL     1       2.079   3.725   5.019  0.00  0.00    +0.044 C 
ENDBRANCH   5  13
BRANCH   4  20
ATOM     20  S   UNL     1       5.635  -0.076   0.933  0.00  0.00    -0.073 S 
BRANCH  20  21
ATOM     21  C   UNL     1       6.649  -1.094  -0.168  0.00  0.00    +0.137 C 
ATOM     22  C   UNL     1       6.519  -0.579  -1.603  0.00  0.00    +0.029 C 
BRANCH  21  23
ATOM     23  C   UNL     1       8.091  -1.017   0.264  0.00  0.00    +0.230 C 
ATOM     24  O   UNL     1       8.468  -0.097   0.959  0.00  0.00    -0.274 OA
ATOM     25  N   UNL     1       8.962  -1.971  -0.122  0.00  0.00    -0.282 N 
ATOM     26  H   UNL     1       8.666  -2.694  -0.698  0.00  0.00    +0.155 HD
BRANCH  25  27
ATOM     27  C   UNL     1      10.300  -1.919   0.311  0.00  0.00    +0.077 A 
ATOM     28  C   UNL     1      11.145  -0.802   0.251  0.00  0.00    +0.081 A 
ATOM     29  N   UNL     1      12.309  -1.138   0.745  0.00  0.00    -0.175 NA
ATOM     30  N   UNL     1      12.249  -2.481   1.139  0.00  0.00    -0.270 N 
ATOM     31  C   UNL     1      11.001  -2.941   0.867  0.00  0.00    +0.057 A 
ATOM     32  C   UNL     1      10.487  -4.333   1.130  0.00  0.00    +0.067 C 
ATOM     33  C   UNL     1      13.339  -3.252   1.743  0.00  0.00    +0.172 C 
ATOM     34  C   UNL     1      10.776   0.555  -0.291  0.00  0.00    +0.069 C 
ENDBRANCH  25  27
ENDBRANCH  21  23
ENDBRANCH  20  21
ENDBRANCH   4  20
TORSDOF 6
