REMARK  Name = ZINC54445398
REMARK  2 active torsions:
REMARK  status: ('A' for Active; 'I' for Inactive)
REMARK    1  A    between atoms: C_3  and  C_6
REMARK    2  A    between atoms: C_8  and  C_11
REMARK                            x       y       z     vdW  Elec       q    Type
REMARK                         _______ _______ _______ _____ _____    ______ ____
ROOT
ATOM      1  C   UNL     1       3.572   0.620  -0.029  0.00  0.00    +0.237 A 
ATOM      2  N   UNL     1       4.332  -0.493  -0.048  0.00  0.00    -0.187 NA
ATOM      3  C   UNL     1       5.594  -0.171  -0.057  0.00  0.00    +0.249 A 
ATOM      4  O   UNL     1       5.693   1.165  -0.044  0.00  0.00    -0.336 OA
ATOM      5  N   UNL     1       4.364   1.667  -0.032  0.00  0.00    -0.053 NA
ENDROOT
BRANCH   3   6
ATOM      6  C   UNL     1       6.749  -1.138  -0.077  0.00  0.00    +0.175 C 
ATOM      7  C   UNL     1       7.399  -1.189   1.302  0.00  0.00    -0.011 A 
ATOM      8  C   UNL     1       6.684  -1.207   2.498  0.00  0.00    +0.013 A 
ATOM      9  C   UNL     1       7.342  -1.250   3.680  0.00  0.00    +0.046 A 
ATOM     10  S   UNL     1       9.049  -1.268   3.151  0.00  0.00    -0.101 S 
ATOM     11  C   UNL     1       8.757  -1.218   1.405  0.00  0.00    -0.004 A 
ATOM     12  C   UNL     1       9.737  -1.210   0.278  0.00  0.00    +0.058 C 
ATOM     13  C   UNL     1       8.965  -1.518  -1.016  0.00  0.00    +0.087 C 
ATOM     14  N   UNL     1       7.749  -0.691  -1.055  0.00  0.00    -0.302 NA
ATOM     15  H   UNL     1       7.358  -0.662  -1.984  0.00  0.00    +0.123 HD
ENDBRANCH   3   6
BRANCH   1  18
ATOM     16  C   UNL     1      -0.016   1.344   0.009  0.00  0.00    +0.042 A 
ATOM     17  C   UNL     1       1.324   1.775  -0.001  0.00  0.00    +0.053 A 
ATOM     18  C   UNL     1       2.096   0.655  -0.014  0.00  0.00    +0.175 A 
ATOM     19  O   UNL     1       1.279  -0.416  -0.012  0.00  0.00    -0.460 OA
ATOM     20  C   UNL     1       0.002  -0.004   0.002  0.00  0.00    +0.196 A 
ENDBRANCH   1  18
TORSDOF 2
