REMARK  Name = ZINC02542253
REMARK  7 active torsions:
REMARK  status: ('A' for Active; 'I' for Inactive)
REMARK    1  A    between atoms: C_1  and  C_2
REMARK    2  A    between atoms: C_2  and  C_3
REMARK    3  A    between atoms: C_2  and  C_4
REMARK    4  A    between atoms: C_4  and  C_5
REMARK    5  A    between atoms: C_22  and  C_24
REMARK    6  A    between atoms: C_27  and  O_30
REMARK    7  A    between atoms: O_30  and  C_31
REMARK                            x       y       z     vdW  Elec       q    Type
REMARK                         _______ _______ _______ _____ _____    ______ ____
ROOT
ATOM      1  C   UNL     1       2.138  -0.094  -1.202  0.00  0.00    +0.204 C 
ATOM      2  C   UNL     1       2.856  -0.554  -2.437  0.00  0.00    +0.023 C 
ATOM      3  C   UNL     1       4.167  -0.864  -2.398  0.00  0.00    +0.083 C 
ATOM      4  C   UNL     1       4.861  -0.763  -1.089  0.00  0.00    +0.042 A 
ATOM      5  C   UNL     1       6.246  -0.792  -1.001  0.00  0.00    +0.013 A 
ATOM      6  C   UNL     1       6.854  -0.677   0.235  0.00  0.00    +0.001 A 
ATOM      7  C   UNL     1       6.087  -0.532   1.377  0.00  0.00    +0.004 A 
ATOM      8  C   UNL     1       4.707  -0.508   1.298  0.00  0.00    +0.046 A 
ATOM      9  C   UNL     1       4.085  -0.632   0.068  0.00  0.00    +0.131 A 
ATOM     10  O   UNL     1       2.732  -0.659  -0.033  0.00  0.00    -0.484 OA
ATOM     11  N   UNL     1       4.836  -1.257  -3.511  0.00  0.00    -0.213 NA
ATOM     12  C   UNL     1       4.289  -1.383  -4.698  0.00  0.00    +0.237 C 
ATOM     13  N   UNL     1       4.801  -1.755  -5.892  0.00  0.00    -0.205 NA
ATOM     14  C   UNL     1       3.873  -1.736  -6.809  0.00  0.00    +0.203 C 
ATOM     15  N   UNL     1       2.693  -1.346  -6.253  0.00  0.00    -0.251 N 
ATOM     16  N   UNL     1       2.950  -1.115  -4.900  0.00  0.00    -0.208 N 
ATOM     17  C   UNL     1       2.134  -0.680  -3.760  0.00  0.00    +0.159 C 
ATOM     18  H   UNL     1       1.841  -1.248  -6.707  0.00  0.00    +0.171 HD
ENDROOT
BRANCH  17  19
ATOM     19  C   UNL     1       1.532   0.660  -4.097  0.00  0.00    -0.021 A 
ATOM     20  C   UNL     1       2.355   1.735  -4.375  0.00  0.00    +0.009 A 
ATOM     21  C   UNL     1       1.807   2.965  -4.684  0.00  0.00    +0.046 A 
ATOM     22  C   UNL     1       0.428   3.120  -4.715  0.00  0.00    +0.120 A 
ATOM     23  C   UNL     1      -0.396   2.039  -4.436  0.00  0.00    +0.046 A 
ATOM     24  C   UNL     1       0.158   0.810  -4.133  0.00  0.00    +0.009 A 
BRANCH  22  25
ATOM     25  O   UNL     1      -0.114   4.329  -5.018  0.00  0.00    -0.495 OA
ATOM     26  C   UNL     1      -1.540   4.415  -5.032  0.00  0.00    +0.277 C 
ENDBRANCH  22  25
ENDBRANCH  17  19
BRANCH   1  27
ATOM     27  C   UNL     1       0.672  -0.524  -1.281  0.00  0.00    +0.052 C 
BRANCH  27  29
ATOM     28  C   UNL     1      -0.111   1.561  -0.150  0.00  0.00    +0.007 C 
ATOM     29  C   UNL     1      -0.089   0.033  -0.077  0.00  0.00    -0.013 C 
ATOM     30  C   UNL     1      -1.523  -0.499  -0.089  0.00  0.00    +0.007 C 
ENDBRANCH  27  29
ENDBRANCH   1  27
TORSDOF 4
