REMARK  Name = ZINC40005264
REMARK  7 active torsions:
REMARK  status: ('A' for Active; 'I' for Inactive)
REMARK    1  A    between atoms: C_1  and  C_2
REMARK    2  A    between atoms: C_5  and  N_8
REMARK    3  A    between atoms: C_9  and  C_27
REMARK    4  A    between atoms: C_13  and  S_14
REMARK    5  A    between atoms: S_14  and  C_15
REMARK    6  A    between atoms: C_15  and  C_16
REMARK    7  A    between atoms: C_16  and  C_18
REMARK                            x       y       z     vdW  Elec       q    Type
REMARK                         _______ _______ _______ _____ _____    ______ ____
ROOT
ATOM      1  N   UNL     1       0.057  -4.168  -0.021  0.00  0.00    -0.259 N 
ATOM      2  C   UNL     1       0.172  -5.053   1.150  0.00  0.00    +0.179 C 
ATOM      3  N   UNL     1       0.139  -6.409   0.574  0.00  0.00    -0.246 N 
ATOM      4  N   UNL     1       0.015  -6.241  -0.811  0.00  0.00    -0.162 NA
ATOM      5  C   UNL     1      -0.035  -4.993  -1.133  0.00  0.00    +0.180 C 
ATOM      6  C   UNL     1       1.494  -4.809   1.881  0.00  0.00    +0.051 C 
ATOM      7  H   UNL     1       0.193  -7.248   1.056  0.00  0.00    +0.170 HD
ENDROOT
BRANCH   1  12
ATOM      8  C   UNL     1      -0.015   1.503   0.012  0.00  0.00    +0.044 C 
ATOM      9  C   UNL     1       0.004  -0.004   0.003  0.00  0.00    -0.050 A 
ATOM     10  C   UNL     1      -1.039  -0.711   0.573  0.00  0.00    +0.005 A 
ATOM     11  C   UNL     1      -1.025  -2.091   0.567  0.00  0.00    +0.024 A 
ATOM     12  C   UNL     1       0.039  -2.771  -0.013  0.00  0.00    +0.037 A 
ATOM     13  C   UNL     1       1.085  -2.058  -0.585  0.00  0.00    +0.024 A 
ATOM     14  C   UNL     1       1.062  -0.677  -0.580  0.00  0.00    +0.005 A 
ENDBRANCH   1  12
BRANCH   5  15
ATOM     15  S   UNL     1      -0.197  -4.406  -2.787  0.00  0.00    -0.081 S 
BRANCH  15  16
ATOM     16  C   UNL     1      -0.269  -5.919  -3.784  0.00  0.00    +0.156 C 
BRANCH  16  17
ATOM     17  C   UNL     1      -0.409  -5.555  -5.240  0.00  0.00    +0.172 C 
ATOM     18  O   UNL     1      -0.455  -4.388  -5.572  0.00  0.00    -0.291 OA
BRANCH  17  19
ATOM     19  C   UNL     1      -0.487  -6.570  -6.217  0.00  0.00    +0.024 C 
ATOM     20  C   UNL     1      -0.610  -6.407  -7.585  0.00  0.00    +0.006 A 
ATOM     21  C   UNL     1      -0.696  -5.264  -8.414  0.00  0.00    +0.010 A 
ATOM     22  C   UNL     1      -0.814  -5.401  -9.753  0.00  0.00    +0.001 A 
ATOM     23  C   UNL     1      -0.858  -6.655 -10.382  0.00  0.00    +0.002 A 
ATOM     24  C   UNL     1      -0.784  -7.808  -9.682  0.00  0.00    +0.026 A 
ATOM     25  C   UNL     1      -0.653  -7.749  -8.217  0.00  0.00    +0.043 A 
ATOM     26  N   UNL     1      -0.563  -8.682  -7.313  0.00  0.00    -0.380 N 
ATOM     27  C   UNL     1      -0.445  -8.065  -5.988  0.00  0.00    +0.152 C 
ATOM     28  H   UNL     1      -0.570  -9.636  -7.489  0.00  0.00    +0.160 HD
ENDBRANCH  17  19
ENDBRANCH  16  17
ENDBRANCH  15  16
ENDBRANCH   5  15
TORSDOF 5
