REMARK  Name = ZINC21718782
REMARK  4 active torsions:
REMARK  status: ('A' for Active; 'I' for Inactive)
REMARK    1  A    between atoms: C_1  and  C_2
REMARK    2  A    between atoms: C_4  and  C_7
REMARK    3  A    between atoms: C_13  and  C_15
REMARK    4  A    between atoms: N_19  and  C_20
REMARK                            x       y       z     vdW  Elec       q    Type
REMARK                         _______ _______ _______ _____ _____    ______ ____
ROOT
ATOM      1  C   UNL     1      -0.004   1.128   0.015  0.00  0.00    +0.129 C 
ATOM      2  C   UNL     1      -0.733   1.667   1.264  0.00  0.00    +0.030 C 
ATOM      3  C   UNL     1      -2.163   1.956   0.735  0.00  0.00    +0.021 C 
ATOM      4  C   UNL     1      -1.868   2.444  -0.706  0.00  0.00    +0.109 C 
ATOM      5  N   UNL     1      -0.736   1.613  -1.165  0.00  0.00    -0.288 N 
ATOM      6  C   UNL     1      -0.425   1.344  -2.448  0.00  0.00    +0.266 C 
ATOM      7  O   UNL     1       0.584   0.715  -2.710  0.00  0.00    -0.268 OA
ENDROOT
BRANCH   6   8
ATOM      8  C   UNL     1      -1.304   1.809  -3.531  0.00  0.00    +0.137 A 
ATOM      9  C   UNL     1      -1.135   2.943  -4.309  0.00  0.00    +0.068 A 
ATOM     10  C   UNL     1      -2.219   2.949  -5.192  0.00  0.00    +0.150 A 
ATOM     11  N   UNL     1      -2.957   1.901  -4.930  0.00  0.00    -0.178 NA
ATOM     12  N   UNL     1      -2.454   1.214  -3.968  0.00  0.00    -0.261 N 
ATOM     13  C   UNL     1      -3.025  -0.020  -3.423  0.00  0.00    +0.173 C 
ATOM     14 BR   UNL     1       0.264   4.210  -4.203  0.00  0.00    -0.046 Br
ENDBRANCH   6   8
BRANCH   1  18
ATOM     15  C   UNL     1       5.001   1.746   0.701  0.00  0.00    +0.089 C 
ATOM     16  C   UNL     1       3.558   1.889   0.291  0.00  0.00    +0.135 A 
ATOM     17  C   UNL     1       2.536   1.062   0.618  0.00  0.00    +0.072 A 
ATOM     18  C   UNL     1       1.412   1.642  -0.014  0.00  0.00    +0.104 A 
ATOM     19  N   UNL     1       1.842   2.710  -0.621  0.00  0.00    -0.081 NA
ATOM     20  O   UNL     1       3.031   2.864  -0.463  0.00  0.00    -0.360 OA
ENDBRANCH   1  18
TORSDOF 2
