REMARK  Name = ZINC01837501
REMARK  5 active torsions:
REMARK  status: ('A' for Active; 'I' for Inactive)
REMARK    1  A    between atoms: C_1  and  C_2
REMARK    2  A    between atoms: C_13  and  C_26
REMARK    3  A    between atoms: C_14  and  C_16
REMARK    4  A    between atoms: C_16  and  C_19
REMARK    5  A    between atoms: N_17  and  O_18
REMARK                            x       y       z     vdW  Elec       q    Type
REMARK                         _______ _______ _______ _____ _____    ______ ____
ROOT
ATOM      1  C   UNL     1      -0.008   1.552   0.083  0.00  0.00    +0.045 C 
ATOM      2  C   UNL     1       0.032   0.046   0.061  0.00  0.00    -0.033 A 
ATOM      3  C   UNL     1       0.073  -0.633  -1.115  0.00  0.00    +0.096 A 
ATOM      4  C   UNL     1       0.110  -2.042  -1.107  0.00  0.00    +0.337 A 
ATOM      5  O   UNL     1       0.146  -2.642  -2.167  0.00  0.00    -0.245 OA
ATOM      6  O   UNL     1       0.108  -2.740   0.039  0.00  0.00    -0.421 OA
ATOM      7  C   UNL     1       0.069  -2.126   1.239  0.00  0.00    +0.150 A 
ATOM      8  C   UNL     1       0.036  -0.724   1.307  0.00  0.00    +0.021 A 
ATOM      9  C   UNL     1       0.000  -0.080   2.553  0.00  0.00    +0.015 A 
ATOM     10  C   UNL     1       0.004  -0.805   3.707  0.00  0.00    +0.048 A 
ATOM     11  C   UNL     1       0.042  -2.199   3.669  0.00  0.00    +0.140 A 
ATOM     12  C   UNL     1       0.066  -2.863   2.430  0.00  0.00    +0.067 A 
ATOM     13  C   UNL     1       0.099  -4.291   2.745  0.00  0.00    +0.008 A 
ATOM     14  C   UNL     1       0.076  -4.378   4.099  0.00  0.00    +0.161 A 
ATOM     15  O   UNL     1       0.054  -3.141   4.634  0.00  0.00    -0.453 OA
ATOM     16  C   UNL     1       0.148  -5.434   1.764  0.00  0.00    +0.048 C 
ENDROOT
BRANCH  14  17
ATOM     17  C   UNL     1       0.096  -5.635   4.869  0.00  0.00    +0.152 C 
ATOM     18  N   UNL     1      -1.020  -6.263   5.121  0.00  0.00    -0.083 NA
BRANCH  17  19
ATOM     19  C   UNL     1       1.383  -6.185   5.356  0.00  0.00    +0.007 A 
ATOM     20  C   UNL     1       2.585  -5.581   4.992  0.00  0.00    +0.011 A 
ATOM     21  C   UNL     1       3.780  -6.097   5.448  0.00  0.00    +0.020 A 
ATOM     22  C   UNL     1       3.787  -7.213   6.268  0.00  0.00    +0.041 A 
ATOM     23  C   UNL     1       2.596  -7.817   6.633  0.00  0.00    +0.020 A 
ATOM     24  C   UNL     1       1.395  -7.305   6.187  0.00  0.00    +0.011 A 
ATOM     25 CL   UNL     1       5.294  -7.858   6.838  0.00  0.00    -0.084 Cl
ENDBRANCH  17  19
BRANCH  18  26
ATOM     26  O   UNL     1      -2.236  -5.796   4.567  0.00  0.00    -0.409 OA
ATOM     27  H   UNL     1      -3.018  -6.279   4.870  0.00  0.00    +0.328 HD
ENDBRANCH  18  26
ENDBRANCH  14  17
TORSDOF 3
