REMARK  Name = ZINC62126570
REMARK  8 active torsions:
REMARK  status: ('A' for Active; 'I' for Inactive)
REMARK    1  A    between atoms: C_1  and  C_2
REMARK    2  A    between atoms: C_6  and  C_9
REMARK    3  A    between atoms: C_6  and  C_10
REMARK    4  A    between atoms: C_11  and  C_13
REMARK    5  A    between atoms: C_13  and  C_15
REMARK    6  A    between atoms: C_13  and  C_23
REMARK    7  A    between atoms: C_18  and  O_21
REMARK    8  A    between atoms: O_21  and  C_22
REMARK                            x       y       z     vdW  Elec       q    Type
REMARK                         _______ _______ _______ _____ _____    ______ ____
ROOT
ATOM      1  C   UNL     1      -2.640  -1.685  -1.486  0.00  0.00    +0.108 C 
ENDROOT
BRANCH   1  11
ATOM      2  C   UNL     1      -5.748  -1.785   2.534  0.00  0.00    +0.039 C 
ATOM      3  C   UNL     1      -4.244  -1.884   2.271  0.00  0.00    +0.133 C 
ATOM      4  C   UNL     1      -4.006  -2.506   0.890  0.00  0.00    +0.139 C 
ATOM      5  N   UNL     1      -2.564  -2.763   0.740  0.00  0.00    -0.291 N 
ATOM      6  C   UNL     1      -1.876  -3.493   1.815  0.00  0.00    +0.055 C 
ATOM      7  C   UNL     1      -2.218  -2.824   3.151  0.00  0.00    +0.185 C 
ATOM      8  O   UNL     1      -3.638  -2.708   3.270  0.00  0.00    -0.373 OA
ATOM      9  C   UNL     1      -2.347  -4.949   1.833  0.00  0.00    +0.034 C 
ATOM     10  C   UNL     1      -0.364  -3.443   1.586  0.00  0.00    +0.034 C 
ATOM     11  C   UNL     1      -1.895  -2.341  -0.351  0.00  0.00    +0.224 C 
ATOM     12  O   UNL     1      -0.694  -2.489  -0.421  0.00  0.00    -0.275 OA
ENDBRANCH   1  11
BRANCH   1  13
ATOM     13  C   UNL     1      -3.250  -2.745  -2.366  0.00  0.00    -0.035 A 
ATOM     14  C   UNL     1      -2.439  -3.677  -2.987  0.00  0.00    +0.008 A 
ATOM     15  C   UNL     1      -2.996  -4.649  -3.795  0.00  0.00    +0.046 A 
ATOM     16  C   UNL     1      -4.370  -4.691  -3.982  0.00  0.00    +0.120 A 
ATOM     17  C   UNL     1      -5.181  -3.755  -3.358  0.00  0.00    +0.046 A 
ATOM     18  C   UNL     1      -4.620  -2.787  -2.547  0.00  0.00    +0.008 A 
BRANCH  16  19
ATOM     19  O   UNL     1      -4.920  -5.646  -4.777  0.00  0.00    -0.495 OA
ATOM     20  C   UNL     1      -6.341  -5.628  -4.925  0.00  0.00    +0.277 C 
ENDBRANCH  16  19
ENDBRANCH   1  13
BRANCH   1  21
ATOM     21  C   UNL     1      -1.670  -0.835  -2.308  0.00  0.00    +0.005 C 
ATOM     22  C   UNL     1      -1.130   0.330  -1.452  0.00  0.00    +0.004 C 
ATOM     23  C   UNL     1      -1.031   1.516  -2.443  0.00  0.00    +0.000 C 
ATOM     24  C   UNL     1      -2.289   1.330  -3.326  0.00  0.00    +0.000 C 
ATOM     25  C   UNL     1      -2.407  -0.198  -3.500  0.00  0.00    +0.004 C 
ENDBRANCH   1  21
TORSDOF 4
