REMARK  Name = ZINC65136609
REMARK  7 active torsions:
REMARK  status: ('A' for Active; 'I' for Inactive)
REMARK    1  A    between atoms: C_1  and  C_2
REMARK    2  A    between atoms: C_2  and  C_3
REMARK    3  A    between atoms: C_2  and  C_4
REMARK    4  A    between atoms: C_4  and  C_5
REMARK    5  A    between atoms: C_5  and  N_6
REMARK    6  A    between atoms: N_9  and  N_10
REMARK    7  A    between atoms: C_11  and  C_13
REMARK                            x       y       z     vdW  Elec       q    Type
REMARK                         _______ _______ _______ _____ _____    ______ ____
ROOT
ATOM      1  N   UNL     1       4.108  -1.442  -4.667  0.00  0.00    -0.229 N 
ATOM      2  C   UNL     1       4.739  -1.877  -5.776  0.00  0.00    +0.260 C 
ATOM      3  O   UNL     1       5.921  -1.643  -5.934  0.00  0.00    -0.269 OA
ATOM      4  H   UNL     1       3.164  -1.629  -4.541  0.00  0.00    +0.173 HD
ENDROOT
BRANCH   2   5
ATOM      5  C   UNL     1       3.994  -2.637  -6.799  0.00  0.00    +0.043 A 
ATOM      6  C   UNL     1       4.649  -3.093  -7.947  0.00  0.00    +0.062 A 
ATOM      7  C   UNL     1       3.944  -3.803  -8.898  0.00  0.00    +0.164 A 
ATOM      8  C   UNL     1       2.590  -4.063  -8.716  0.00  0.00    +0.180 A 
ATOM      9  C   UNL     1       1.937  -3.611  -7.578  0.00  0.00    +0.087 A 
ATOM     10  C   UNL     1       2.635  -2.906  -6.619  0.00  0.00    +0.037 A 
ATOM     11 CL   UNL     1       0.247  -3.939  -7.357  0.00  0.00    -0.080 Cl
ATOM     12  O   UNL     1       1.907  -4.766  -9.665  0.00  0.00    -0.487 OA
ATOM     13  C   UNL     1       1.721  -4.107 -10.918  0.00  0.00    +0.232 C 
ATOM     14  C   UNL     1       2.934  -4.298 -11.815  0.00  0.00    +0.082 C 
ATOM     15  C   UNL     1       4.181  -3.635 -11.249  0.00  0.00    +0.232 C 
ATOM     16  O   UNL     1       4.572  -4.255 -10.023  0.00  0.00    -0.488 OA
ENDBRANCH   2   5
BRANCH   1  20
ATOM     17  N   UNL     1       2.873  -0.545  -2.413  0.00  0.00    -0.298 N 
ATOM     18  C   UNL     1       4.184  -0.286  -2.587  0.00  0.00    +0.316 C 
ATOM     19  O   UNL     1       4.798   0.340  -1.745  0.00  0.00    -0.251 OA
ATOM     20  N   UNL     1       4.815  -0.721  -3.696  0.00  0.00    -0.218 N 
ATOM     21  H   UNL     1       2.384  -1.045  -3.085  0.00  0.00    +0.150 HD
ATOM     22  H   UNL     1       5.758  -0.534  -3.822  0.00  0.00    +0.174 HD
BRANCH  17  23
ATOM     23  C   UNL     1       2.187  -0.073  -1.207  0.00  0.00    +0.106 C 
BRANCH  23  24
ATOM     24  C   UNL     1       0.718  -0.497  -1.257  0.00  0.00    +0.022 C 
BRANCH  24  26
ATOM     25  C   UNL     1      -0.019   1.526   0.010  0.00  0.00    +0.007 C 
ATOM     26  C   UNL     1       0.002  -0.004   0.002  0.00  0.00    -0.016 C 
ATOM     27  C   UNL     1      -1.433  -0.534   0.013  0.00  0.00    +0.007 C 
ENDBRANCH  24  26
ENDBRANCH  23  24
ENDBRANCH  17  23
ENDBRANCH   1  20
TORSDOF 5
