REMARK  Name = ZINC20578055
REMARK  5 active torsions:
REMARK  status: ('A' for Active; 'I' for Inactive)
REMARK    1  A    between atoms: C_1  and  C_2
REMARK    2  A    between atoms: C_9  and  S_14
REMARK    3  A    between atoms: S_14  and  N_17
REMARK    4  A    between atoms: C_20  and  C_23
REMARK    5  A    between atoms: N_25  and  C_26
REMARK                            x       y       z     vdW  Elec       q    Type
REMARK                         _______ _______ _______ _____ _____    ______ ____
ROOT
ATOM      1  S   UNL     1       4.255   5.797  -1.031  0.00  0.00    +0.061 S 
ATOM      2  O   UNL     1       4.821   4.823  -1.898  0.00  0.00    -0.153 OA
ATOM      3  O   UNL     1       3.989   7.128  -1.451  0.00  0.00    -0.153 OA
ENDROOT
BRANCH   1  11
ATOM      4  C   UNL     1      -1.760   2.245  -1.414  0.00  0.00    +0.029 C 
ATOM      5  C   UNL     1      -1.350   1.901   0.019  0.00  0.00    +0.134 C 
ATOM      6  C   UNL     1      -0.014   1.209   0.009  0.00  0.00    +0.230 C 
ATOM      7  O   UNL     1       0.002  -0.004   0.002  0.00  0.00    -0.274 OA
ATOM      8  N   UNL     1       1.149   1.853   0.001  0.00  0.00    -0.284 N 
ATOM      9  C   UNL     1       1.328   3.234  -0.003  0.00  0.00    +0.049 A 
ATOM     10  C   UNL     1       2.531   3.767  -0.452  0.00  0.00    +0.053 A 
ATOM     11  C   UNL     1       2.725   5.135  -0.460  0.00  0.00    +0.107 A 
ATOM     12  C   UNL     1       1.729   5.987  -0.021  0.00  0.00    +0.030 A 
ATOM     13  C   UNL     1       0.527   5.471   0.427  0.00  0.00    +0.018 A 
ATOM     14  C   UNL     1       0.326   4.101   0.436  0.00  0.00    +0.030 A 
ATOM     15  S   UNL     1      -1.206   3.429   1.001  0.00  0.00    -0.111 S 
ATOM     16  H   UNL     1       2.092   1.286  -0.003  0.00  0.00    +0.155 HD
ENDBRANCH   1  11
BRANCH   1  17
ATOM     17  N   UNL     1       5.261   5.906   0.279  0.00  0.00    -0.177 NA
ATOM     18  C   UNL     1       5.299   7.128   1.095  0.00  0.00    +0.110 C 
ATOM     19  C   UNL     1       6.743   7.614   1.198  0.00  0.00    +0.030 C 
ATOM     20  C   UNL     1       7.625   6.479   1.724  0.00  0.00    +0.077 C 
ATOM     21  C   UNL     1       7.578   5.300   0.750  0.00  0.00    +0.030 C 
ATOM     22  C   UNL     1       6.138   4.786   0.645  0.00  0.00    +0.110 C 
BRANCH  20  23
ATOM     23  C   UNL     1       9.045   6.965   1.855  0.00  0.00    +0.216 C 
ATOM     24  O   UNL     1       9.932   6.423   1.231  0.00  0.00    -0.276 OA
ATOM     25  N   UNL     1       9.329   8.004   2.666  0.00  0.00    -0.312 N 
ATOM     26  H   UNL     1       8.525   8.495   3.233  0.00  0.00    +0.149 HD
BRANCH  25  27
ATOM     27  C   UNL     1      10.710   8.477   2.794  0.00  0.00    +0.073 C 
ATOM     28  C   UNL     1      11.443   7.679   3.891  0.00  0.00    +0.022 C 
ATOM     29  C   UNL     1      12.352   8.728   4.580  0.00  0.00    +0.002 C 
ATOM     30  C   UNL     1      11.463   9.997   4.590  0.00  0.00    +0.002 C 
ATOM     31  C   UNL     1      10.723   9.950   3.237  0.00  0.00    +0.022 C 
ENDBRANCH  25  27
ENDBRANCH  20  23
ENDBRANCH   1  17
TORSDOF 4
