REMARK  Name = ZINC62495354
REMARK  4 active torsions:
REMARK  status: ('A' for Active; 'I' for Inactive)
REMARK    1  A    between atoms: C_1  and  C_2
REMARK    2  A    between atoms: C_7  and  C_8
REMARK    3  A    between atoms: C_8  and  C_9
REMARK    4  A    between atoms: C_17  and  O_21
REMARK                            x       y       z     vdW  Elec       q    Type
REMARK                         _______ _______ _______ _____ _____    ______ ____
ROOT
ATOM      1  C   UNL     1      -1.413   0.388   2.898  0.00  0.00    +0.263 C 
ATOM      2  C   UNL     1      -1.403   1.242   4.141  0.00  0.00    +0.258 C 
ATOM      3  O   UNL     1      -1.410   2.451   4.049  0.00  0.00    -0.271 OA
ATOM      4  N   UNL     1      -1.387   0.655   5.356  0.00  0.00    -0.280 N 
ATOM      5  C   UNL     1      -1.508  -0.741   5.444  0.00  0.00    +0.076 A 
ATOM      6  C   UNL     1      -1.268  -1.394   6.643  0.00  0.00    +0.030 A 
ATOM      7  C   UNL     1      -1.378  -2.770   6.712  0.00  0.00    +0.047 A 
ATOM      8  C   UNL     1      -1.726  -3.499   5.584  0.00  0.00    +0.120 A 
ATOM      9  C   UNL     1      -1.971  -2.848   4.383  0.00  0.00    +0.093 A 
ATOM     10  C   UNL     1      -1.869  -1.470   4.313  0.00  0.00    +0.146 A 
ATOM     11  O   UNL     1      -2.137  -0.818   3.150  0.00  0.00    -0.477 OA
ATOM     12  H   UNL     1      -1.292   1.191   6.159  0.00  0.00    +0.155 HD
ENDROOT
BRANCH   8  13
ATOM     13  O   UNL     1      -1.827  -4.853   5.655  0.00  0.00    -0.507 OA
ATOM     14  H   UNL     1      -2.709  -5.170   5.890  0.00  0.00    +0.292 HD
ENDBRANCH   8  13
BRANCH   1  15
ATOM     15  C   UNL     1       0.025   0.045   2.504  0.00  0.00    +0.089 C 
BRANCH  15  22
ATOM     16  C   UNL     1      -0.018   1.503   0.010  0.00  0.00    +0.044 C 
ATOM     17  C   UNL     1       0.002  -0.004   0.002  0.00  0.00    -0.046 A 
ATOM     18  C   UNL     1       0.006  -0.689  -1.199  0.00  0.00    +0.023 A 
ATOM     19  C   UNL     1       0.025  -2.072  -1.206  0.00  0.00    +0.041 A 
ATOM     20  C   UNL     1       0.041  -2.769  -0.011  0.00  0.00    +0.020 A 
ATOM     21  C   UNL     1       0.037  -2.084   1.188  0.00  0.00    +0.005 A 
ATOM     22  C   UNL     1       0.023  -0.701   1.195  0.00  0.00    -0.040 A 
ATOM     23 CL   UNL     1       0.029  -2.932  -2.714  0.00  0.00    -0.084 Cl
ENDBRANCH  15  22
ENDBRANCH   1  15
TORSDOF 3
