REMARK  Name = ZINC51710161
REMARK  8 active torsions:
REMARK  status: ('A' for Active; 'I' for Inactive)
REMARK    1  A    between atoms: C_1  and  C_2
REMARK    2  A    between atoms: C_2  and  C_4
REMARK    3  A    between atoms: C_2  and  N_14
REMARK    4  A    between atoms: C_7  and  C_10
REMARK    5  A    between atoms: C_10  and  C_11
REMARK    6  A    between atoms: C_10  and  C_12
REMARK    7  A    between atoms: C_10  and  C_13
REMARK    8  A    between atoms: C_21  and  C_24
REMARK                            x       y       z     vdW  Elec       q    Type
REMARK                         _______ _______ _______ _____ _____    ______ ____
ROOT
ATOM      1  N   UNL     1      -1.371  -0.515   0.012  0.00  0.00    -0.293 N 
ATOM      2  C   UNL     1      -2.051  -0.643  -1.145  0.00  0.00    +0.303 C 
ATOM      3  O   UNL     1      -1.559  -0.253  -2.186  0.00  0.00    -0.253 OA
ATOM      4  N   UNL     1      -3.277  -1.203  -1.147  0.00  0.00    -0.280 N 
ATOM      5  C   UNL     1      -3.943  -1.573   0.112  0.00  0.00    +0.137 C 
ATOM      6  C   UNL     1      -5.357  -0.982   0.102  0.00  0.00    +0.180 C 
ATOM      7  O   UNL     1      -6.020  -1.368  -1.105  0.00  0.00    -0.364 OA
ATOM      8  C   UNL     1      -5.401  -0.876  -2.296  0.00  0.00    +0.221 C 
ATOM      9  C   UNL     1      -3.991  -1.457  -2.408  0.00  0.00    +0.150 C 
ATOM     10  H   UNL     1      -1.791  -0.760   0.851  0.00  0.00    +0.151 HD
ENDROOT
BRANCH   8  11
ATOM     11  C   UNL     1      -6.216  -1.290  -3.494  0.00  0.00    +0.241 C 
ATOM     12  O   UNL     1      -7.176  -2.017  -3.353  0.00  0.00    -0.273 OA
ATOM     13  N   UNL     1      -5.877  -0.852  -4.723  0.00  0.00    -0.327 N 
ATOM     14  H   UNL     1      -5.109  -0.271  -4.836  0.00  0.00    +0.145 HD
ATOM     15  H   UNL     1      -6.401  -1.118  -5.494  0.00  0.00    +0.145 HD
ENDBRANCH   8  11
BRANCH   1  17
ATOM     16  C   UNL     1      -0.018   1.522   0.015  0.00  0.00    +0.033 C 
ATOM     17  C   UNL     1       0.004  -0.007   0.001  0.00  0.00    +0.102 C 
BRANCH  17  18
ATOM     18  C   UNL     1       0.735  -0.511   1.219  0.00  0.00    -0.027 A 
ATOM     19  C   UNL     1       0.087  -0.571   2.438  0.00  0.00    +0.006 A 
ATOM     20  C   UNL     1       0.757  -1.033   3.555  0.00  0.00    +0.004 A 
ATOM     21  C   UNL     1       2.076  -1.435   3.453  0.00  0.00    -0.042 A 
ATOM     22  C   UNL     1       2.724  -1.376   2.233  0.00  0.00    +0.004 A 
ATOM     23  C   UNL     1       2.052  -0.918   1.115  0.00  0.00    +0.006 A 
BRANCH  21  24
ATOM     24  C   UNL     1       2.807  -1.938   4.671  0.00  0.00    -0.013 C 
ATOM     25  C   UNL     1       2.088  -3.168   5.226  0.00  0.00    +0.015 C 
ATOM     26  C   UNL     1       4.239  -2.314   4.286  0.00  0.00    +0.015 C 
ATOM     27  C   UNL     1       2.837  -0.840   5.737  0.00  0.00    +0.015 C 
ENDBRANCH  21  24
ENDBRANCH  17  18
ENDBRANCH   1  17
TORSDOF 4
