REMARK  Name = ZINC17903513
REMARK  6 active torsions:
REMARK  status: ('A' for Active; 'I' for Inactive)
REMARK    1  A    between atoms: C_1  and  C_2
REMARK    2  A    between atoms: C_2  and  C_4
REMARK    3  A    between atoms: C_2  and  O_17
REMARK    4  A    between atoms: N_6  and  C_7
REMARK    5  A    between atoms: C_12  and  C_13
REMARK    6  A    between atoms: O_17  and  C_18
REMARK                            x       y       z     vdW  Elec       q    Type
REMARK                         _______ _______ _______ _____ _____    ______ ____
ROOT
ATOM      1  C   UNL     1      -1.188  -0.963   0.569  0.00  0.00    +0.258 C 
ATOM      2  O   UNL     1      -1.545  -1.726  -0.304  0.00  0.00    -0.271 OA
ATOM      3  N   UNL     1      -2.004  -0.702   1.609  0.00  0.00    -0.282 N 
ATOM      4  H   UNL     1      -1.756  -0.029   2.262  0.00  0.00    +0.155 HD
ENDROOT
BRANCH   3   5
ATOM      5  C   UNL     1      -3.200  -1.399   1.748  0.00  0.00    +0.049 A 
ATOM      6  C   UNL     1      -3.987  -1.661   0.635  0.00  0.00    +0.044 A 
ATOM      7  C   UNL     1      -5.175  -2.353   0.775  0.00  0.00    +0.043 A 
ATOM      8  C   UNL     1      -5.591  -2.790   2.025  0.00  0.00    +0.021 A 
ATOM      9  C   UNL     1      -4.824  -2.539   3.139  0.00  0.00    +0.018 A 
ATOM     10  C   UNL     1      -3.615  -1.845   3.014  0.00  0.00    +0.084 A 
ATOM     11 CL   UNL     1      -6.154  -2.677  -0.622  0.00  0.00    -0.083 Cl
BRANCH  10  12
ATOM     12  C   UNL     1      -2.788  -1.579   4.200  0.00  0.00    +0.388 C 
ATOM     13  O   UNL     1      -3.193  -1.891   5.311  0.00  0.00    -0.241 OA
ATOM     14  O   UNL     1      -1.694  -1.045   4.075  0.00  0.00    -0.241 OA
ENDBRANCH  10  12
ENDBRANCH   3   5
BRANCH   1  16
ATOM     15  C   UNL     1      -0.007   1.204   0.328  0.00  0.00    +0.062 C 
ATOM     16  C   UNL     1       0.166  -0.307   0.490  0.00  0.00    +0.256 C 
BRANCH  16  17
ATOM     17  O   UNL     1       0.882  -0.827  -0.632  0.00  0.00    -0.480 OA
BRANCH  17  18
ATOM     18  C   UNL     1       2.239  -0.831  -0.550  0.00  0.00    +0.123 A 
ATOM     19  C   UNL     1       2.871  -0.245   0.537  0.00  0.00    +0.046 A 
ATOM     20  C   UNL     1       4.250  -0.250   0.619  0.00  0.00    +0.005 A 
ATOM     21  C   UNL     1       5.001  -0.840  -0.381  0.00  0.00    +0.020 A 
ATOM     22  C   UNL     1       4.374  -1.425  -1.467  0.00  0.00    +0.044 A 
ATOM     23  C   UNL     1       2.993  -1.427  -1.550  0.00  0.00    +0.065 A 
ATOM     24 CL   UNL     1       5.319  -2.164  -2.721  0.00  0.00    -0.083 Cl
ENDBRANCH  17  18
ENDBRANCH  16  17
ENDBRANCH   1  16
TORSDOF 5
