REMARK  Name = ZINC03997873
REMARK  5 active torsions:
REMARK  status: ('A' for Active; 'I' for Inactive)
REMARK    1  A    between atoms: C_1  and  C_2
REMARK    2  A    between atoms: C_5  and  C_8
REMARK    3  A    between atoms: C_9  and  C_10
REMARK    4  A    between atoms: C_9  and  C_12
REMARK    5  A    between atoms: C_14  and  C_17
REMARK                            x       y       z     vdW  Elec       q    Type
REMARK                         _______ _______ _______ _____ _____    ______ ____
ROOT
ATOM      1  C   UNL     1      -3.641  -0.964   0.068  0.00  0.00    +0.119 A 
ATOM      2  N   UNL     1      -2.495  -0.302   0.137  0.00  0.00    -0.238 NA
ATOM      3  C   UNL     1      -2.463   1.017   0.097  0.00  0.00    +0.086 A 
ATOM      4  C   UNL     1      -3.638   1.715  -0.030  0.00  0.00    +0.075 A 
ATOM      5  S   UNL     1      -4.817   0.373  -0.083  0.00  0.00    -0.074 S 
ENDROOT
BRANCH   3   6
ATOM      6  C   UNL     1      -1.170   1.736   0.182  0.00  0.00    +0.086 A 
ATOM      7  C   UNL     1       0.004   1.043   0.309  0.00  0.00    +0.028 A 
ATOM      8  C   UNL     1       1.252   1.804   0.382  0.00  0.00    +0.018 A 
ATOM      9  C   UNL     1       2.481   1.143   0.507  0.00  0.00    +0.011 A 
ATOM     10  C   UNL     1       3.638   1.867   0.574  0.00  0.00    +0.001 A 
ATOM     11  C   UNL     1       3.604   3.253   0.520  0.00  0.00    +0.004 A 
ATOM     12  C   UNL     1       2.405   3.923   0.398  0.00  0.00    +0.047 A 
ATOM     13  C   UNL     1       1.214   3.208   0.327  0.00  0.00    +0.139 A 
ATOM     14  O   UNL     1       0.038   3.859   0.208  0.00  0.00    -0.422 OA
ATOM     15  C   UNL     1      -1.129   3.201   0.138  0.00  0.00    +0.347 A 
ATOM     16  O   UNL     1      -2.167   3.828   0.030  0.00  0.00    -0.244 OA
ENDBRANCH   3   6
BRANCH   1  18
ATOM     17  C   UNL     1      -5.152  -2.902   0.008  0.00  0.00    +0.029 C 
ATOM     18  C   UNL     1      -3.881  -2.419   0.100  0.00  0.00    +0.084 C 
BRANCH  17  23
ATOM     19  C   UNL     1      -6.049  -8.559  -0.455  0.00  0.00    +0.044 C 
ATOM     20  C   UNL     1      -5.813  -7.075  -0.333  0.00  0.00    -0.050 A 
ATOM     21  C   UNL     1      -6.762  -6.276   0.282  0.00  0.00    +0.004 A 
ATOM     22  C   UNL     1      -6.555  -4.918   0.397  0.00  0.00    +0.008 A 
ATOM     23  C   UNL     1      -5.381  -4.348  -0.110  0.00  0.00    -0.024 A 
ATOM     24  C   UNL     1      -4.429  -5.162  -0.735  0.00  0.00    +0.008 A 
ATOM     25  C   UNL     1      -4.650  -6.519  -0.837  0.00  0.00    +0.004 A 
ENDBRANCH  17  23
BRANCH  18  26
ATOM     26  C   UNL     1      -2.778  -3.324   0.228  0.00  0.00    +0.102 C 
ATOM     27  N   UNL     1      -1.903  -4.041   0.330  0.00  0.00    -0.191 NA
ENDBRANCH  18  26
ENDBRANCH   1  18
TORSDOF 4
