REMARK  Name = ZINC09635988
REMARK  6 active torsions:
REMARK  status: ('A' for Active; 'I' for Inactive)
REMARK    1  A    between atoms: C_1  and  C_2
REMARK    2  A    between atoms: C_5  and  N_8
REMARK    3  A    between atoms: C_16  and  S_19
REMARK    4  A    between atoms: S_19  and  C_20
REMARK    5  A    between atoms: C_20  and  C_21
REMARK    6  A    between atoms: C_26  and  C_27
REMARK                            x       y       z     vdW  Elec       q    Type
REMARK                         _______ _______ _______ _____ _____    ______ ____
ROOT
ATOM      1  N   UNL     1       0.059  -4.172  -0.021  0.00  0.00    -0.216 N 
ATOM      2  C   UNL     1       0.699  -4.962   0.874  0.00  0.00    +0.149 A 
ATOM      3  C   UNL     1       0.456  -6.282   0.496  0.00  0.00    +0.103 A 
ATOM      4  C   UNL     1      -0.353  -6.246  -0.656  0.00  0.00    +0.150 A 
ATOM      5  N   UNL     1      -0.587  -4.996  -0.952  0.00  0.00    -0.172 NA
ATOM      6  C   UNL     1       1.043  -7.356   1.307  0.00  0.00    +0.285 A 
ATOM      7  O   UNL     1       0.860  -8.528   1.018  0.00  0.00    -0.265 OA
ATOM      8  N   UNL     1       1.785  -7.021   2.373  0.00  0.00    -0.185 NA
ATOM      9  C   UNL     1       1.992  -5.762   2.697  0.00  0.00    +0.172 A 
ATOM     10  N   UNL     1       1.474  -4.726   1.983  0.00  0.00    -0.319 N 
ATOM     11  H   UNL     1       1.653  -3.814   2.260  0.00  0.00    +0.169 HD
ENDROOT
BRANCH   1  16
ATOM     12  C   UNL     1      -0.018   1.503   0.010  0.00  0.00    +0.044 C 
ATOM     13  C   UNL     1       0.002  -0.004   0.002  0.00  0.00    -0.050 A 
ATOM     14  C   UNL     1       0.006  -0.688  -1.200  0.00  0.00    +0.005 A 
ATOM     15  C   UNL     1       0.025  -2.068  -1.211  0.00  0.00    +0.028 A 
ATOM     16  C   UNL     1       0.040  -2.771  -0.013  0.00  0.00    +0.068 A 
ATOM     17  C   UNL     1       0.037  -2.082   1.192  0.00  0.00    +0.028 A 
ATOM     18  C   UNL     1       0.023  -0.700   1.196  0.00  0.00    +0.005 A 
ENDBRANCH   1  16
BRANCH   9  19
ATOM     19  S   UNL     1       2.978  -5.403   4.112  0.00  0.00    -0.083 S 
BRANCH  19  20
ATOM     20  C   UNL     1       3.449  -7.037   4.744  0.00  0.00    +0.112 C 
BRANCH  20  21
ATOM     21  C   UNL     1       4.308  -6.872   5.971  0.00  0.00    -0.034 A 
ATOM     22  C   UNL     1       5.681  -6.774   5.846  0.00  0.00    +0.005 A 
ATOM     23  C   UNL     1       6.469  -6.623   6.972  0.00  0.00    +0.000 A 
ATOM     24  C   UNL     1       5.883  -6.569   8.223  0.00  0.00    +0.000 A 
ATOM     25  C   UNL     1       4.510  -6.666   8.348  0.00  0.00    +0.003 A 
ATOM     26  C   UNL     1       3.722  -6.813   7.222  0.00  0.00    -0.046 A 
ATOM     27  C   UNL     1       2.224  -6.913   7.358  0.00  0.00    +0.044 C 
ENDBRANCH  20  21
ENDBRANCH  19  20
ENDBRANCH   9  19
TORSDOF 4
