REMARK  Name = ZINC11380015
REMARK  8 active torsions:
REMARK  status: ('A' for Active; 'I' for Inactive)
REMARK    1  A    between atoms: C_1  and  C_2
REMARK    2  A    between atoms: C_6  and  C_30
REMARK    3  A    between atoms: C_8  and  O_11
REMARK    4  A    between atoms: O_11  and  C_12
REMARK    5  A    between atoms: C_12  and  C_14
REMARK    6  A    between atoms: C_14  and  N_15
REMARK    7  A    between atoms: C_30  and  C_31
REMARK    8  A    between atoms: C_30  and  C_32
REMARK                            x       y       z     vdW  Elec       q    Type
REMARK                         _______ _______ _______ _____ _____    ______ ____
ROOT
ATOM      1  N   UNL     1      -4.116   1.073  -1.639  0.00  0.00    -0.213 N 
ATOM      2  C   UNL     1      -3.074   0.594  -0.926  0.00  0.00    +0.252 C 
ATOM      3  O   UNL     1      -2.877  -0.555  -0.593  0.00  0.00    -0.272 OA
ATOM      4  C   UNL     1      -2.211   1.793  -0.632  0.00  0.00    +0.138 C 
ATOM      5  C   UNL     1      -0.801   1.618  -1.210  0.00  0.00    +0.045 C 
ATOM      6  C   UNL     1      -0.013   1.086   0.008  0.00  0.00    +0.038 C 
ATOM      7  C   UNL     1      -0.762   1.594   1.222  0.00  0.00    -0.042 A 
ATOM      8  C   UNL     1      -2.035   2.001   0.848  0.00  0.00    -0.012 A 
ATOM      9  C   UNL     1      -2.902   2.503   1.804  0.00  0.00    +0.006 A 
ATOM     10  C   UNL     1      -2.505   2.600   3.123  0.00  0.00    +0.000 A 
ATOM     11  C   UNL     1      -1.237   2.195   3.494  0.00  0.00    +0.000 A 
ATOM     12  C   UNL     1      -0.369   1.693   2.543  0.00  0.00    +0.004 A 
ATOM     13  N   UNL     1      -2.909   2.914  -1.260  0.00  0.00    -0.281 N 
ATOM     14  C   UNL     1      -4.018   2.396  -1.827  0.00  0.00    +0.310 C 
ATOM     15  O   UNL     1      -4.835   3.055  -2.439  0.00  0.00    -0.252 OA
ATOM     16  H   UNL     1      -2.632   3.844  -1.266  0.00  0.00    +0.152 HD
ENDROOT
BRANCH   1  17
ATOM     17  C   UNL     1      -5.217   0.249  -2.145  0.00  0.00    +0.238 C 
BRANCH  17  18
ATOM     18  C   UNL     1      -6.315   0.192  -1.115  0.00  0.00    +0.325 C 
ATOM     19  O   UNL     1      -6.191   0.779  -0.066  0.00  0.00    -0.249 OA
BRANCH  18  20
ATOM     20  O   UNL     1      -7.431  -0.512  -1.362  0.00  0.00    -0.460 OA
BRANCH  20  26
ATOM     21  C   UNL     1      -8.003  -4.183   0.784  0.00  0.00    +0.007 C 
ATOM     22  C   UNL     1      -8.255  -3.009  -0.164  0.00  0.00    -0.011 C 
ATOM     23  C   UNL     1      -9.636  -3.157  -0.804  0.00  0.00    +0.004 C 
ATOM     24  C   UNL     1      -9.888  -1.983  -1.752  0.00  0.00    +0.007 C 
ATOM     25  C   UNL     1      -9.829  -0.671  -0.966  0.00  0.00    +0.032 C 
ATOM     26  C   UNL     1      -8.447  -0.523  -0.325  0.00  0.00    +0.180 C 
ATOM     27  C   UNL     1      -8.195  -1.698   0.623  0.00  0.00    +0.048 C 
BRANCH  25  28
ATOM     28  C   UNL     1     -10.080   0.503  -1.913  0.00  0.00    -0.011 C 
ATOM     29  C   UNL     1     -11.462   0.354  -2.554  0.00  0.00    +0.007 C 
ATOM     30  C   UNL     1     -10.021   1.814  -1.127  0.00  0.00    +0.007 C 
ENDBRANCH  25  28
ENDBRANCH  20  26
ENDBRANCH  18  20
ENDBRANCH  17  18
ENDBRANCH   1  17
TORSDOF 5
