REMARK  Name = ZINC35768179
REMARK  7 active torsions:
REMARK  status: ('A' for Active; 'I' for Inactive)
REMARK    1  A    between atoms: C_1  and  C_2
REMARK    2  A    between atoms: C_5  and  S_8
REMARK    3  A    between atoms: S_8  and  N_11
REMARK    4  A    between atoms: N_11  and  C_12
REMARK    5  A    between atoms: N_11  and  C_31
REMARK    6  A    between atoms: C_12  and  C_13
REMARK    7  A    between atoms: C_23  and  C_25
REMARK                            x       y       z     vdW  Elec       q    Type
REMARK                         _______ _______ _______ _____ _____    ______ ____
ROOT
ATOM      1  C   UNL     1       2.171  -6.902   1.398  0.00  0.00    +0.232 C 
ATOM      2  O   UNL     1       1.572  -7.786   0.823  0.00  0.00    -0.274 OA
ATOM      3  N   UNL     1       2.838  -7.171   2.538  0.00  0.00    -0.289 N 
ATOM      4  C   UNL     1       3.563  -6.105   3.246  0.00  0.00    +0.114 C 
ATOM      5  C   UNL     1       2.892  -5.892   4.612  0.00  0.00    +0.062 C 
ATOM      6  C   UNL     1       2.587  -7.227   5.210  0.00  0.00    -0.003 A 
ATOM      7  C   UNL     1       2.548  -8.434   4.583  0.00  0.00    -0.012 A 
ATOM      8  C   UNL     1       2.228  -9.539   5.371  0.00  0.00    +0.013 A 
ATOM      9  C   UNL     1       1.979  -9.378   6.691  0.00  0.00    +0.046 A 
ATOM     10  S   UNL     1       2.191  -7.616   6.894  0.00  0.00    -0.101 S 
ATOM     11  C   UNL     1       2.848  -8.531   3.092  0.00  0.00    +0.137 C 
ENDROOT
BRANCH  11  12
ATOM     12  C   UNL     1       4.203  -9.156   2.888  0.00  0.00    -0.023 A 
ATOM     13  C   UNL     1       5.315  -8.614   3.505  0.00  0.00    +0.006 A 
ATOM     14  C   UNL     1       6.559  -9.187   3.317  0.00  0.00    +0.000 A 
ATOM     15  C   UNL     1       6.691 -10.304   2.513  0.00  0.00    +0.000 A 
ATOM     16  C   UNL     1       5.579 -10.847   1.897  0.00  0.00    +0.000 A 
ATOM     17  C   UNL     1       4.335 -10.276   2.088  0.00  0.00    +0.006 A 
ENDBRANCH  11  12
BRANCH   1  18
ATOM     18  C   UNL     1       2.168  -5.503   0.838  0.00  0.00    +0.205 C 
BRANCH  18  19
ATOM     19  N   UNL     1       1.379  -5.472  -0.395  0.00  0.00    -0.165 NA
BRANCH  19  20
ATOM     20  S   UNL     1      -0.217  -5.031  -0.346  0.00  0.00    +0.062 S 
ATOM     21  O   UNL     1      -0.669  -5.288   0.976  0.00  0.00    -0.153 OA
ATOM     22  O   UNL     1      -0.834  -5.610  -1.488  0.00  0.00    -0.153 OA
BRANCH  20  27
ATOM     23  C   UNL     1      -0.443   0.950  -1.113  0.00  0.00    +0.044 C 
ATOM     24  C   UNL     1      -0.386  -0.544  -0.921  0.00  0.00    -0.050 A 
ATOM     25  C   UNL     1      -0.438  -1.384  -2.018  0.00  0.00    +0.005 A 
ATOM     26  C   UNL     1      -0.387  -2.754  -1.843  0.00  0.00    +0.029 A 
ATOM     27  C   UNL     1      -0.282  -3.284  -0.570  0.00  0.00    +0.106 A 
ATOM     28  C   UNL     1      -0.229  -2.445   0.526  0.00  0.00    +0.029 A 
ATOM     29  C   UNL     1      -0.276  -1.074   0.351  0.00  0.00    +0.005 A 
ENDBRANCH  20  27
ENDBRANCH  19  20
BRANCH  19  30
ATOM     30  C   UNL     1       2.001  -5.831  -1.672  0.00  0.00    +0.080 C 
ATOM     31  C   UNL     1       3.411  -6.421  -1.630  0.00  0.00    +0.022 C 
ATOM     32  C   UNL     1       3.194  -4.994  -2.137  0.00  0.00    +0.022 C 
ENDBRANCH  19  30
ENDBRANCH  18  19
ENDBRANCH   1  18
TORSDOF 6
