REMARK  Name = ZINC60348044
REMARK  9 active torsions:
REMARK  status: ('A' for Active; 'I' for Inactive)
REMARK    1  A    between atoms: C_1  and  C_2
REMARK    2  A    between atoms: C_5  and  C_17
REMARK    3  A    between atoms: C_7  and  N_8
REMARK    4  A    between atoms: C_9  and  C_11
REMARK    5  A    between atoms: C_23  and  C_25
REMARK    6  A    between atoms: N_27  and  C_28
REMARK    7  A    between atoms: C_28  and  C_29
REMARK    8  A    between atoms: C_28  and  C_30
REMARK    9  A    between atoms: C_28  and  C_31
REMARK                            x       y       z     vdW  Elec       q    Type
REMARK                         _______ _______ _______ _____ _____    ______ ____
ROOT
ATOM      1  C   UNL     1      -0.053   1.306   0.167  0.00  0.00    +0.045 C 
ATOM      2  C   UNL     1      -0.022  -0.199   0.091  0.00  0.00    -0.029 A 
ATOM      3  C   UNL     1      -0.773  -0.856  -0.865  0.00  0.00    +0.006 A 
ATOM      4  C   UNL     1      -0.750  -2.233  -0.941  0.00  0.00    +0.013 A 
ATOM      5  C   UNL     1       0.036  -2.968  -0.051  0.00  0.00    +0.039 A 
ATOM      6  C   UNL     1       0.794  -2.305   0.913  0.00  0.00    +0.036 A 
ATOM      7  C   UNL     1       0.767  -0.920   0.978  0.00  0.00    +0.037 A 
ENDROOT
BRANCH   5   8
ATOM      8  C   UNL     1       0.063  -4.444  -0.130  0.00  0.00    +0.248 C 
ATOM      9  O   UNL     1       0.200  -5.105   0.881  0.00  0.00    -0.270 OA
ATOM     10  N   UNL     1      -0.064  -5.058  -1.323  0.00  0.00    -0.276 N 
ATOM     11  C   UNL     1      -0.321  -4.297  -2.566  0.00  0.00    +0.178 C 
ATOM     12  S   UNL     1       0.291  -5.482  -3.844  0.00  0.00    -0.139 S 
ATOM     13  C   UNL     1      -0.108  -7.024  -2.906  0.00  0.00    +0.102 C 
ATOM     14  C   UNL     1       0.049  -6.500  -1.457  0.00  0.00    +0.173 C 
BRANCH  14  15
ATOM     15  C   UNL     1      -1.012  -7.145  -0.602  0.00  0.00    +0.235 C 
ATOM     16  O   UNL     1      -1.773  -6.455   0.043  0.00  0.00    -0.274 OA
ATOM     17  N   UNL     1      -1.116  -8.488  -0.555  0.00  0.00    -0.309 N 
ATOM     18  H   UNL     1      -0.507  -9.040  -1.071  0.00  0.00    +0.149 HD
BRANCH  17  19
ATOM     19  C   UNL     1      -2.147  -9.114   0.276  0.00  0.00    +0.026 C 
ATOM     20  C   UNL     1      -3.529  -8.653  -0.193  0.00  0.00    +0.031 C 
ATOM     21  C   UNL     1      -2.048 -10.636   0.151  0.00  0.00    +0.031 C 
ATOM     22  C   UNL     1      -1.942  -8.707   1.736  0.00  0.00    +0.031 C 
ENDBRANCH  17  19
ENDBRANCH  14  15
ENDBRANCH   5   8
BRANCH   7  23
ATOM     23  N   UNL     1       1.531  -0.250   1.940  0.00  0.00    -0.281 N 
ATOM     24  C   UNL     1       1.842  -0.862   3.100  0.00  0.00    +0.248 C 
ATOM     25  O   UNL     1       1.529  -2.023   3.277  0.00  0.00    -0.270 OA
ATOM     26  H   UNL     1       1.837   0.655   1.772  0.00  0.00    +0.155 HD
BRANCH  24  27
ATOM     27  C   UNL     1       2.563  -0.121   4.156  0.00  0.00    +0.037 A 
ATOM     28  C   UNL     1       2.919   1.214   3.958  0.00  0.00    +0.013 A 
ATOM     29  C   UNL     1       3.592   1.899   4.947  0.00  0.00    +0.001 A 
ATOM     30  C   UNL     1       3.915   1.267   6.135  0.00  0.00    +0.000 A 
ATOM     31  C   UNL     1       3.565  -0.057   6.338  0.00  0.00    +0.001 A 
ATOM     32  C   UNL     1       2.887  -0.752   5.358  0.00  0.00    +0.013 A 
ENDBRANCH  24  27
ENDBRANCH   7  23
TORSDOF 5
