REMARK  Name = ZINC66497147
REMARK  3 active torsions:
REMARK  status: ('A' for Active; 'I' for Inactive)
REMARK    1  A    between atoms: C_8  and  C_23
REMARK    2  A    between atoms: N_10  and  C_11
REMARK    3  A    between atoms: C_11  and  C_12
REMARK                            x       y       z     vdW  Elec       q    Type
REMARK                         _______ _______ _______ _____ _____    ______ ____
ROOT
ATOM      1  C   UNL     1      -0.017   1.378   0.010  0.00  0.00    +0.000 A 
ATOM      2  C   UNL     1       1.174   2.082   0.002  0.00  0.00    +0.002 A 
ATOM      3  C   UNL     1       2.377   1.411  -0.013  0.00  0.00    +0.023 A 
ATOM      4  C   UNL     1       2.405   0.014  -0.021  0.00  0.00    +0.034 A 
ATOM      5  C   UNL     1       1.206  -0.682  -0.013  0.00  0.00    -0.024 A 
ATOM      6  C   UNL     1       0.002  -0.004   0.002  0.00  0.00    +0.005 A 
ATOM      7  C   UNL     1       1.510  -2.163  -0.023  0.00  0.00    +0.069 C 
ATOM      8  C   UNL     1       3.046  -2.241  -0.038  0.00  0.00    +0.164 C 
ATOM      9  N   UNL     1       3.501  -0.849  -0.036  0.00  0.00    -0.312 N 
ENDROOT
BRANCH   8  10
ATOM     10  C   UNL     1       3.521  -2.947  -1.282  0.00  0.00    +0.231 C 
ATOM     11  O   UNL     1       4.225  -2.363  -2.079  0.00  0.00    -0.274 OA
ATOM     12  N   UNL     1       3.164  -4.226  -1.510  0.00  0.00    -0.328 N 
ATOM     13  H   UNL     1       2.601  -4.693  -0.872  0.00  0.00    +0.145 HD
ATOM     14  H   UNL     1       3.470  -4.681  -2.310  0.00  0.00    +0.145 HD
ENDBRANCH   8  10
BRANCH   9  15
ATOM     15  C   UNL     1       4.903  -0.424  -0.048  0.00  0.00    +0.159 C 
BRANCH  15  16
ATOM     16  C   UNL     1       5.399  -0.285   1.368  0.00  0.00    +0.040 A 
ATOM     17  C   UNL     1       6.377  -1.099   1.826  0.00  0.00    +0.095 A 
ATOM     18  C   UNL     1       6.838  -0.966   3.151  0.00  0.00    +0.275 A 
ATOM     19  O   UNL     1       7.720  -1.696   3.567  0.00  0.00    -0.266 OA
ATOM     20  N   UNL     1       6.301  -0.028   3.956  0.00  0.00    -0.180 N 
ATOM     21  C   UNL     1       5.314   0.790   3.488  0.00  0.00    +0.138 A 
ATOM     22  N   UNL     1       4.864   0.664   2.187  0.00  0.00    -0.342 N 
ATOM     23  H   UNL     1       4.165   1.250   1.857  0.00  0.00    +0.167 HD
ATOM     24  C   UNL     1       4.964   1.629   4.503  0.00  0.00    +0.068 A 
ATOM     25  C   UNL     1       5.755   1.314   5.610  0.00  0.00    +0.137 A 
ATOM     26  N   UNL     1       6.553   0.327   5.287  0.00  0.00    -0.170 NA
ENDBRANCH  15  16
ENDBRANCH   9  15
TORSDOF 3
