REMARK  Name = ZINC05734186
REMARK  3 active torsions:
REMARK  status: ('A' for Active; 'I' for Inactive)
REMARK    1  A    between atoms: C_6  and  C_7
REMARK    2  A    between atoms: C_7  and  C_16
REMARK    3  A    between atoms: N_12  and  O_13
REMARK                            x       y       z     vdW  Elec       q    Type
REMARK                         _______ _______ _______ _____ _____    ______ ____
ROOT
ATOM      1  C   UNL     1       1.776   7.040   0.024  0.00  0.00    +0.066 C 
ATOM      2  C   UNL     1       1.648   5.646   0.017  0.00  0.00    -0.007 C 
ATOM      3  C   UNL     1       2.813   4.843   0.001  0.00  0.00    +0.011 C 
ATOM      4  C   UNL     1       2.721   3.497  -0.005  0.00  0.00    +0.031 C 
ATOM      5  C   UNL     1       1.394   2.867   0.004  0.00  0.00    +0.103 C 
ATOM      6  N   UNL     1       1.275   1.556  -0.002  0.00  0.00    -0.088 NA
ATOM      7  C   UNL     1       0.203   3.727   0.014  0.00  0.00    +0.031 C 
ATOM      8  C   UNL     1       0.357   5.067   0.027  0.00  0.00    +0.011 C 
ENDROOT
BRANCH   1  14
ATOM      9  C   UNL     1      -0.305   7.889  -1.050  0.00  0.00    +0.010 A 
ATOM     10  C   UNL     1      -1.432   8.682  -1.024  0.00  0.00    +0.020 A 
ATOM     11  C   UNL     1      -1.692   9.488   0.072  0.00  0.00    +0.041 A 
ATOM     12  C   UNL     1      -0.825   9.500   1.153  0.00  0.00    +0.020 A 
ATOM     13  C   UNL     1       0.303   8.707   1.144  0.00  0.00    +0.010 A 
ATOM     14  C   UNL     1       0.571   7.891   0.041  0.00  0.00    -0.007 A 
ATOM     15 CL   UNL     1      -3.111  10.489   0.092  0.00  0.00    -0.084 Cl
ENDBRANCH   1  14
BRANCH   6  16
ATOM     16  O   UNL     1      -0.011   0.963   0.007  0.00  0.00    -0.409 OA
ATOM     17  H   UNL     1       0.002  -0.004   0.002  0.00  0.00    +0.328 HD
ENDBRANCH   6  16
BRANCH   1  18
ATOM     18  C   UNL     1       3.076   7.641   0.015  0.00  0.00    +0.100 C 
ATOM     19  N   UNL     1       4.107   8.117   0.007  0.00  0.00    -0.191 NA
ENDBRANCH   1  18
TORSDOF 3
