REMARK  Name = ZINC03146224
REMARK  9 active torsions:
REMARK  status: ('A' for Active; 'I' for Inactive)
REMARK    1  A    between atoms: C_1  and  C_2
REMARK    2  A    between atoms: C_5  and  O_9
REMARK    3  A    between atoms: C_6  and  C_8
REMARK    4  A    between atoms: O_9  and  C_10
REMARK    5  A    between atoms: C_10  and  C_11
REMARK    6  A    between atoms: N_13  and  N_14
REMARK    7  A    between atoms: C_15  and  C_16
REMARK    8  A    between atoms: N_18  and  C_25
REMARK    9  A    between atoms: C_25  and  C_26
REMARK                            x       y       z     vdW  Elec       q    Type
REMARK                         _______ _______ _______ _____ _____    ______ ____
ROOT
ATOM      1  N   UNL     1      -1.973   6.164   0.053  0.00  0.00    -0.188 NA
ATOM      2  C   UNL     1      -0.695   6.400   0.043  0.00  0.00    +0.140 C 
ENDROOT
BRANCH   2   3
ATOM      3  C   UNL     1       0.259   5.280   0.028  0.00  0.00    +0.020 A 
ATOM      4  C   UNL     1       1.617   5.368   0.015  0.00  0.00    +0.096 A 
ATOM      5  N   UNL     1       2.159   4.118   0.004  0.00  0.00    -0.342 N 
ATOM      6  C   UNL     1       1.162   3.165   0.008  0.00  0.00    +0.050 A 
ATOM      7  C   UNL     1      -0.068   3.843   0.023  0.00  0.00    +0.009 A 
ATOM      8  C   UNL     1      -1.261   3.123   0.031  0.00  0.00    +0.010 A 
ATOM      9  C   UNL     1      -1.227   1.746   0.017  0.00  0.00    +0.001 A 
ATOM     10  C   UNL     1      -0.013   1.076   0.008  0.00  0.00    +0.002 A 
ATOM     11  C   UNL     1       1.175   1.774   0.000  0.00  0.00    +0.026 A 
BRANCH   5  12
ATOM     12  C   UNL     1       3.595   3.828  -0.011  0.00  0.00    +0.157 C 
BRANCH  12  13
ATOM     13  C   UNL     1       4.049   3.614  -1.432  0.00  0.00    -0.028 A 
ATOM     14  C   UNL     1       4.028   2.346  -1.981  0.00  0.00    +0.005 A 
ATOM     15  C   UNL     1       4.440   2.151  -3.286  0.00  0.00    +0.000 A 
ATOM     16  C   UNL     1       4.884   3.222  -4.038  0.00  0.00    +0.000 A 
ATOM     17  C   UNL     1       4.911   4.490  -3.487  0.00  0.00    +0.000 A 
ATOM     18  C   UNL     1       4.493   4.686  -2.184  0.00  0.00    +0.005 A 
ENDBRANCH  12  13
ENDBRANCH   5  12
ENDBRANCH   2   3
BRANCH   1  21
ATOM     19  C   UNL     1      -4.207   6.986   0.078  0.00  0.00    +0.270 C 
ATOM     20  O   UNL     1      -4.613   5.843   0.076  0.00  0.00    -0.270 OA
ATOM     21  N   UNL     1      -2.882   7.231   0.067  0.00  0.00    -0.204 N 
ATOM     22  H   UNL     1      -2.557   8.145   0.069  0.00  0.00    +0.177 HD
BRANCH  19  23
ATOM     23  C   UNL     1      -5.184   8.133   0.093  0.00  0.00    +0.326 C 
BRANCH  23  24
ATOM     24  O   UNL     1      -6.519   7.622   0.103  0.00  0.00    -0.482 OA
BRANCH  24  29
ATOM     25  C   UNL     1     -10.702  11.392   0.160  0.00  0.00    +0.044 C 
ATOM     26  C   UNL     1      -9.583  10.383   0.145  0.00  0.00    -0.050 A 
ATOM     27  C   UNL     1      -8.268  10.811   0.136  0.00  0.00    +0.007 A 
ATOM     28  C   UNL     1      -7.240   9.889   0.121  0.00  0.00    +0.046 A 
ATOM     29  C   UNL     1      -7.528   8.531   0.117  0.00  0.00    +0.124 A 
ATOM     30  C   UNL     1      -8.848   8.105   0.121  0.00  0.00    -0.009 A 
ATOM     31  C   UNL     1      -9.873   9.031   0.140  0.00  0.00    +0.010 A 
ATOM     32  C   UNL     1      -9.164   6.631   0.110  0.00  0.00    +0.047 C 
ENDBRANCH  24  29
ENDBRANCH  23  24
ENDBRANCH  19  23
ENDBRANCH   1  21
TORSDOF 7
