REMARK  Name = ZINC05055552
REMARK  5 active torsions:
REMARK  status: ('A' for Active; 'I' for Inactive)
REMARK    1  A    between atoms: C_1  and  C_2
REMARK    2  A    between atoms: C_9  and  N_15
REMARK    3  A    between atoms: C_10  and  C_11
REMARK    4  A    between atoms: N_13  and  C_14
REMARK    5  A    between atoms: C_16  and  C_18
REMARK                            x       y       z     vdW  Elec       q    Type
REMARK                         _______ _______ _______ _____ _____    ______ ____
ROOT
ATOM      1  C   UNL     1      -0.019   1.526   0.010  0.00  0.00    +0.008 C 
ATOM      2  C   UNL     1       0.002  -0.004   0.002  0.00  0.00    -0.009 C 
ATOM      3  C   UNL     1       0.742  -0.514   1.242  0.00  0.00    +0.008 C 
ATOM      4  C   UNL     1       0.557  -2.027   1.373  0.00  0.00    +0.037 C 
ATOM      5  C   UNL     1       0.941  -2.684   0.053  0.00  0.00    -0.023 A 
ATOM      6  C   UNL     1       1.008  -1.966  -1.089  0.00  0.00    -0.004 A 
ATOM      7  S   UNL     1       1.485  -3.133  -2.331  0.00  0.00    -0.077 S 
ATOM      8  C   UNL     1       1.594  -4.557  -1.350  0.00  0.00    +0.085 A 
ATOM      9  C   UNL     1       1.259  -4.096  -0.085  0.00  0.00    +0.069 A 
ATOM     10  C   UNL     1       0.736  -0.502  -1.252  0.00  0.00    +0.046 C 
ENDROOT
BRANCH   9  11
ATOM     11  C   UNL     1       1.228  -4.998   1.070  0.00  0.00    +0.246 C 
ATOM     12  O   UNL     1       0.199  -5.583   1.358  0.00  0.00    -0.270 OA
ATOM     13  N   UNL     1       2.337  -5.181   1.813  0.00  0.00    -0.314 N 
ATOM     14  C   UNL     1       2.306  -6.083   2.967  0.00  0.00    +0.128 C 
ATOM     15  H   UNL     1       3.156  -4.715   1.584  0.00  0.00    +0.149 HD
ENDBRANCH   9  11
BRANCH   8  16
ATOM     16  N   UNL     1       1.932  -5.844  -1.736  0.00  0.00    -0.273 N 
ATOM     17  C   UNL     1       2.229  -6.105  -3.024  0.00  0.00    +0.284 C 
ATOM     18  O   UNL     1       2.201  -5.211  -3.849  0.00  0.00    -0.266 OA
ATOM     19  H   UNL     1       1.955  -6.557  -1.078  0.00  0.00    +0.156 HD
BRANCH  17  20
ATOM     20  C   UNL     1       2.587  -7.467  -3.432  0.00  0.00    +0.189 A 
ATOM     21  C   UNL     1       2.904  -7.869  -4.698  0.00  0.00    +0.054 A 
ATOM     22  C   UNL     1       3.180  -9.243  -4.629  0.00  0.00    +0.042 A 
ATOM     23  C   UNL     1       3.013  -9.617  -3.341  0.00  0.00    +0.196 A 
ATOM     24  O   UNL     1       2.656  -8.545  -2.623  0.00  0.00    -0.458 OA
ENDBRANCH  17  20
ENDBRANCH   8  16
TORSDOF 3
