REMARK  Name = ZINC57173254
REMARK  11 active torsions:
REMARK  status: ('A' for Active; 'I' for Inactive)
REMARK    1  A    between atoms: C_1  and  C_2
REMARK    2  A    between atoms: C_2  and  C_3
REMARK    3  A    between atoms: C_2  and  C_4
REMARK    4  A    between atoms: C_4  and  C_6
REMARK    5  A    between atoms: C_4  and  N_15
REMARK    6  A    between atoms: N_8  and  C_9
REMARK    7  A    between atoms: C_9  and  C_10
REMARK    8  A    between atoms: C_10  and  S_11
REMARK    9  A    between atoms: S_11  and  N_14
REMARK   10  A    between atoms: C_16  and  C_18
REMARK   11  A    between atoms: C_18  and  C_19
REMARK                            x       y       z     vdW  Elec       q    Type
REMARK                         _______ _______ _______ _____ _____    ______ ____
ROOT
ATOM      1  C   UNL     1      -1.420  -0.614  -0.201  0.00  0.00    +0.161 C 
ENDROOT
BRANCH   1   2
ATOM      2  C   UNL     1      -2.374  -0.017   0.801  0.00  0.00    +0.234 C 
ATOM      3  O   UNL     1      -3.390   0.526   0.421  0.00  0.00    -0.274 OA
ATOM      4  N   UNL     1      -2.099  -0.085   2.118  0.00  0.00    -0.312 N 
ATOM      5  H   UNL     1      -1.322  -0.577   2.426  0.00  0.00    +0.149 HD
BRANCH   4   6
ATOM      6  C   UNL     1      -2.974   0.583   3.085  0.00  0.00    +0.128 C 
BRANCH   6   7
ATOM      7  C   UNL     1      -2.441   0.351   4.500  0.00  0.00    +0.203 C 
BRANCH   7   8
ATOM      8  S   UNL     1      -3.524   1.178   5.698  0.00  0.00    +0.028 S 
ATOM      9  O   UNL     1      -3.425   2.588   5.553  0.00  0.00    -0.158 OA
ATOM     10  O   UNL     1      -4.793   0.540   5.732  0.00  0.00    -0.158 OA
BRANCH   8  11
ATOM     11  N   UNL     1      -2.849   0.857   7.175  0.00  0.00    -0.208 NA
ATOM     12  H   UNL     1      -2.041   0.323   7.234  0.00  0.00    +0.144 HD
ATOM     13  H   UNL     1      -3.261   1.202   7.982  0.00  0.00    +0.144 HD
ENDBRANCH   8  11
ENDBRANCH   7   8
ENDBRANCH   6   7
ENDBRANCH   4   6
ENDBRANCH   1   2
BRANCH   1  14
ATOM     14  N   UNL     1      -2.144  -0.940  -1.432  0.00  0.00    -0.303 N 
ATOM     15  C   UNL     1      -1.679  -1.901  -2.253  0.00  0.00    +0.218 C 
ATOM     16  O   UNL     1      -0.661  -2.498  -1.973  0.00  0.00    -0.275 OA
ATOM     17  H   UNL     1      -2.958  -0.462  -1.656  0.00  0.00    +0.149 HD
BRANCH  15  18
ATOM     18  C   UNL     1      -2.424  -2.236  -3.520  0.00  0.00    +0.131 C 
BRANCH  18  19
ATOM     19  C   UNL     1      -1.700  -3.336  -4.252  0.00  0.00    -0.038 A 
ATOM     20  C   UNL     1      -0.716  -3.010  -5.184  0.00  0.00    +0.005 A 
ATOM     21  C   UNL     1      -0.044  -3.979  -5.862  0.00  0.00    +0.009 A 
ATOM     22  C   UNL     1      -0.345  -5.331  -5.623  0.00  0.00    -0.018 A 
ATOM     23  C   UNL     1       0.328  -6.360  -6.305  0.00  0.00    +0.008 A 
ATOM     24  C   UNL     1       0.010  -7.658  -6.047  0.00  0.00    +0.001 A 
ATOM     25  C   UNL     1      -0.974  -7.984  -5.116  0.00  0.00    +0.001 A 
ATOM     26  C   UNL     1      -1.646  -7.015  -4.437  0.00  0.00    +0.008 A 
ATOM     27  C   UNL     1      -1.345  -5.663  -4.676  0.00  0.00    -0.018 A 
ATOM     28  C   UNL     1      -2.014  -4.635  -3.991  0.00  0.00    +0.012 A 
ENDBRANCH  18  19
ENDBRANCH  15  18
ENDBRANCH   1  14
BRANCH   1  30
ATOM     29  C   UNL     1       0.735  -0.264  -1.417  0.00  0.00    +0.009 C 
ATOM     30  C   UNL     1      -0.310   0.392  -0.512  0.00  0.00    +0.012 C 
ATOM     31  C   UNL     1      -0.910   1.608  -1.223  0.00  0.00    +0.009 C 
ENDBRANCH   1  30
TORSDOF 9
