REMARK  Name = ZINC33011293
REMARK  7 active torsions:
REMARK  status: ('A' for Active; 'I' for Inactive)
REMARK    1  A    between atoms: C_4  and  C_7
REMARK    2  A    between atoms: C_10  and  C_27
REMARK    3  A    between atoms: C_11  and  S_13
REMARK    4  A    between atoms: S_13  and  C_14
REMARK    5  A    between atoms: C_14  and  C_15
REMARK    6  A    between atoms: N_17  and  C_18
REMARK    7  A    between atoms: C_23  and  N_24
REMARK                            x       y       z     vdW  Elec       q    Type
REMARK                         _______ _______ _______ _____ _____    ______ ____
ROOT
ATOM      1  S   UNL     1       0.130   5.563   0.072  0.00  0.00    -0.095 S 
ENDROOT
BRANCH   1   6
ATOM      2  C   UNL     1       1.217   1.786   0.102  0.00  0.00    +0.072 A 
ATOM      3  C   UNL     1       0.025   1.062   0.118  0.00  0.00    +0.030 A 
ATOM      4  C   UNL     1      -1.180   1.737   0.114  0.00  0.00    +0.023 A 
ATOM      5  C   UNL     1      -1.160   3.138   0.105  0.00  0.00    +0.084 A 
ATOM      6  C   UNL     1       0.081   3.802   0.090  0.00  0.00    +0.115 A 
ATOM      7  N   UNL     1       1.210   3.113   0.089  0.00  0.00    -0.239 NA
BRANCH   2  11
ATOM      8  C   UNL     1       4.927  -0.289   0.100  0.00  0.00    +0.000 A 
ATOM      9  C   UNL     1       4.911   1.095   0.085  0.00  0.00    +0.001 A 
ATOM     10  C   UNL     1       3.710   1.774   0.086  0.00  0.00    +0.010 A 
ATOM     11  C   UNL     1       2.510   1.063   0.101  0.00  0.00    +0.000 A 
ATOM     12  C   UNL     1       2.533  -0.331   0.121  0.00  0.00    +0.010 A 
ATOM     13  C   UNL     1       3.740  -0.999   0.116  0.00  0.00    +0.001 A 
ENDBRANCH   2  11
BRANCH   5  14
ATOM     14  C   UNL     1      -2.383   3.882   0.107  0.00  0.00    +0.102 C 
ATOM     15  N   UNL     1      -3.353   4.473   0.108  0.00  0.00    -0.191 NA
ENDBRANCH   5  14
ENDBRANCH   1   6
BRANCH   1  16
ATOM     16  C   UNL     1       1.921   5.827   0.057  0.00  0.00    +0.172 C 
BRANCH  16  17
ATOM     17  C   UNL     1       2.210   7.306   0.040  0.00  0.00    +0.227 C 
ATOM     18  O   UNL     1       1.296   8.103   0.038  0.00  0.00    -0.275 OA
ATOM     19  N   UNL     1       3.485   7.743   0.028  0.00  0.00    -0.283 N 
ATOM     20  H   UNL     1       4.314   7.024   0.103  0.00  0.00    +0.155 HD
BRANCH  19  21
ATOM     21  C   UNL     1       3.755   9.112  -0.081  0.00  0.00    +0.064 A 
ATOM     22  C   UNL     1       2.913  10.037   0.523  0.00  0.00    +0.025 A 
ATOM     23  C   UNL     1       3.185  11.387   0.418  0.00  0.00    +0.002 A 
ATOM     24  C   UNL     1       4.288  11.818  -0.297  0.00  0.00    +0.002 A 
ATOM     25  C   UNL     1       5.124  10.900  -0.904  0.00  0.00    +0.034 A 
ATOM     26  C   UNL     1       4.861   9.548  -0.798  0.00  0.00    +0.147 A 
BRANCH  26  27
ATOM     27  N   UNL     1       5.757   8.566  -1.449  0.00  0.00    +0.058 N 
ATOM     28  O   UNL     1       6.780   8.941  -1.993  0.00  0.00    -0.126 OA
ATOM     29  O   UNL     1       5.471   7.382  -1.441  0.00  0.00    -0.126 OA
ENDBRANCH  26  27
ENDBRANCH  19  21
ENDBRANCH  16  17
ENDBRANCH   1  16
TORSDOF 7
