REMARK  Name = ZINC23126488
REMARK  8 active torsions:
REMARK  status: ('A' for Active; 'I' for Inactive)
REMARK    1  A    between atoms: C_1  and  C_2
REMARK    2  A    between atoms: C_5  and  N_9
REMARK    3  A    between atoms: C_6  and  C_8
REMARK    4  A    between atoms: C_10  and  C_12
REMARK    5  A    between atoms: C_12  and  N_13
REMARK    6  A    between atoms: C_21  and  S_23
REMARK    7  A    between atoms: S_23  and  C_24
REMARK    8  A    between atoms: C_24  and  C_25
REMARK                            x       y       z     vdW  Elec       q    Type
REMARK                         _______ _______ _______ _____ _____    ______ ____
ROOT
ATOM      1  N   UNL     1       1.318  -8.527   0.472  0.00  0.00    -0.202 N 
ATOM      2  C   UNL     1       1.296  -7.242   0.885  0.00  0.00    +0.368 A 
ATOM      3  O   UNL     1       1.293  -6.860   2.043  0.00  0.00    -0.243 OA
ATOM      4  N   UNL     1       1.279  -6.457  -0.210  0.00  0.00    -0.160 N 
ATOM      5  C   UNL     1       1.291  -7.270  -1.327  0.00  0.00    +0.179 A 
ATOM      6  N   UNL     1       1.314  -8.521  -0.930  0.00  0.00    -0.147 NA
ATOM      7  C   UNL     1       1.276  -6.678  -2.616  0.00  0.00    +0.053 A 
ATOM      8  C   UNL     1       1.252  -5.329  -2.722  0.00  0.00    +0.040 A 
ATOM      9  C   UNL     1       1.240  -4.525  -1.558  0.00  0.00    +0.118 A 
ATOM     10  N   UNL     1       1.259  -5.065  -0.366  0.00  0.00    -0.154 NA
ENDROOT
BRANCH   1  11
ATOM     11  C   UNL     1       1.341  -9.713   1.333  0.00  0.00    +0.245 C 
BRANCH  11  13
ATOM     12  N   UNL     1      -0.298 -11.220   2.410  0.00  0.00    -0.284 N 
ATOM     13  C   UNL     1      -0.072 -10.144   1.631  0.00  0.00    +0.239 C 
ATOM     14  O   UNL     1      -1.006  -9.523   1.170  0.00  0.00    -0.273 OA
ATOM     15  H   UNL     1       0.546 -11.837   2.753  0.00  0.00    +0.155 HD
BRANCH  12  20
ATOM     16  C   UNL     1      -5.598 -12.570   3.918  0.00  0.00    +0.044 C 
ATOM     17  C   UNL     1      -4.190 -12.212   3.518  0.00  0.00    -0.050 A 
ATOM     18  C   UNL     1      -3.878 -10.906   3.186  0.00  0.00    +0.005 A 
ATOM     19  C   UNL     1      -2.589 -10.574   2.818  0.00  0.00    +0.024 A 
ATOM     20  C   UNL     1      -1.605 -11.553   2.782  0.00  0.00    +0.036 A 
ATOM     21  C   UNL     1      -1.922 -12.865   3.110  0.00  0.00    -0.029 A 
ATOM     22  C   UNL     1      -3.212 -13.189   3.483  0.00  0.00    +0.008 A 
ATOM     23  C   UNL     1      -0.859 -13.932   3.066  0.00  0.00    +0.045 C 
ENDBRANCH  12  20
ENDBRANCH  11  13
ENDBRANCH   1  11
BRANCH   9  24
ATOM     24  S   UNL     1       1.209  -2.771  -1.715  0.00  0.00    -0.100 S 
BRANCH  24  25
ATOM     25  C   UNL     1       1.203  -2.177  -0.001  0.00  0.00    +0.111 C 
BRANCH  25  26
ATOM     26  C   UNL     1       1.177  -0.670   0.009  0.00  0.00    -0.037 A 
ATOM     27  C   UNL     1      -0.033  -0.000   0.016  0.00  0.00    +0.006 A 
ATOM     28  C   UNL     1      -0.058   1.382   0.025  0.00  0.00    +0.020 A 
ATOM     29  C   UNL     1       1.128   2.095   0.026  0.00  0.00    +0.041 A 
ATOM     30  C   UNL     1       2.338   1.424   0.018  0.00  0.00    +0.020 A 
ATOM     31  C   UNL     1       2.361   0.042   0.009  0.00  0.00    +0.006 A 
ATOM     32 CL   UNL     1       1.097   3.830   0.036  0.00  0.00    -0.084 Cl
ENDBRANCH  25  26
ENDBRANCH  24  25
ENDBRANCH   9  24
TORSDOF 6
