REMARK  Name = ZINC32105656
REMARK  5 active torsions:
REMARK  status: ('A' for Active; 'I' for Inactive)
REMARK    1  A    between atoms: C_1  and  C_2
REMARK    2  A    between atoms: C_5  and  C_8
REMARK    3  A    between atoms: N_13  and  C_21
REMARK    4  A    between atoms: C_16  and  O_20
REMARK    5  A    between atoms: N_18  and  C_19
REMARK                            x       y       z     vdW  Elec       q    Type
REMARK                         _______ _______ _______ _____ _____    ______ ____
ROOT
ATOM      1  C   UNL     1       1.398   4.453   0.596  0.00  0.00    +0.112 C 
ATOM      2  C   UNL     1       0.673   3.498  -0.373  0.00  0.00    +0.086 C 
ATOM      3  C   UNL     1      -0.807   3.390   0.053  0.00  0.00    +0.118 C 
ATOM      4  N   UNL     1      -1.128   1.960   0.018  0.00  0.00    -0.294 N 
ATOM      5  C   UNL     1      -0.014   1.209   0.009  0.00  0.00    +0.264 C 
ATOM      6  O   UNL     1       0.002  -0.004   0.002  0.00  0.00    -0.271 OA
ATOM      7  C   UNL     1       1.214   2.087   0.002  0.00  0.00    +0.214 C 
ATOM      8  N   UNL     1       1.701   2.263   1.393  0.00  0.00    -0.216 NA
ATOM      9  N   UNL     1       2.301   3.603   1.404  0.00  0.00    -0.235 NA
ATOM     10  C   UNL     1       2.419   4.116   2.775  0.00  0.00    +0.124 C 
ATOM     11  H   UNL     1       0.940   2.202   2.053  0.00  0.00    +0.144 HD
ENDROOT
BRANCH   1  16
ATOM     12  C   UNL     1       4.459   8.355  -2.371  0.00  0.00    +0.044 C 
ATOM     13  C   UNL     1       3.661   7.337  -1.597  0.00  0.00    -0.050 A 
ATOM     14  C   UNL     1       2.445   7.690  -1.041  0.00  0.00    +0.003 A 
ATOM     15  C   UNL     1       1.713   6.756  -0.332  0.00  0.00    +0.005 A 
ATOM     16  C   UNL     1       2.196   5.471  -0.178  0.00  0.00    -0.028 A 
ATOM     17  C   UNL     1       3.414   5.119  -0.729  0.00  0.00    +0.005 A 
ATOM     18  C   UNL     1       4.144   6.051  -1.443  0.00  0.00    +0.003 A 
ENDBRANCH   1  16
BRANCH   4  19
ATOM     19  C   UNL     1      -2.489   1.419  -0.001  0.00  0.00    +0.076 C 
ATOM     20  C   UNL     1      -2.704   0.535   1.229  0.00  0.00    +0.022 C 
ATOM     21  C   UNL     1      -4.126  -0.029   1.209  0.00  0.00    +0.002 C 
ATOM     22  C   UNL     1      -4.326  -0.863  -0.058  0.00  0.00    +0.000 C 
ATOM     23  C   UNL     1      -4.111   0.020  -1.288  0.00  0.00    +0.002 C 
ATOM     24  C   UNL     1      -2.689   0.585  -1.269  0.00  0.00    +0.022 C 
ENDBRANCH   4  19
BRANCH   7  25
ATOM     25  O   UNL     1       2.229   1.610  -0.884  0.00  0.00    -0.366 OA
ATOM     26  H   UNL     1       2.686   0.624  -0.717  0.00  0.00    +0.212 HD
ENDBRANCH   7  25
TORSDOF 3
