REMARK  Name = ZINC16886246
REMARK  8 active torsions:
REMARK  status: ('A' for Active; 'I' for Inactive)
REMARK    1  A    between atoms: C_1  and  C_2
REMARK    2  A    between atoms: C_4  and  C_19
REMARK    3  A    between atoms: C_5  and  C_9
REMARK    4  A    between atoms: C_6  and  C_8
REMARK    5  A    between atoms: C_9  and  C_10
REMARK    6  A    between atoms: C_11  and  C_18
REMARK    7  A    between atoms: C_13  and  C_17
REMARK    8  A    between atoms: C_15  and  O_16
REMARK                            x       y       z     vdW  Elec       q    Type
REMARK                         _______ _______ _______ _____ _____    ______ ____
ROOT
ATOM      1  C   UNL     1       3.249   1.974  -0.135  0.00  0.00    +0.078 C 
ENDROOT
BRANCH   1   6
ATOM      2  C   UNL     1       5.905   3.163  -5.127  0.00  0.00    +0.044 C 
ATOM      3  C   UNL     1       5.213   2.853  -3.825  0.00  0.00    -0.050 A 
ATOM      4  C   UNL     1       4.574   3.860  -3.126  0.00  0.00    +0.007 A 
ATOM      5  C   UNL     1       3.938   3.575  -1.931  0.00  0.00    -0.046 A 
ATOM      6  C   UNL     1       3.942   2.284  -1.437  0.00  0.00    -0.037 A 
ATOM      7  C   UNL     1       4.586   1.279  -2.134  0.00  0.00    -0.046 A 
ATOM      8  C   UNL     1       5.218   1.562  -3.330  0.00  0.00    +0.007 A 
ATOM      9  C   UNL     1       4.595  -0.127  -1.591  0.00  0.00    +0.044 C 
ATOM     10  C   UNL     1       3.241   4.672  -1.169  0.00  0.00    +0.044 C 
ENDBRANCH   1   6
BRANCH   1  11
ATOM     11  C   UNL     1       1.895   1.375  -0.417  0.00  0.00    +0.039 A 
ATOM     12  C   UNL     1       1.493   0.208   0.206  0.00  0.00    +0.049 A 
ATOM     13  N   UNL     1       0.296  -0.289  -0.066  0.00  0.00    -0.237 NA
ATOM     14  C   UNL     1      -0.511   0.312  -0.917  0.00  0.00    +0.130 A 
ATOM     15  N   UNL     1      -0.168   1.426  -1.531  0.00  0.00    -0.198 NA
ATOM     16  C   UNL     1       1.016   1.985  -1.311  0.00  0.00    +0.219 A 
ATOM     17  C   UNL     1      -1.864  -0.291  -1.194  0.00  0.00    +0.088 C 
ATOM     18  C   UNL     1       2.406  -0.489   1.181  0.00  0.00    +0.066 C 
BRANCH  16  19
ATOM     19  O   UNL     1       1.365   3.131  -1.945  0.00  0.00    -0.492 OA
ATOM     20  H   UNL     1       1.120   3.935  -1.467  0.00  0.00    +0.294 HD
ENDBRANCH  16  19
ENDBRANCH   1  11
TORSDOF 3
