REMARK  Name = ZINC08932013
REMARK  9 active torsions:
REMARK  status: ('A' for Active; 'I' for Inactive)
REMARK    1  A    between atoms: C_1  and  C_2
REMARK    2  A    between atoms: C_2  and  O_3
REMARK    3  A    between atoms: O_3  and  C_4
REMARK    4  A    between atoms: C_4  and  C_6
REMARK    5  A    between atoms: C_7  and  C_27
REMARK    6  A    between atoms: C_11  and  N_17
REMARK    7  A    between atoms: C_12  and  C_16
REMARK    8  A    between atoms: C_18  and  C_20
REMARK    9  A    between atoms: C_20  and  C_21
REMARK                            x       y       z     vdW  Elec       q    Type
REMARK                         _______ _______ _______ _____ _____    ______ ____
ROOT
ATOM      1  C   UNL     1       1.203  -2.361  -2.677  0.00  0.00    +0.119 A 
ATOM      2  C   UNL     1       1.468  -3.650  -2.993  0.00  0.00    +0.047 A 
ATOM      3  N   UNL     1       2.236  -3.958  -4.077  0.00  0.00    -0.257 N 
ATOM      4  C   UNL     1       2.575  -5.213  -4.501  0.00  0.00    +0.281 A 
ATOM      5  O   UNL     1       2.180  -6.193  -3.890  0.00  0.00    -0.265 OA
ATOM      6  C   UNL     1       3.376  -5.372  -5.639  0.00  0.00    +0.120 A 
ATOM      7  C   UNL     1       3.818  -4.257  -6.325  0.00  0.00    +0.068 A 
ATOM      8  N   UNL     1       3.468  -3.050  -5.882  0.00  0.00    -0.226 NA
ATOM      9  C   UNL     1       2.719  -2.910  -4.819  0.00  0.00    +0.181 A 
ATOM     10  S   UNL     1       2.069  -1.486  -3.971  0.00  0.00    -0.042 S 
ATOM     11  C   UNL     1       4.681  -4.403  -7.552  0.00  0.00    +0.068 C 
ATOM     12  C   UNL     1       0.907  -4.757  -2.138  0.00  0.00    +0.065 C 
ENDROOT
BRANCH   6  13
ATOM     13  N   UNL     1       3.728  -6.659  -6.081  0.00  0.00    -0.280 N 
ATOM     14  C   UNL     1       4.389  -7.497  -5.257  0.00  0.00    +0.218 C 
ATOM     15  O   UNL     1       4.758  -7.111  -4.168  0.00  0.00    -0.275 OA
ATOM     16  H   UNL     1       3.496  -6.944  -6.979  0.00  0.00    +0.155 HD
BRANCH  14  17
ATOM     17  C   UNL     1       4.670  -8.913  -5.690  0.00  0.00    +0.099 C 
BRANCH  17  18
ATOM     18  C   UNL     1       5.426  -9.645  -4.579  0.00  0.00    -0.002 C 
ATOM     19  C   UNL     1       4.528  -9.768  -3.346  0.00  0.00    +0.004 C 
ATOM     20  C   UNL     1       5.285 -10.500  -2.236  0.00  0.00    +0.000 C 
ATOM     21  C   UNL     1       5.679 -11.896  -2.722  0.00  0.00    +0.000 C 
ATOM     22  C   UNL     1       6.576 -11.773  -3.955  0.00  0.00    +0.000 C 
ATOM     23  C   UNL     1       5.820 -11.041  -5.065  0.00  0.00    +0.004 C 
ENDBRANCH  17  18
ENDBRANCH  14  17
ENDBRANCH   6  13
BRANCH   1  24
ATOM     24  C   UNL     1       0.408  -1.824  -1.565  0.00  0.00    +0.348 C 
ATOM     25  O   UNL     1      -0.200  -2.579  -0.832  0.00  0.00    -0.244 OA
BRANCH  24  26
ATOM     26  O   UNL     1       0.353  -0.493  -1.358  0.00  0.00    -0.461 OA
BRANCH  26  28
ATOM     27  C   UNL     1      -0.381   1.487  -0.182  0.00  0.00    +0.048 C 
ATOM     28  C   UNL     1      -0.439  -0.040  -0.258  0.00  0.00    +0.229 C 
ENDBRANCH  26  28
ENDBRANCH  24  26
ENDBRANCH   1  24
TORSDOF 6
