REMARK  Name = ZINC46902458
REMARK  12 active torsions:
REMARK  status: ('A' for Active; 'I' for Inactive)
REMARK    1  A    between atoms: C_1  and  C_2
REMARK    2  A    between atoms: C_2  and  C_3
REMARK    3  A    between atoms: C_2  and  C_4
REMARK    4  A    between atoms: C_2  and  O_5
REMARK    5  A    between atoms: O_5  and  C_6
REMARK    6  A    between atoms: C_11  and  N_14
REMARK    7  A    between atoms: N_17  and  C_18
REMARK    8  A    between atoms: N_17  and  C_19
REMARK    9  A    between atoms: C_19  and  C_20
REMARK   10  A    between atoms: C_23  and  N_26
REMARK   11  A    between atoms: N_26  and  C_27
REMARK   12  A    between atoms: N_26  and  C_28
REMARK                            x       y       z     vdW  Elec       q    Type
REMARK                         _______ _______ _______ _____ _____    ______ ____
ROOT
ATOM      1  N   UNL     1       5.126  -3.322  -4.256  0.00  0.00    -0.296 N 
ATOM      2  C   UNL     1       6.220  -3.230  -5.038  0.00  0.00    +0.302 C 
ATOM      3  O   UNL     1       6.522  -2.164  -5.539  0.00  0.00    -0.253 OA
ATOM      4  N   UNL     1       6.980  -4.320  -5.264  0.00  0.00    -0.284 N 
ATOM      5  C   UNL     1       6.617  -5.604  -4.660  0.00  0.00    +0.134 C 
ATOM      6  H   UNL     1       4.886  -4.172  -3.857  0.00  0.00    +0.151 HD
ENDROOT
BRANCH   1  12
ATOM      7  C   UNL     1       1.952  -0.085  -1.337  0.00  0.00    +0.403 C 
ATOM      8  O   UNL     1       2.488   0.619  -0.503  0.00  0.00    -0.226 OA
ATOM      9  N   UNL     1       2.641  -0.485  -2.424  0.00  0.00    -0.267 N 
ATOM     10  C   UNL     1       2.005  -1.331  -3.443  0.00  0.00    +0.113 C 
ATOM     11  C   UNL     1       2.874  -2.573  -3.666  0.00  0.00    +0.041 C 
ATOM     12  C   UNL     1       4.300  -2.137  -4.011  0.00  0.00    +0.077 C 
ATOM     13  C   UNL     1       4.888  -1.339  -2.845  0.00  0.00    +0.041 C 
ATOM     14  C   UNL     1       4.040  -0.078  -2.616  0.00  0.00    +0.113 C 
BRANCH   7  15
ATOM     15  O   UNL     1       0.671  -0.465  -1.174  0.00  0.00    -0.445 OA
BRANCH  15  17
ATOM     16  C   UNL     1      -0.019   1.526   0.010  0.00  0.00    +0.055 C 
ATOM     17  C   UNL     1       0.002  -0.004   0.002  0.00  0.00    +0.107 C 
ATOM     18  C   UNL     1       0.742  -0.511   1.242  0.00  0.00    +0.055 C 
ATOM     19  C   UNL     1      -1.433  -0.534   0.013  0.00  0.00    +0.055 C 
ENDBRANCH  15  17
ENDBRANCH   7  15
ENDBRANCH   1  12
BRANCH   4  20
ATOM     20  C   UNL     1       8.170  -4.220  -6.114  0.00  0.00    +0.144 C 
BRANCH  20  21
ATOM     21  C   UNL     1       9.366  -3.873  -5.265  0.00  0.00    -0.030 A 
ATOM     22  C   UNL     1       9.691  -2.547  -5.040  0.00  0.00    +0.007 A 
ATOM     23  C   UNL     1      10.786  -2.226  -4.263  0.00  0.00    +0.023 A 
ATOM     24  C   UNL     1      11.561  -3.235  -3.706  0.00  0.00    +0.029 A 
ATOM     25  C   UNL     1      11.232  -4.565  -3.933  0.00  0.00    +0.023 A 
ATOM     26  C   UNL     1      10.132  -4.880  -4.707  0.00  0.00    +0.007 A 
BRANCH  24  27
ATOM     27  N   UNL     1      12.670  -2.913  -2.920  0.00  0.00    -0.336 N 
ATOM     28  C   UNL     1      13.016  -1.510  -2.681  0.00  0.00    +0.129 C 
ATOM     29  C   UNL     1      13.486  -3.979  -2.333  0.00  0.00    +0.129 C 
ENDBRANCH  24  27
ENDBRANCH  20  21
ENDBRANCH   4  20
TORSDOF 6
