REMARK  Name = ZINC41004895
REMARK  11 active torsions:
REMARK  status: ('A' for Active; 'I' for Inactive)
REMARK    1  A    between atoms: C_1  and  C_2
REMARK    2  A    between atoms: C_2  and  O_3
REMARK    3  A    between atoms: O_3  and  C_4
REMARK    4  A    between atoms: C_5  and  O_28
REMARK    5  A    between atoms: C_7  and  C_11
REMARK    6  A    between atoms: C_13  and  C_25
REMARK    7  A    between atoms: C_14  and  C_24
REMARK    8  A    between atoms: C_19  and  S_21
REMARK    9  A    between atoms: S_21  and  C_22
REMARK   10  A    between atoms: C_22  and  C_23
REMARK   11  A    between atoms: O_28  and  C_29
REMARK                            x       y       z     vdW  Elec       q    Type
REMARK                         _______ _______ _______ _____ _____    ______ ____
ROOT
ATOM      1  C   UNL     1       1.077  -5.962  -1.884  0.00  0.00    +0.177 C 
ATOM      2  C   UNL     1      -0.152  -6.524  -1.220  0.00  0.00    +0.060 C 
ATOM      3  C   UNL     1      -1.119  -7.166  -1.893  0.00  0.00    +0.018 C 
ATOM      4  N   UNL     1      -1.054  -7.372  -3.249  0.00  0.00    -0.287 N 
ATOM      5  C   UNL     1       0.162  -7.131  -3.874  0.00  0.00    +0.219 A 
ATOM      6  N   UNL     1       1.171  -6.477  -3.248  0.00  0.00    -0.220 N 
ATOM      7  N   UNL     1       2.231  -6.419  -4.151  0.00  0.00    -0.141 NA
ATOM      8  C   UNL     1       1.825  -7.017  -5.250  0.00  0.00    +0.210 A 
ATOM      9  N   UNL     1       0.567  -7.447  -5.075  0.00  0.00    -0.187 NA
ATOM     10  C   UNL     1      -2.316  -7.679  -1.135  0.00  0.00    +0.061 C 
ATOM     11  H   UNL     1      -1.827  -7.675  -3.750  0.00  0.00    +0.155 HD
ENDROOT
BRANCH   1  15
ATOM     12  C   UNL     1       0.814  -1.694  -1.988  0.00  0.00    +0.176 A 
ATOM     13  C   UNL     1       1.869  -2.311  -1.321  0.00  0.00    +0.163 A 
ATOM     14  C   UNL     1       1.951  -3.694  -1.290  0.00  0.00    +0.055 A 
ATOM     15  C   UNL     1       0.986  -4.458  -1.920  0.00  0.00    -0.014 A 
ATOM     16  C   UNL     1      -0.061  -3.847  -2.582  0.00  0.00    +0.025 A 
ATOM     17  C   UNL     1      -0.153  -2.466  -2.612  0.00  0.00    +0.063 A 
ATOM     18 BR   UNL     1      -1.592  -1.633  -3.513  0.00  0.00    -0.046 Br
BRANCH  13  19
ATOM     19  O   UNL     1       2.817  -1.558  -0.703  0.00  0.00    -0.491 OA
ATOM     20  C   UNL     1       3.871  -2.260  -0.038  0.00  0.00    +0.277 C 
ENDBRANCH  13  19
BRANCH  12  21
ATOM     21  O   UNL     1       0.730  -0.338  -2.022  0.00  0.00    -0.487 OA
BRANCH  21  23
ATOM     22  C   UNL     1       0.021   1.810  -1.169  0.00  0.00    +0.048 C 
ATOM     23  C   UNL     1       0.008   0.294  -0.962  0.00  0.00    +0.226 C 
ENDBRANCH  21  23
ENDBRANCH  12  21
ENDBRANCH   1  15
BRANCH   2  24
ATOM     24  C   UNL     1      -0.294  -6.367   0.179  0.00  0.00    +0.241 C 
ATOM     25  O   UNL     1       0.377  -7.041   0.939  0.00  0.00    -0.271 OA
ATOM     26  N   UNL     1      -1.173  -5.470   0.670  0.00  0.00    -0.325 N 
ATOM     27  H   UNL     1      -1.707  -4.933   0.065  0.00  0.00    +0.145 HD
ATOM     28  H   UNL     1      -1.270  -5.362   1.629  0.00  0.00    +0.145 HD
ENDBRANCH   2  24
BRANCH   8  29
ATOM     29  S   UNL     1       2.781  -7.222  -6.717  0.00  0.00    -0.085 S 
BRANCH  29  30
ATOM     30  C   UNL     1       1.671  -8.110  -7.843  0.00  0.00    +0.074 C 
ATOM     31  C   UNL     1       2.385  -8.357  -9.174  0.00  0.00    +0.016 C 
ENDBRANCH  29  30
ENDBRANCH   8  29
TORSDOF 7
