REMARK  Name = ZINC32467543
REMARK  6 active torsions:
REMARK  status: ('A' for Active; 'I' for Inactive)
REMARK    1  A    between atoms: C_1  and  C_2
REMARK    2  A    between atoms: C_5  and  C_7
REMARK    3  A    between atoms: C_9  and  C_25
REMARK    4  A    between atoms: C_10  and  C_24
REMARK    5  A    between atoms: C_17  and  C_18
REMARK    6  A    between atoms: N_27  and  C_28
REMARK                            x       y       z     vdW  Elec       q    Type
REMARK                         _______ _______ _______ _____ _____    ______ ____
ROOT
ATOM      1  C   UNL     1       2.264  -1.587  -1.995  0.00  0.00    +0.195 C 
ATOM      2  C   UNL     1       2.002  -0.266  -1.309  0.00  0.00    +0.066 C 
ATOM      3  C   UNL     1       2.957   0.217  -0.459  0.00  0.00    +0.052 C 
ATOM      4  N   UNL     1       4.074  -0.465  -0.240  0.00  0.00    -0.228 NA
ATOM      5  C   UNL     1       4.369  -1.613  -0.797  0.00  0.00    +0.178 A 
ATOM      6  N   UNL     1       3.551  -2.271  -1.687  0.00  0.00    -0.272 N 
ATOM      7  C   UNL     1       3.961  -3.441  -2.192  0.00  0.00    +0.268 A 
ATOM      8  O   UNL     1       3.271  -4.059  -2.982  0.00  0.00    -0.266 OA
ATOM      9  C   UNL     1       5.267  -3.957  -1.766  0.00  0.00    +0.081 A 
ATOM     10  C   UNL     1       5.902  -5.103  -2.126  0.00  0.00    +0.031 C 
ATOM     11  S   UNL     1       5.796  -2.670  -0.646  0.00  0.00    -0.046 S 
ATOM     12  C   UNL     1       2.736   1.534   0.241  0.00  0.00    +0.066 C 
ENDROOT
BRANCH   1  17
ATOM     13  C   UNL     1       3.550  -0.122  -6.647  0.00  0.00    +0.086 C 
ATOM     14  C   UNL     1       2.767  -0.718  -5.506  0.00  0.00    +0.102 A 
ATOM     15  C   UNL     1       1.563  -1.310  -5.603  0.00  0.00    +0.045 A 
ATOM     16  C   UNL     1       1.205  -1.725  -4.300  0.00  0.00    +0.047 A 
ATOM     17  C   UNL     1       2.207  -1.355  -3.483  0.00  0.00    +0.133 A 
ATOM     18  O   UNL     1       3.152  -0.748  -4.220  0.00  0.00    -0.462 OA
ENDBRANCH   1  17
BRANCH  10  19
ATOM     19  C   UNL     1       5.140  -6.210  -2.717  0.00  0.00    +0.014 A 
ATOM     20  C   UNL     1       3.732  -6.555  -2.465  0.00  0.00    +0.049 A 
ATOM     21  C   UNL     1       3.474  -7.631  -3.223  0.00  0.00    +0.195 A 
ATOM     22  O   UNL     1       4.583  -7.972  -3.898  0.00  0.00    -0.470 OA
ATOM     23  C   UNL     1       5.591  -7.139  -3.612  0.00  0.00    +0.202 A 
ENDBRANCH  10  19
BRANCH   2  24
ATOM     24  C   UNL     1       0.813   0.448  -1.542  0.00  0.00    +0.248 C 
ATOM     25  O   UNL     1      -0.261  -0.041  -1.239  0.00  0.00    -0.270 OA
ATOM     26  N   UNL     1       0.862   1.673  -2.102  0.00  0.00    -0.282 N 
ATOM     27  H   UNL     1       1.833   2.158  -2.280  0.00  0.00    +0.155 HD
BRANCH  26  28
ATOM     28  C   UNL     1      -0.322   2.328  -2.455  0.00  0.00    +0.034 A 
ATOM     29  C   UNL     1      -1.502   2.046  -1.779  0.00  0.00    +0.023 A 
ATOM     30  C   UNL     1      -2.669   2.698  -2.127  0.00  0.00    +0.002 A 
ATOM     31  C   UNL     1      -2.665   3.623  -3.155  0.00  0.00    +0.000 A 
ATOM     32  C   UNL     1      -1.493   3.902  -3.834  0.00  0.00    +0.002 A 
ATOM     33  C   UNL     1      -0.322   3.258  -3.487  0.00  0.00    +0.023 A 
ENDBRANCH  26  28
ENDBRANCH   2  24
TORSDOF 4
