REMARK  Name = ZINC54928259
REMARK  1 active torsions:
REMARK  status: ('A' for Active; 'I' for Inactive)
REMARK    1  A    between atoms: C_18  and  O_23
REMARK                            x       y       z     vdW  Elec       q    Type
REMARK                         _______ _______ _______ _____ _____    ______ ____
ROOT
ATOM      1  C   UNL     1      -0.019   1.525   0.010  0.00  0.00    +0.002 C 
ATOM      2  C   UNL     1       1.419   2.050  -0.001  0.00  0.00    +0.003 C 
ATOM      3  C   UNL     1       2.145   1.552   1.250  0.00  0.00    +0.033 C 
ATOM      4  C   UNL     1       2.158   0.027   1.271  0.00  0.00    +0.139 C 
ATOM      5  C   UNL     1       0.728  -0.519   1.248  0.00  0.00    +0.104 C 
ATOM      6  C   UNL     1       0.002  -0.004   0.002  0.00  0.00    +0.025 C 
ATOM      7  N   UNL     1       0.810  -1.990   1.161  0.00  0.00    -0.302 N 
ATOM      8  C   UNL     1       1.650  -2.565   0.097  0.00  0.00    +0.135 C 
ATOM      9  C   UNL     1       3.031  -1.904   0.153  0.00  0.00    +0.179 C 
ATOM     10  O   UNL     1       2.867  -0.482   0.142  0.00  0.00    -0.373 OA
ATOM     11  C   UNL     1       0.121  -2.801   2.048  0.00  0.00    +0.162 A 
ATOM     12  N   UNL     1      -0.667  -2.444   3.039  0.00  0.00    -0.229 NA
ATOM     13  C   UNL     1      -1.270  -3.341   3.817  0.00  0.00    +0.056 A 
ATOM     14  C   UNL     1      -1.005  -4.635   3.505  0.00  0.00    +0.042 A 
ATOM     15  S   UNL     1       0.083  -4.484   2.117  0.00  0.00    -0.054 S 
ATOM     16  C   UNL     1      -1.524  -5.859   4.180  0.00  0.00    +0.153 C 
ATOM     17  C   UNL     1      -2.708  -5.450   5.071  0.00  0.00    +0.037 C 
ATOM     18  C   UNL     1      -2.309  -4.220   5.890  0.00  0.00    +0.009 C 
ATOM     19  C   UNL     1      -2.191  -2.997   4.978  0.00  0.00    +0.056 C 
ENDROOT
BRANCH  16  20
ATOM     20  O   UNL     1      -1.961  -6.802   3.199  0.00  0.00    -0.387 OA
ATOM     21  H   UNL     1      -1.265  -7.087   2.591  0.00  0.00    +0.210 HD
ENDBRANCH  16  20
TORSDOF 1
