REMARK  Name = ZINC06618392
REMARK  1 active torsions:
REMARK  status: ('A' for Active; 'I' for Inactive)
REMARK    1  A    between atoms: C_4  and  C_7
REMARK                            x       y       z     vdW  Elec       q    Type
REMARK                         _______ _______ _______ _____ _____    ______ ____
ROOT
ATOM      1  C   UNL     1       3.511   0.808  -0.009  0.00  0.00    +0.156 C 
ATOM      2  C   UNL     1       3.932   2.207  -0.482  0.00  0.00    +0.128 C 
ATOM      3  C   UNL     1       5.378   2.436  -0.131  0.00  0.00    +0.145 C 
ATOM      4  O   UNL     1       6.255   2.058  -0.869  0.00  0.00    -0.297 OA
ATOM      5  C   UNL     1       5.715   3.145   1.161  0.00  0.00    +0.079 C 
ATOM      6  C   UNL     1       4.960   4.481   1.167  0.00  0.00    +0.036 C 
ATOM      7  C   UNL     1       3.504   4.231   0.899  0.00  0.00    -0.007 C 
ATOM      8  C   UNL     1       3.055   3.240   0.179  0.00  0.00    +0.019 C 
ATOM      9  N   UNL     1       1.663   3.101  -0.005  0.00  0.00    -0.287 N 
ATOM     10  C   UNL     1       1.209   1.785   0.000  0.00  0.00    +0.218 A 
ATOM     11  N   UNL     1       2.050   0.724  -0.009  0.00  0.00    -0.224 N 
ATOM     12  N   UNL     1       1.244  -0.417  -0.011  0.00  0.00    -0.156 NA
ATOM     13  C   UNL     1       0.002  -0.004   0.002  0.00  0.00    +0.247 A 
ATOM     14  N   UNL     1      -0.016   1.333   0.009  0.00  0.00    -0.201 NA
ATOM     15  H   UNL     1       1.071   3.860  -0.126  0.00  0.00    +0.155 HD
ENDROOT
BRANCH   1  19
ATOM     16  C   UNL     1       5.111  -2.137  -2.657  0.00  0.00    +0.000 A 
ATOM     17  C   UNL     1       5.446  -2.158  -1.316  0.00  0.00    +0.000 A 
ATOM     18  C   UNL     1       4.929  -1.204  -0.459  0.00  0.00    +0.006 A 
ATOM     19  C   UNL     1       4.075  -0.231  -0.943  0.00  0.00    -0.022 A 
ATOM     20  C   UNL     1       3.735  -0.213  -2.283  0.00  0.00    +0.006 A 
ATOM     21  C   UNL     1       4.258  -1.163  -3.141  0.00  0.00    +0.000 A 
ENDBRANCH   1  19
TORSDOF 1
