REMARK  Name = ZINC00931425
REMARK  11 active torsions:
REMARK  status: ('A' for Active; 'I' for Inactive)
REMARK    1  A    between atoms: C_1  and  C_2
REMARK    2  A    between atoms: C_6  and  C_8
REMARK    3  A    between atoms: C_8  and  C_9
REMARK    4  A    between atoms: C_9  and  N_10
REMARK    5  A    between atoms: N_10  and  C_11
REMARK    6  A    between atoms: C_11  and  C_13
REMARK    7  A    between atoms: C_11  and  C_20
REMARK    8  A    between atoms: N_15  and  C_19
REMARK    9  A    between atoms: C_17  and  C_18
REMARK   10  A    between atoms: N_22  and  C_23
REMARK   11  A    between atoms: C_29  and  C_31
REMARK                            x       y       z     vdW  Elec       q    Type
REMARK                         _______ _______ _______ _____ _____    ______ ____
ROOT
ATOM      1  N   UNL     1       1.102   1.250  -2.626  0.00  0.00    -0.282 N 
ATOM      2  C   UNL     1      -0.019   0.553  -2.353  0.00  0.00    +0.261 C 
ATOM      3  O   UNL     1      -0.508  -0.163  -3.201  0.00  0.00    -0.271 OA
ENDROOT
BRANCH   2   4
ATOM      4  C   UNL     1      -0.665   0.664  -0.996  0.00  0.00    +0.296 C 
ATOM      5  C   UNL     1       0.109  -0.191   0.016  0.00  0.00    +0.283 C 
ATOM      6  O   UNL     1      -0.536  -0.073   1.289  0.00  0.00    -0.484 OA
ATOM      7  C   UNL     1      -1.892  -0.196   1.300  0.00  0.00    +0.162 A 
ATOM      8  C   UNL     1      -2.543  -0.450   2.499  0.00  0.00    +0.049 A 
ATOM      9  C   UNL     1      -3.919  -0.571   2.527  0.00  0.00    +0.004 A 
ATOM     10  C   UNL     1      -4.651  -0.440   1.362  0.00  0.00    +0.004 A 
ATOM     11  C   UNL     1      -4.009  -0.189   0.164  0.00  0.00    +0.049 A 
ATOM     12  C   UNL     1      -2.628  -0.067   0.128  0.00  0.00    +0.163 A 
ATOM     13  O   UNL     1      -2.010   0.177  -1.059  0.00  0.00    -0.473 OA
ENDBRANCH   2   4
BRANCH   1  14
ATOM     14  C   UNL     1       1.739   2.051  -1.577  0.00  0.00    +0.113 C 
BRANCH  14  15
ATOM     15  C   UNL     1       1.099   3.439  -1.536  0.00  0.00    +0.054 C 
BRANCH  15  21
ATOM     16  C   UNL     1       4.737   6.675  -0.378  0.00  0.00    +0.044 C 
ATOM     17  C   UNL     1       3.553   5.840   0.036  0.00  0.00    -0.050 A 
ATOM     18  C   UNL     1       3.121   5.855   1.349  0.00  0.00    +0.003 A 
ATOM     19  C   UNL     1       2.035   5.090   1.729  0.00  0.00    +0.001 A 
ATOM     20  C   UNL     1       1.377   4.311   0.794  0.00  0.00    +0.004 A 
ATOM     21  C   UNL     1       1.812   4.292  -0.518  0.00  0.00    -0.046 A 
ATOM     22  C   UNL     1       2.899   5.058  -0.897  0.00  0.00    +0.007 A 
ENDBRANCH  15  21
ENDBRANCH  14  15
ENDBRANCH   1  14
BRANCH   1  23
ATOM     23  C   UNL     1       1.683   1.207  -3.970  0.00  0.00    +0.195 C 
BRANCH  23  24
ATOM     24  C   UNL     1       1.844   2.611  -4.492  0.00  0.00    +0.022 A 
ATOM     25  C   UNL     1       3.002   3.308  -4.561  0.00  0.00    +0.114 A 
ATOM     26  N   UNL     1       2.724   4.518  -5.088  0.00  0.00    -0.274 N 
ATOM     27  N   UNL     1       1.348   4.571  -5.345  0.00  0.00    -0.176 NA
ATOM     28  C   UNL     1       0.822   3.427  -4.987  0.00  0.00    +0.065 A 
ATOM     29  C   UNL     1      -0.635   3.054  -5.091  0.00  0.00    +0.068 C 
ATOM     30  C   UNL     1       3.689   5.590  -5.342  0.00  0.00    +0.172 C 
ENDBRANCH  23  24
BRANCH  23  31
ATOM     31  C   UNL     1       3.031   0.535  -3.913  0.00  0.00    +0.238 C 
ATOM     32  O   UNL     1       3.567   0.340  -2.842  0.00  0.00    -0.273 OA
ATOM     33  N   UNL     1       3.640   0.150  -5.052  0.00  0.00    -0.311 N 
ATOM     34  H   UNL     1       3.252   0.378  -5.911  0.00  0.00    +0.149 HD
BRANCH  33  35
ATOM     35  C   UNL     1       4.890  -0.612  -4.992  0.00  0.00    +0.073 C 
ATOM     36  C   UNL     1       6.070   0.352  -4.859  0.00  0.00    +0.022 C 
ATOM     37  C   UNL     1       7.375  -0.444  -4.797  0.00  0.00    +0.002 C 
ATOM     38  C   UNL     1       7.532  -1.267  -6.077  0.00  0.00    +0.000 C 
ATOM     39  C   UNL     1       6.351  -2.232  -6.210  0.00  0.00    +0.002 C 
ATOM     40  C   UNL     1       5.046  -1.436  -6.272  0.00  0.00    +0.022 C 
ENDBRANCH  33  35
ENDBRANCH  23  31
ENDBRANCH   1  23
TORSDOF 8
