REMARK  Name = ZINC39968015
REMARK  9 active torsions:
REMARK  status: ('A' for Active; 'I' for Inactive)
REMARK    1  A    between atoms: C_1  and  C_2
REMARK    2  A    between atoms: C_2  and  C_3
REMARK    3  A    between atoms: C_2  and  C_4
REMARK    4  A    between atoms: C_4  and  C_5
REMARK    5  A    between atoms: C_8  and  S_11
REMARK    6  A    between atoms: S_11  and  N_14
REMARK    7  A    between atoms: N_14  and  C_15
REMARK    8  A    between atoms: C_20  and  O_21
REMARK    9  A    between atoms: O_21  and  C_22
REMARK                            x       y       z     vdW  Elec       q    Type
REMARK                         _______ _______ _______ _____ _____    ______ ____
ROOT
ATOM      1  N   UNL     1      -3.700   1.832   5.696  0.00  0.00    -0.213 N 
ATOM      2  H   UNL     1      -3.815   2.766   5.933  0.00  0.00    +0.174 HD
ENDROOT
BRANCH   1   3
ATOM      3  C   UNL     1      -4.628   1.204   4.859  0.00  0.00    +0.093 A 
ATOM      4  C   UNL     1      -4.952  -0.126   5.067  0.00  0.00    +0.075 A 
ATOM      5  C   UNL     1      -5.873  -0.757   4.239  0.00  0.00    +0.138 A 
ATOM      6  C   UNL     1      -6.466  -0.033   3.196  0.00  0.00    +0.031 A 
ATOM      7  C   UNL     1      -6.138   1.304   2.990  0.00  0.00    +0.059 A 
ATOM      8  C   UNL     1      -5.225   1.923   3.822  0.00  0.00    +0.143 A 
ATOM      9  C   UNL     1      -7.377  -0.979   2.522  0.00  0.00    +0.028 A 
ATOM     10  C   UNL     1      -8.239  -0.881   1.435  0.00  0.00    +0.012 A 
ATOM     11  C   UNL     1      -8.973  -1.981   1.043  0.00  0.00    +0.001 A 
ATOM     12  C   UNL     1      -8.851  -3.179   1.730  0.00  0.00    +0.004 A 
ATOM     13  C   UNL     1      -7.999  -3.286   2.809  0.00  0.00    +0.047 A 
ATOM     14  C   UNL     1      -7.251  -2.189   3.218  0.00  0.00    +0.136 A 
ATOM     15  O   UNL     1      -6.360  -2.018   4.219  0.00  0.00    -0.455 OA
BRANCH   8  16
ATOM     16  O   UNL     1      -4.905   3.231   3.628  0.00  0.00    -0.493 OA
ATOM     17  C   UNL     1      -5.555   3.905   2.548  0.00  0.00    +0.277 C 
ENDBRANCH   8  16
ENDBRANCH   1   3
BRANCH   1  18
ATOM     18  S   UNL     1      -2.405   0.983   6.283  0.00  0.00    +0.072 S 
ATOM     19  O   UNL     1      -2.932  -0.181   6.906  0.00  0.00    -0.150 OA
ATOM     20  O   UNL     1      -1.589   1.915   6.977  0.00  0.00    -0.150 OA
BRANCH  18  24
ATOM     21  C   UNL     1      -0.004  -0.434   2.716  0.00  0.00    -0.047 A 
ATOM     22  C   UNL     1       0.274   0.790   3.295  0.00  0.00    +0.005 A 
ATOM     23  C   UNL     1      -0.460   1.223   4.384  0.00  0.00    +0.029 A 
ATOM     24  C   UNL     1      -1.471   0.431   4.894  0.00  0.00    +0.109 A 
ATOM     25  C   UNL     1      -1.750  -0.793   4.315  0.00  0.00    +0.029 A 
ATOM     26  C   UNL     1      -1.020  -1.223   3.224  0.00  0.00    +0.005 A 
BRANCH  21  27
ATOM     27  C   UNL     1       0.795  -0.906   1.529  0.00  0.00    +0.038 C 
BRANCH  27  29
ATOM     28  C   UNL     1       0.173   1.102   0.179  0.00  0.00    +0.007 C 
ATOM     29  C   UNL     1       0.125  -0.426   0.240  0.00  0.00    -0.013 C 
ATOM     30  C   UNL     1       0.865  -1.008  -0.966  0.00  0.00    +0.007 C 
ENDBRANCH  27  29
ENDBRANCH  21  27
ENDBRANCH  18  24
ENDBRANCH   1  18
TORSDOF 6
