REMARK  Name = ZINC01114643
REMARK  8 active torsions:
REMARK  status: ('A' for Active; 'I' for Inactive)
REMARK    1  A    between atoms: C_1  and  C_2
REMARK    2  A    between atoms: C_5  and  S_8
REMARK    3  A    between atoms: S_8  and  N_11
REMARK    4  A    between atoms: C_13  and  C_30
REMARK    5  A    between atoms: N_15  and  S_20
REMARK    6  A    between atoms: C_17  and  C_19
REMARK    7  A    between atoms: S_20  and  C_23
REMARK    8  A    between atoms: C_26  and  C_29
REMARK                            x       y       z     vdW  Elec       q    Type
REMARK                         _______ _______ _______ _____ _____    ______ ____
ROOT
ATOM      1  N   UNL     1      -2.974   4.678   4.925  0.00  0.00    -0.171 NA
ATOM      2  C   UNL     1      -4.165   5.304   4.335  0.00  0.00    +0.130 C 
ATOM      3  C   UNL     1      -3.727   6.167   3.145  0.00  0.00    +0.092 C 
ATOM      4  N   UNL     1      -2.614   7.026   3.574  0.00  0.00    -0.171 NA
ATOM      5  C   UNL     1      -1.423   6.400   4.164  0.00  0.00    +0.130 C 
ATOM      6  C   UNL     1      -1.863   5.537   5.358  0.00  0.00    +0.092 C 
ATOM      7  C   UNL     1      -0.694   4.668   5.826  0.00  0.00    +0.027 C 
ATOM      8  C   UNL     1      -3.268   5.265   1.998  0.00  0.00    +0.027 C 
ENDROOT
BRANCH   1   9
ATOM      9  S   UNL     1      -2.888   3.034   5.105  0.00  0.00    +0.061 S 
ATOM     10  O   UNL     1      -1.521   2.679   4.945  0.00  0.00    -0.153 OA
ATOM     11  O   UNL     1      -3.918   2.482   4.297  0.00  0.00    -0.153 OA
BRANCH   9  16
ATOM     12  C   UNL     1      -4.333   1.785  10.829  0.00  0.00    +0.044 C 
ATOM     13  C   UNL     1      -3.972   2.097   9.399  0.00  0.00    -0.050 A 
ATOM     14  C   UNL     1      -2.644   2.192   9.026  0.00  0.00    +0.005 A 
ATOM     15  C   UNL     1      -2.313   2.474   7.714  0.00  0.00    +0.029 A 
ATOM     16  C   UNL     1      -3.310   2.670   6.777  0.00  0.00    +0.106 A 
ATOM     17  C   UNL     1      -4.638   2.581   7.151  0.00  0.00    +0.029 A 
ATOM     18  C   UNL     1      -4.969   2.295   8.462  0.00  0.00    +0.005 A 
ENDBRANCH   9  16
ENDBRANCH   1   9
BRANCH   4  19
ATOM     19  S   UNL     1      -2.700   8.670   3.393  0.00  0.00    +0.061 S 
ATOM     20  O   UNL     1      -1.362   9.145   3.350  0.00  0.00    -0.153 OA
ATOM     21  O   UNL     1      -3.630   8.916   2.347  0.00  0.00    -0.153 OA
BRANCH  19  22
ATOM     22  C   UNL     1      -3.417   9.319   4.867  0.00  0.00    +0.106 A 
ATOM     23  C   UNL     1      -4.788   9.468   4.960  0.00  0.00    +0.029 A 
ATOM     24  C   UNL     1      -5.351   9.973   6.117  0.00  0.00    +0.005 A 
ATOM     25  C   UNL     1      -4.542  10.337   7.178  0.00  0.00    -0.050 A 
ATOM     26  C   UNL     1      -3.171  10.192   7.082  0.00  0.00    +0.005 A 
ATOM     27  C   UNL     1      -2.608   9.683   5.926  0.00  0.00    +0.029 A 
ATOM     28  C   UNL     1      -5.155  10.892   8.438  0.00  0.00    +0.044 C 
ENDBRANCH  19  22
ENDBRANCH   4  19
TORSDOF 4
