REMARK  Name = ZINC23135387
REMARK  3 active torsions:
REMARK  status: ('A' for Active; 'I' for Inactive)
REMARK    1  A    between atoms: C_4  and  C_7
REMARK    2  A    between atoms: C_7  and  C_9
REMARK    3  A    between atoms: C_7  and  N_16
REMARK                            x       y       z     vdW  Elec       q    Type
REMARK                         _______ _______ _______ _____ _____    ______ ____
ROOT
ATOM      1  N   UNL     1       3.737  -1.924   0.787  0.00  0.00    -0.289 NA
ATOM      2  C   UNL     1       2.869  -2.967   0.225  0.00  0.00    +0.104 C 
ATOM      3  C   UNL     1       2.790  -4.144   1.204  0.00  0.00    +0.122 C 
ATOM      4  N   UNL     1       4.159  -4.579   1.522  0.00  0.00    -0.312 N 
ATOM      5  C   UNL     1       5.127  -3.563   1.961  0.00  0.00    +0.122 C 
ATOM      6  C   UNL     1       5.114  -2.410   0.953  0.00  0.00    +0.104 C 
ATOM      7  C   UNL     1       4.524  -5.906   1.412  0.00  0.00    +0.135 A 
ATOM      8  C   UNL     1       4.482  -6.761   2.531  0.00  0.00    +0.078 A 
ATOM      9  C   UNL     1       4.127  -6.604   3.888  0.00  0.00    +0.147 A 
ATOM     10  N   UNL     1       4.280  -7.749   4.490  0.00  0.00    -0.180 NA
ATOM     11  N   UNL     1       4.737  -8.706   3.575  0.00  0.00    -0.260 N 
ATOM     12  H   UNL     1       4.929  -9.636   3.773  0.00  0.00    +0.191 HD
ATOM     13  C   UNL     1       4.867  -8.105   2.358  0.00  0.00    +0.161 A 
ATOM     14  N   UNL     1       5.252  -8.513   1.150  0.00  0.00    -0.216 NA
ATOM     15  C   UNL     1       5.274  -7.677   0.135  0.00  0.00    +0.225 A 
ATOM     16  N   UNL     1       4.918  -6.409   0.247  0.00  0.00    -0.220 NA
ENDROOT
BRANCH   1  17
ATOM     17  C   UNL     1       3.703  -0.710  -0.038  0.00  0.00    +0.117 C 
BRANCH  17  18
ATOM     18  C   UNL     1       2.286  -0.207  -0.135  0.00  0.00    -0.026 A 
ATOM     19  C   UNL     1       1.496  -0.145   0.998  0.00  0.00    +0.007 A 
ATOM     20  C   UNL     1       0.196   0.315   0.910  0.00  0.00    +0.020 A 
ATOM     21  C   UNL     1      -0.315   0.714  -0.312  0.00  0.00    +0.041 A 
ATOM     22  C   UNL     1       0.475   0.651  -1.446  0.00  0.00    +0.020 A 
ATOM     23  C   UNL     1       1.777   0.196  -1.355  0.00  0.00    +0.007 A 
ATOM     24 CL   UNL     1      -1.948   1.292  -0.423  0.00  0.00    -0.084 Cl
ENDBRANCH  17  18
BRANCH  17  28
ATOM     25  C   UNL     1       6.158   2.296   1.746  0.00  0.00    +0.000 A 
ATOM     26  C   UNL     1       6.246   2.048   0.389  0.00  0.00    +0.000 A 
ATOM     27  C   UNL     1       5.452   1.075  -0.188  0.00  0.00    +0.005 A 
ATOM     28  C   UNL     1       4.570   0.350   0.591  0.00  0.00    -0.026 A 
ATOM     29  C   UNL     1       4.483   0.598   1.948  0.00  0.00    +0.005 A 
ATOM     30  C   UNL     1       5.276   1.572   2.526  0.00  0.00    +0.000 A 
ENDBRANCH  17  28
ENDBRANCH   1  17
TORSDOF 3
