REMARK  Name = ZINC42032661
REMARK  4 active torsions:
REMARK  status: ('A' for Active; 'I' for Inactive)
REMARK    1  A    between atoms: C_1  and  C_2
REMARK    2  A    between atoms: C_15  and  C_17
REMARK    3  A    between atoms: C_22  and  N_23
REMARK    4  A    between atoms: N_23  and  C_24
REMARK                            x       y       z     vdW  Elec       q    Type
REMARK                         _______ _______ _______ _____ _____    ______ ____
ROOT
ATOM      1  C   UNL     1      -0.062   1.504   0.035  0.00  0.00    +0.008 C 
ATOM      2  C   UNL     1      -0.028  -0.025   0.016  0.00  0.00    -0.008 C 
ATOM      3  C   UNL     1       0.702  -0.505  -1.243  0.00  0.00    +0.022 C 
ATOM      4  C   UNL     1       0.726  -2.036  -1.274  0.00  0.00    +0.108 C 
ATOM      5  N   UNL     1       1.294  -2.535  -0.012  0.00  0.00    -0.294 N 
ATOM      6  C   UNL     1       0.703  -2.067   1.246  0.00  0.00    +0.080 C 
ATOM      7  C   UNL     1       0.712  -0.535   1.252  0.00  0.00    +0.012 C 
ATOM      8  C   UNL     1       0.039  -0.035   2.529  0.00  0.00    +0.005 C 
ATOM      9  C   UNL     1       0.825  -0.545   3.740  0.00  0.00    +0.000 C 
ATOM     10  C   UNL     1       0.854  -2.074   3.733  0.00  0.00    +0.002 C 
ATOM     11  C   UNL     1       1.507  -2.579   2.440  0.00  0.00    +0.023 C 
ATOM     12  C   UNL     1       2.329  -3.397  -0.012  0.00  0.00    +0.249 C 
ATOM     13  O   UNL     1       2.854  -3.718   1.037  0.00  0.00    -0.270 OA
ENDROOT
BRANCH  12  14
ATOM     14  C   UNL     1       2.826  -3.953  -1.284  0.00  0.00    +0.058 A 
ATOM     15  C   UNL     1       1.950  -4.603  -2.158  0.00  0.00    +0.015 A 
ATOM     16  C   UNL     1       2.421  -5.119  -3.345  0.00  0.00    +0.001 A 
ATOM     17  C   UNL     1       3.760  -4.998  -3.679  0.00  0.00    +0.002 A 
ATOM     18  C   UNL     1       4.638  -4.359  -2.828  0.00  0.00    +0.023 A 
ATOM     19  C   UNL     1       4.181  -3.826  -1.629  0.00  0.00    +0.039 A 
BRANCH  19  20
ATOM     20  N   UNL     1       5.061  -3.177  -0.773  0.00  0.00    -0.346 N 
ATOM     21  C   UNL     1       6.449  -2.951  -1.183  0.00  0.00    +0.125 C 
ATOM     22  H   UNL     1       4.757  -2.874   0.097  0.00  0.00    +0.146 HD
ENDBRANCH  19  20
ENDBRANCH  12  14
TORSDOF 2
