REMARK  Name = ZINC19502089
REMARK  10 active torsions:
REMARK  status: ('A' for Active; 'I' for Inactive)
REMARK    1  A    between atoms: C_1  and  C_2
REMARK    2  A    between atoms: C_2  and  C_3
REMARK    3  A    between atoms: C_3  and  C_4
REMARK    4  A    between atoms: C_7  and  C_11
REMARK    5  A    between atoms: C_7  and  O_31
REMARK    6  A    between atoms: C_11  and  N_12
REMARK    7  A    between atoms: C_19  and  C_30
REMARK    8  A    between atoms: C_20  and  C_29
REMARK    9  A    between atoms: N_21  and  C_22
REMARK   10  A    between atoms: C_22  and  C_23
REMARK                            x       y       z     vdW  Elec       q    Type
REMARK                         _______ _______ _______ _____ _____    ______ ____
ROOT
ATOM      1  N   UNL     1       5.148   3.038  -3.981  0.00  0.00    -0.296 N 
ATOM      2  C   UNL     1       4.979   3.627  -2.769  0.00  0.00    +0.204 A 
ATOM      3  N   UNL     1       4.287   3.072  -1.814  0.00  0.00    -0.219 NA
ATOM      4  C   UNL     1       3.698   1.877  -1.982  0.00  0.00    +0.148 A 
ATOM      5  C   UNL     1       3.835   1.218  -3.211  0.00  0.00    +0.086 A 
ATOM      6  C   UNL     1       4.590   1.833  -4.237  0.00  0.00    +0.263 A 
ATOM      7  O   UNL     1       4.733   1.293  -5.320  0.00  0.00    -0.267 OA
ATOM      8  C   UNL     1       3.096  -0.036  -3.089  0.00  0.00    -0.015 A 
ATOM      9  C   UNL     1       2.584  -0.062  -1.846  0.00  0.00    +0.022 A 
ATOM     10  N   UNL     1       2.935   1.082  -1.179  0.00  0.00    -0.325 N 
ATOM     11  C   UNL     1       1.748  -1.178  -1.274  0.00  0.00    +0.064 C 
ATOM     12  C   UNL     1       2.943  -1.097  -4.148  0.00  0.00    +0.046 C 
ENDROOT
BRANCH   1  13
ATOM     13  C   UNL     1       5.937   3.712  -5.015  0.00  0.00    +0.160 C 
BRANCH  13  16
ATOM     14  C   UNL     1       5.359   6.554  -4.465  0.00  0.00    -0.069 C 
ATOM     15  C   UNL     1       4.310   5.610  -5.056  0.00  0.00    +0.021 C 
ATOM     16  C   UNL     1       5.010   4.544  -5.903  0.00  0.00    +0.081 C 
ATOM     17  C   UNL     1       5.831   5.231  -6.998  0.00  0.00    +0.017 C 
ATOM     18  C   UNL     1       6.836   6.187  -6.351  0.00  0.00    -0.079 C 
ATOM     19  N   UNL     1       6.117   7.188  -5.552  0.00  0.00    +0.381 N 
ATOM     20  H   UNL     1       5.426   7.733  -6.212  0.00  0.00    -0.086 HD
ATOM     21  H   UNL     1       6.849   7.890  -5.127  0.00  0.00    -0.086 HD
BRANCH  16  22
ATOM     22  O   UNL     1       4.032   3.692  -6.503  0.00  0.00    -0.387 OA
ATOM     23  H   UNL     1       4.348   2.861  -7.151  0.00  0.00    +0.210 HD
ENDBRANCH  16  22
BRANCH  14  24
ATOM     24  C   UNL     1       4.663   7.634  -3.634  0.00  0.00    -0.016 C 
BRANCH  24  26
ATOM     25  C   UNL     1       5.018   9.582  -2.111  0.00  0.00    +0.004 C 
ATOM     26  C   UNL     1       5.715   8.503  -2.942  0.00  0.00    -0.005 C 
ENDBRANCH  24  26
ENDBRANCH  14  24
ENDBRANCH  13  16
ENDBRANCH   1  13
BRANCH  10  27
ATOM     27  C   UNL     1       2.551   1.402   0.198  0.00  0.00    +0.158 C 
BRANCH  27  28
ATOM     28  C   UNL     1       1.247   2.156   0.194  0.00  0.00    -0.028 A 
ATOM     29  C   UNL     1       0.050   1.468   0.266  0.00  0.00    +0.005 A 
ATOM     30  C   UNL     1      -1.147   2.159   0.256  0.00  0.00    +0.000 A 
ATOM     31  C   UNL     1      -1.147   3.540   0.185  0.00  0.00    +0.000 A 
ATOM     32  C   UNL     1       0.050   4.228   0.114  0.00  0.00    +0.000 A 
ATOM     33  C   UNL     1       1.246   3.536   0.118  0.00  0.00    +0.005 A 
ENDBRANCH  27  28
ENDBRANCH  10  27
TORSDOF 7
