REMARK  Name = ZINC65528181
REMARK  2 active torsions:
REMARK  status: ('A' for Active; 'I' for Inactive)
REMARK    1  A    between atoms: C_4  and  N_7
REMARK    2  A    between atoms: C_13  and  C_19
REMARK                            x       y       z     vdW  Elec       q    Type
REMARK                         _______ _______ _______ _____ _____    ______ ____
ROOT
ATOM      1  N   UNL     1       3.358  -0.831   0.160  0.00  0.00    -0.229 N 
ATOM      2  C   UNL     1       3.678  -2.259   0.109  0.00  0.00    +0.208 C 
ATOM      3  C   UNL     1       5.185  -2.303   0.302  0.00  0.00    -0.007 C 
ATOM      4  C   UNL     1       5.633  -1.082   0.232  0.00  0.00    +0.091 C 
ATOM      5  N   UNL     1       4.598  -0.171   0.071  0.00  0.00    -0.269 N 
ATOM      6  C   UNL     1       5.899  -3.595   0.621  0.00  0.00    +0.059 C 
ATOM      7  C   UNL     1       5.249  -4.142   1.900  0.00  0.00    +0.108 C 
ATOM      8  C   UNL     1       3.772  -3.911   1.915  0.00  0.00    +0.216 C 
ATOM      9  O   UNL     1       3.127  -4.613   2.663  0.00  0.00    -0.276 OA
ATOM     10  N   UNL     1       3.066  -3.025   1.186  0.00  0.00    -0.292 N 
ATOM     11  H   UNL     1       4.712   0.781  -0.079  0.00  0.00    +0.170 HD
ATOM     12  H   UNL     1       2.127  -2.880   1.385  0.00  0.00    +0.151 HD
ENDROOT
BRANCH   6  13
ATOM     13  C   UNL     1       5.727  -4.574  -0.510  0.00  0.00    -0.034 C 
ATOM     14  C   UNL     1       4.866  -5.635  -0.437  0.00  0.00    +0.004 C 
ATOM     15  C   UNL     1       4.696  -6.519  -1.587  0.00  0.00    -0.002 C 
ATOM     16  C   UNL     1       5.553  -6.550  -2.613  0.00  0.00    +0.004 C 
ATOM     17  C   UNL     1       6.774  -5.681  -2.567  0.00  0.00    +0.158 C 
ATOM     18  C   UNL     1       6.435  -4.462  -1.720  0.00  0.00    -0.014 C 
ATOM     19  C   UNL     1       6.913  -3.411  -2.406  0.00  0.00    +0.025 C 
ATOM     20  C   UNL     1       7.282  -3.829  -3.705  0.00  0.00    +0.106 C 
ATOM     21  N   UNL     1       7.191  -5.128  -3.847  0.00  0.00    -0.279 NA
ENDBRANCH   6  13
BRANCH   1  25
ATOM     22  C   UNL     1      -0.412   0.905   0.480  0.00  0.00    +0.000 A 
ATOM     23  C   UNL     1       0.712   1.707   0.403  0.00  0.00    +0.002 A 
ATOM     24  C   UNL     1       1.964   1.134   0.297  0.00  0.00    +0.025 A 
ATOM     25  C   UNL     1       2.094  -0.249   0.268  0.00  0.00    +0.050 A 
ATOM     26  C   UNL     1       0.962  -1.051   0.345  0.00  0.00    +0.025 A 
ATOM     27  C   UNL     1      -0.287  -0.472   0.451  0.00  0.00    +0.002 A 
ENDBRANCH   1  25
TORSDOF 2
