REMARK  Name = ZINC53111631
REMARK  4 active torsions:
REMARK  status: ('A' for Active; 'I' for Inactive)
REMARK    1  A    between atoms: C_1  and  C_2
REMARK    2  A    between atoms: C_7  and  C_9
REMARK    3  A    between atoms: C_7  and  N_11
REMARK    4  A    between atoms: C_9  and  O_10
REMARK                            x       y       z     vdW  Elec       q    Type
REMARK                         _______ _______ _______ _____ _____    ______ ____
ROOT
ATOM      1  N   UNL     1      -0.093   1.445   2.703  0.00  0.00    -0.233 N 
ATOM      2  C   UNL     1       0.267   2.181   1.643  0.00  0.00    +0.223 C 
ATOM      3  O   UNL     1       0.642   1.742   0.577  0.00  0.00    -0.275 OA
ATOM      4  C   UNL     1       0.130   3.649   1.988  0.00  0.00    +0.112 C 
ATOM      5  C   UNL     1      -0.374   3.628   3.440  0.00  0.00    +0.056 C 
ATOM      6  C   UNL     1      -0.478   2.160   3.769  0.00  0.00    +0.229 C 
ATOM      7  O   UNL     1      -0.847   1.700   4.828  0.00  0.00    -0.275 OA
ATOM      8  C   UNL     1       0.627   4.320   4.358  0.00  0.00    +0.016 C 
ATOM      9  C   UNL     1       0.120   4.267   5.801  0.00  0.00    +0.001 C 
ATOM     10  C   UNL     1      -1.241   4.959   5.888  0.00  0.00    +0.000 C 
ATOM     11  C   UNL     1      -2.241   4.239   4.981  0.00  0.00    +0.001 C 
ATOM     12  C   UNL     1      -1.743   4.293   3.534  0.00  0.00    +0.016 C 
ENDROOT
BRANCH   1  18
ATOM     13  C   UNL     1       1.993   1.531   4.078  0.00  0.00    +0.007 C 
ATOM     14  C   UNL     1       2.013   0.001   4.069  0.00  0.00    -0.012 C 
ATOM     15  C   UNL     1       2.814  -0.492   2.862  0.00  0.00    +0.003 C 
ATOM     16  C   UNL     1       2.160   0.017   1.575  0.00  0.00    +0.002 C 
ATOM     17  C   UNL     1       0.728  -0.512   1.487  0.00  0.00    +0.029 C 
ATOM     18  C   UNL     1      -0.073  -0.020   2.695  0.00  0.00    +0.068 C 
ATOM     19  C   UNL     1       0.581  -0.528   3.981  0.00  0.00    +0.032 C 
BRANCH  18  20
ATOM     20  C   UNL     1      -1.506  -0.549   2.607  0.00  0.00    +0.182 C 
BRANCH  20  21
ATOM     21  O   UNL     1      -2.116  -0.074   1.405  0.00  0.00    -0.393 OA
ATOM     22  H   UNL     1      -3.028  -0.371   1.283  0.00  0.00    +0.209 HD
ENDBRANCH  20  21
ENDBRANCH  18  20
ENDBRANCH   1  18
TORSDOF 3
