REMARK  Name = ZINC26774182
REMARK  6 active torsions:
REMARK  status: ('A' for Active; 'I' for Inactive)
REMARK    1  A    between atoms: C_1  and  C_2
REMARK    2  A    between atoms: C_4  and  C_8
REMARK    3  A    between atoms: C_5  and  C_7
REMARK    4  A    between atoms: N_10  and  N_11
REMARK    5  A    between atoms: C_12  and  C_14
REMARK    6  A    between atoms: C_21  and  C_23
REMARK                            x       y       z     vdW  Elec       q    Type
REMARK                         _______ _______ _______ _____ _____    ______ ____
ROOT
ATOM      1  N   UNL     1       5.673   1.499  -0.001  0.00  0.00    -0.234 N 
ATOM      2  C   UNL     1       6.409   2.594   0.275  0.00  0.00    +0.234 C 
ATOM      3  O   UNL     1       5.861   3.646   0.525  0.00  0.00    -0.274 OA
ATOM      4  H   UNL     1       6.171   0.545  -0.229  0.00  0.00    +0.173 HD
ENDROOT
BRANCH   2   5
ATOM      5  C   UNL     1       7.914   2.511   0.273  0.00  0.00    +0.094 C 
ATOM      6  C   UNL     1       8.502   3.882   0.613  0.00  0.00    +0.016 C 
ATOM      7  C   UNL     1      10.029   3.791   0.642  0.00  0.00    +0.020 C 
ATOM      8  C   UNL     1      10.539   3.376  -0.741  0.00  0.00    +0.108 C 
ATOM      9  N   UNL     1       9.868   2.130  -1.138  0.00  0.00    -0.294 N 
ATOM     10  C   UNL     1       8.400   2.081  -1.115  0.00  0.00    +0.121 C 
ATOM     11  C   UNL     1      10.586   1.054  -1.517  0.00  0.00    +0.282 C 
ATOM     12  O   UNL     1      10.029  -0.010  -1.715  0.00  0.00    -0.267 OA
BRANCH  11  13
ATOM     13  C   UNL     1      12.038   1.165  -1.690  0.00  0.00    +0.189 A 
ATOM     14  C   UNL     1      12.899   0.132  -1.926  0.00  0.00    +0.054 A 
ATOM     15  C   UNL     1      14.183   0.691  -2.026  0.00  0.00    +0.042 A 
ATOM     16  C   UNL     1      14.051   2.023  -1.840  0.00  0.00    +0.196 A 
ATOM     17  O   UNL     1      12.758   2.305  -1.639  0.00  0.00    -0.458 OA
ENDBRANCH  11  13
ENDBRANCH   2   5
BRANCH   1  20
ATOM     18  C   UNL     1       3.539   0.482  -0.276  0.00  0.00    +0.263 C 
ATOM     19  O   UNL     1       4.089  -0.573  -0.527  0.00  0.00    -0.269 OA
ATOM     20  N   UNL     1       4.274   1.576   0.001  0.00  0.00    -0.230 N 
ATOM     21  H   UNL     1       3.777   2.531   0.228  0.00  0.00    +0.173 HD
BRANCH  18  25
ATOM     22  C   UNL     1      -1.245   2.219   0.086  0.00  0.00    +0.086 C 
ATOM     23  C   UNL     1      -0.032   1.346  -0.107  0.00  0.00    +0.103 A 
ATOM     24  C   UNL     1       1.243   1.748   0.006  0.00  0.00    +0.057 A 
ATOM     25  C   UNL     1       2.067   0.563  -0.273  0.00  0.00    +0.079 A 
ATOM     26  C   UNL     1       1.185  -0.445  -0.530  0.00  0.00    +0.114 A 
ATOM     27  O   UNL     1      -0.055   0.042  -0.426  0.00  0.00    -0.464 OA
ATOM     28  C   UNL     1       1.547  -1.867  -0.874  0.00  0.00    +0.087 C 
ENDBRANCH  18  25
ENDBRANCH   1  20
TORSDOF 4
