REMARK  Name = ZINC35959029
REMARK  7 active torsions:
REMARK  status: ('A' for Active; 'I' for Inactive)
REMARK    1  A    between atoms: C_1  and  C_2
REMARK    2  A    between atoms: C_2  and  N_3
REMARK    3  A    between atoms: C_9  and  C_11
REMARK    4  A    between atoms: N_14  and  C_17
REMARK    5  A    between atoms: C_23  and  C_25
REMARK    6  A    between atoms: C_25  and  C_26
REMARK    7  A    between atoms: C_26  and  C_27
REMARK                            x       y       z     vdW  Elec       q    Type
REMARK                         _______ _______ _______ _____ _____    ______ ____
ROOT
ATOM      1  C   UNL     1       1.362  -4.243   4.370  0.00  0.00    +0.072 C 
ATOM      2  C   UNL     1       2.868  -4.419   4.156  0.00  0.00    -0.006 C 
ATOM      3  C   UNL     1       3.192  -5.912   4.058  0.00  0.00    -0.078 C 
ATOM      4  N   UNL     1       2.791  -6.586   5.298  0.00  0.00    +0.382 N 
ATOM      5  C   UNL     1       1.337  -6.482   5.473  0.00  0.00    -0.078 C 
ATOM      6  C   UNL     1       0.941  -5.012   5.626  0.00  0.00    -0.006 C 
ATOM      7  H   UNL     1       3.254  -6.151   6.082  0.00  0.00    -0.081 HD
ENDROOT
BRANCH   1  14
ATOM      8  N   UNL     1      -0.493  -0.769   1.354  0.00  0.00    -0.300 NA
ATOM      9  C   UNL     1      -0.796  -0.354   2.730  0.00  0.00    +0.103 C 
ATOM     10  C   UNL     1       0.431  -0.596   3.615  0.00  0.00    +0.123 C 
ATOM     11  N   UNL     1       0.846  -1.999   3.466  0.00  0.00    -0.299 N 
ATOM     12  C   UNL     1       1.036  -2.528   2.107  0.00  0.00    +0.123 C 
ATOM     13  C   UNL     1      -0.215  -2.210   1.281  0.00  0.00    +0.103 C 
ATOM     14  C   UNL     1       1.046  -2.780   4.546  0.00  0.00    +0.219 C 
ATOM     15  O   UNL     1       0.972  -2.305   5.660  0.00  0.00    -0.275 OA
BRANCH   8  17
ATOM     16  C   UNL     1      -1.675   1.129   0.355  0.00  0.00    +0.020 C 
ATOM     17  C   UNL     1      -1.581  -0.396   0.440  0.00  0.00    +0.081 C 
ENDBRANCH   8  17
ENDBRANCH   1  14
BRANCH   4  18
ATOM     18  C   UNL     1       3.174  -8.002   5.230  0.00  0.00    -0.066 C 
ATOM     19  C   UNL     1       4.691  -8.112   5.055  0.00  0.00    +0.004 C 
ATOM     20  C   UNL     1       5.083  -9.589   4.950  0.00  0.00    +0.106 C 
ATOM     21  N   UNL     1       4.558 -10.302   6.122  0.00  0.00    -0.302 N 
ATOM     22  C   UNL     1       3.127 -10.190   6.434  0.00  0.00    +0.106 C 
ATOM     23  C   UNL     1       2.756  -8.707   6.523  0.00  0.00    +0.004 C 
ATOM     24  C   UNL     1       5.373 -11.046   6.896  0.00  0.00    +0.216 C 
ATOM     25  O   UNL     1       6.553 -11.131   6.627  0.00  0.00    -0.276 OA
BRANCH  24  26
ATOM     26  C   UNL     1       4.819 -11.772   8.094  0.00  0.00    +0.096 C 
BRANCH  26  27
ATOM     27  C   UNL     1       5.946 -12.536   8.793  0.00  0.00    +0.013 C 
BRANCH  27  28
ATOM     28  C   UNL     1       5.383 -13.273  10.011  0.00  0.00    -0.011 C 
ATOM     29  C   UNL     1       4.943 -12.258  11.086  0.00  0.00    +0.003 C 
ATOM     30  C   UNL     1       5.319 -12.938  12.426  0.00  0.00    +0.000 C 
ATOM     31  C   UNL     1       6.664 -13.629  12.093  0.00  0.00    +0.000 C 
ATOM     32  C   UNL     1       6.478 -14.145  10.651  0.00  0.00    +0.003 C 
ENDBRANCH  27  28
ENDBRANCH  26  27
ENDBRANCH  24  26
ENDBRANCH   4  18
TORSDOF 6
