REMARK  Name = ZINC66792627
REMARK  10 active torsions:
REMARK  status: ('A' for Active; 'I' for Inactive)
REMARK    1  A    between atoms: C_1  and  C_2
REMARK    2  A    between atoms: C_2  and  C_3
REMARK    3  A    between atoms: C_2  and  C_4
REMARK    4  A    between atoms: C_2  and  C_5
REMARK    5  A    between atoms: N_10  and  C_12
REMARK    6  A    between atoms: C_12  and  N_13
REMARK    7  A    between atoms: C_16  and  N_19
REMARK    8  A    between atoms: C_20  and  C_22
REMARK    9  A    between atoms: C_22  and  C_23
REMARK   10  A    between atoms: C_23  and  C_24
REMARK                            x       y       z     vdW  Elec       q    Type
REMARK                         _______ _______ _______ _____ _____    ______ ____
ROOT
ATOM      1  N   UNL     1       1.185   1.639  -4.816  0.00  0.00    +0.393 N 
ATOM      2  C   UNL     1       0.294   2.339  -3.882  0.00  0.00    -0.074 C 
ATOM      3  C   UNL     1      -0.915   2.889  -4.640  0.00  0.00    +0.004 C 
ATOM      4  C   UNL     1      -0.435   3.866  -5.717  0.00  0.00    +0.069 C 
ATOM      5  C   UNL     1       0.551   3.145  -6.642  0.00  0.00    +0.004 C 
ATOM      6  C   UNL     1       1.707   2.585  -5.809  0.00  0.00    -0.074 C 
ATOM      7  H   UNL     1       0.670   0.909  -5.285  0.00  0.00    -0.079 HD
ENDROOT
BRANCH   4   8
ATOM      8  N   UNL     1      -1.581   4.338  -6.497  0.00  0.00    -0.313 N 
ATOM      9  C   UNL     1      -1.521   5.526  -7.131  0.00  0.00    +0.214 C 
ATOM     10  O   UNL     1      -0.518   6.203  -7.057  0.00  0.00    -0.276 OA
ATOM     11  H   UNL     1      -2.384   3.797  -6.557  0.00  0.00    +0.149 HD
BRANCH   9  12
ATOM     12  C   UNL     1      -2.701   6.012  -7.933  0.00  0.00    +0.100 C 
BRANCH  12  13
ATOM     13  C   UNL     1      -2.374   7.376  -8.546  0.00  0.00    +0.044 C 
BRANCH  13  14
ATOM     14  C   UNL     1      -3.554   7.862  -9.348  0.00  0.00    -0.047 A 
ATOM     15  C   UNL     1      -3.659   7.539 -10.687  0.00  0.00    +0.003 A 
ATOM     16  C   UNL     1      -4.741   7.985 -11.423  0.00  0.00    +0.000 A 
ATOM     17  C   UNL     1      -5.718   8.754 -10.819  0.00  0.00    +0.000 A 
ATOM     18  C   UNL     1      -5.613   9.077  -9.479  0.00  0.00    +0.000 A 
ATOM     19  C   UNL     1      -4.533   8.627  -8.742  0.00  0.00    +0.003 A 
ENDBRANCH  13  14
ENDBRANCH  12  13
ENDBRANCH   9  12
ENDBRANCH   4   8
BRANCH   1  20
ATOM     20  C   UNL     1       2.304   1.046  -4.072  0.00  0.00    +0.073 C 
BRANCH  20  26
ATOM     21  C   UNL     1       0.707  -0.490  -1.238  0.00  0.00    +0.067 A 
ATOM     22  C   UNL     1       0.845  -1.869  -1.467  0.00  0.00    +0.031 A 
ATOM     23  C   UNL     1       1.489  -2.277  -2.600  0.00  0.00    +0.073 A 
ATOM     24  C   UNL     1       1.978  -1.282  -3.474  0.00  0.00    +0.266 A 
ATOM     25  O   UNL     1       2.561  -1.594  -4.500  0.00  0.00    -0.266 OA
ATOM     26  N   UNL     1       1.795   0.016  -3.163  0.00  0.00    -0.246 N 
ATOM     27  N   UNL     1       1.181   0.373  -2.093  0.00  0.00    -0.174 NA
BRANCH  21  29
ATOM     28  C   UNL     1      -0.019   1.526   0.010  0.00  0.00    +0.017 C 
ATOM     29  C   UNL     1       0.002  -0.004   0.002  0.00  0.00    +0.006 C 
ATOM     30  C   UNL     1       0.742  -0.511   1.242  0.00  0.00    +0.017 C 
ATOM     31  C   UNL     1      -1.433  -0.534   0.013  0.00  0.00    +0.017 C 
ENDBRANCH  21  29
ENDBRANCH  20  26
ENDBRANCH   1  20
TORSDOF 7
