REMARK  Name = ZINC24752053
REMARK  6 active torsions:
REMARK  status: ('A' for Active; 'I' for Inactive)
REMARK    1  A    between atoms: C_1  and  C_2
REMARK    2  A    between atoms: C_4  and  N_11
REMARK    3  A    between atoms: C_5  and  O_9
REMARK    4  A    between atoms: O_9  and  C_10
REMARK    5  A    between atoms: C_12  and  C_14
REMARK    6  A    between atoms: N_22  and  C_25
REMARK                            x       y       z     vdW  Elec       q    Type
REMARK                         _______ _______ _______ _____ _____    ______ ____
ROOT
ATOM      1  N   UNL     1       0.028  -2.768  -2.426  0.00  0.00    -0.279 N 
ATOM      2  C   UNL     1      -0.089  -2.093  -3.587  0.00  0.00    +0.248 C 
ATOM      3  O   UNL     1      -0.106  -0.878  -3.584  0.00  0.00    -0.270 OA
ATOM      4  H   UNL     1       0.122  -3.733  -2.433  0.00  0.00    +0.155 HD
ENDROOT
BRANCH   2   5
ATOM      5  C   UNL     1      -0.197  -2.832  -4.865  0.00  0.00    +0.039 A 
ATOM      6  C   UNL     1      -0.183  -4.236  -4.860  0.00  0.00    +0.014 A 
ATOM      7  C   UNL     1      -0.281  -4.938  -6.022  0.00  0.00    +0.016 A 
ATOM      8  C   UNL     1      -0.398  -4.257  -7.243  0.00  0.00    +0.065 A 
ATOM      9  C   UNL     1      -0.414  -2.838  -7.263  0.00  0.00    +0.080 A 
ATOM     10  C   UNL     1      -0.317  -2.132  -6.055  0.00  0.00    +0.041 A 
ATOM     11  N   UNL     1      -0.527  -2.202  -8.438  0.00  0.00    -0.222 NA
ATOM     12  C   UNL     1      -0.623  -2.883  -9.569  0.00  0.00    +0.183 A 
ATOM     13  N   UNL     1      -0.613  -4.226  -9.604  0.00  0.00    -0.290 N 
ATOM     14  C   UNL     1      -0.502  -4.949  -8.468  0.00  0.00    +0.262 A 
ATOM     15  O   UNL     1      -0.492  -6.293  -8.504  0.00  0.00    -0.267 OA
ATOM     16  C   UNL     1      -0.723  -4.916 -10.891  0.00  0.00    +0.154 C 
ATOM     17  S   UNL     1      -0.765  -2.021 -11.041  0.00  0.00    -0.011 S 
ENDBRANCH   2   5
BRANCH   1  21
ATOM     18  C   UNL     1      -1.302   1.185   0.178  0.00  0.00    +0.045 C 
ATOM     19  C   UNL     1      -0.624  -0.157   0.083  0.00  0.00    -0.030 A 
ATOM     20  C   UNL     1      -0.611  -0.839  -1.119  0.00  0.00    +0.031 A 
ATOM     21  C   UNL     1       0.013  -2.075  -1.209  0.00  0.00    +0.076 A 
ATOM     22  C   UNL     1       0.625  -2.626  -0.084  0.00  0.00    +0.143 A 
ATOM     23  C   UNL     1       0.607  -1.937   1.117  0.00  0.00    +0.067 A 
ATOM     24  C   UNL     1      -0.012  -0.702   1.198  0.00  0.00    +0.047 A 
ATOM     25 CL   UNL     1      -0.027   0.163   2.703  0.00  0.00    -0.083 Cl
BRANCH  22  26
ATOM     26  O   UNL     1       1.237  -3.837  -0.166  0.00  0.00    -0.493 OA
ATOM     27  C   UNL     1       1.843  -4.339   1.026  0.00  0.00    +0.277 C 
ENDBRANCH  22  26
ENDBRANCH   1  21
TORSDOF 3
