REMARK  Name = ZINC08284568
REMARK  8 active torsions:
REMARK  status: ('A' for Active; 'I' for Inactive)
REMARK    1  A    between atoms: C_1  and  C_2
REMARK    2  A    between atoms: C_3  and  C_24
REMARK    3  A    between atoms: C_7  and  N_11
REMARK    4  A    between atoms: N_11  and  N_12
REMARK    5  A    between atoms: C_13  and  C_14
REMARK    6  A    between atoms: C_16  and  O_22
REMARK    7  A    between atoms: C_17  and  O_21
REMARK    8  A    between atoms: O_22  and  C_23
REMARK                            x       y       z     vdW  Elec       q    Type
REMARK                         _______ _______ _______ _____ _____    ______ ____
ROOT
ATOM      1  N   UNL     1       0.262   1.092   2.839  0.00  0.00    -0.220 N 
ATOM      2  H   UNL     1       0.110   1.724   2.119  0.00  0.00    +0.176 HD
ENDROOT
BRANCH   1   9
ATOM      3  C   UNL     1      -1.601   1.384   0.672  0.00  0.00    +0.045 C 
ATOM      4  C   UNL     1      -1.428  -0.112   0.600  0.00  0.00    -0.028 A 
ATOM      5  C   UNL     1      -2.085  -0.827  -0.325  0.00  0.00    -0.008 A 
ATOM      6  S   UNL     1      -1.561  -2.501  -0.008  0.00  0.00    -0.074 S 
ATOM      7  C   UNL     1      -0.473  -2.195   1.359  0.00  0.00    +0.114 A 
ATOM      8  C   UNL     1      -0.543  -0.794   1.527  0.00  0.00    +0.052 A 
ATOM      9  C   UNL     1       0.256  -0.267   2.579  0.00  0.00    +0.150 A 
ATOM     10  N   UNL     1       0.993  -1.092   3.306  0.00  0.00    -0.219 NA
ATOM     11  C   UNL     1       1.014  -2.394   3.087  0.00  0.00    +0.224 A 
ATOM     12  N   UNL     1       0.286  -2.944   2.134  0.00  0.00    -0.228 NA
ATOM     13  C   UNL     1      -3.040  -0.332  -1.382  0.00  0.00    +0.052 C 
ENDBRANCH   1   9
BRANCH   1  14
ATOM     14  N   UNL     1       0.488   1.554   4.142  0.00  0.00    -0.189 NA
ATOM     15  C   UNL     1       0.494   2.829   4.386  0.00  0.00    +0.138 C 
BRANCH  15  16
ATOM     16  C   UNL     1       0.732   3.316   5.757  0.00  0.00    -0.000 A 
ATOM     17  C   UNL     1       0.733   4.688   6.023  0.00  0.00    +0.059 A 
ATOM     18  C   UNL     1       0.956   5.140   7.311  0.00  0.00    +0.163 A 
ATOM     19  C   UNL     1       1.179   4.228   8.340  0.00  0.00    +0.177 A 
ATOM     20  C   UNL     1       1.178   2.866   8.077  0.00  0.00    +0.087 A 
ATOM     21  C   UNL     1       0.950   2.407   6.795  0.00  0.00    +0.033 A 
ATOM     22 CL   UNL     1       1.458   1.735   9.364  0.00  0.00    -0.080 Cl
BRANCH  19  23
ATOM     23  O   UNL     1       1.398   4.675   9.605  0.00  0.00    -0.502 OA
ATOM     24  H   UNL     1       0.594   4.773  10.133  0.00  0.00    +0.292 HD
ENDBRANCH  19  23
BRANCH  18  25
ATOM     25  O   UNL     1       0.958   6.474   7.572  0.00  0.00    -0.491 OA
ATOM     26  C   UNL     1       0.722   7.352   6.469  0.00  0.00    +0.277 C 
ENDBRANCH  18  25
ENDBRANCH  15  16
ENDBRANCH   1  14
TORSDOF 5
