REMARK  Name = ZINC08861783
REMARK  7 active torsions:
REMARK  status: ('A' for Active; 'I' for Inactive)
REMARK    1  A    between atoms: C_1  and  C_2
REMARK    2  A    between atoms: C_2  and  C_28
REMARK    3  A    between atoms: N_5  and  C_9
REMARK    4  A    between atoms: C_9  and  C_10
REMARK    5  A    between atoms: N_12  and  C_13
REMARK    6  A    between atoms: N_12  and  C_20
REMARK    7  A    between atoms: C_13  and  C_14
REMARK                            x       y       z     vdW  Elec       q    Type
REMARK                         _______ _______ _______ _____ _____    ______ ____
ROOT
ATOM      1  C   UNL     1      -3.604   4.315   3.118  0.00  0.00    +0.213 C 
ENDROOT
BRANCH   1   6
ATOM      2  C   UNL     1      -2.673   8.500   1.195  0.00  0.00    +0.047 C 
ATOM      3  C   UNL     1      -3.229   7.960   2.514  0.00  0.00    +0.135 C 
ATOM      4  C   UNL     1      -3.935   6.637   2.295  0.00  0.00    +0.251 C 
ATOM      5  O   UNL     1      -4.905   6.432   1.597  0.00  0.00    -0.272 OA
ATOM      6  N   UNL     1      -3.260   5.736   3.035  0.00  0.00    -0.215 N 
ATOM      7  C   UNL     1      -2.238   6.301   3.689  0.00  0.00    +0.310 C 
ATOM      8  O   UNL     1      -1.486   5.691   4.424  0.00  0.00    -0.252 OA
ATOM      9  N   UNL     1      -2.135   7.619   3.440  0.00  0.00    -0.281 N 
ATOM     10  H   UNL     1      -1.471   8.227   3.802  0.00  0.00    +0.152 HD
BRANCH   3  11
ATOM     11  C   UNL     1      -4.163   8.961   3.144  0.00  0.00    -0.016 A 
ATOM     12  C   UNL     1      -5.520   8.898   2.886  0.00  0.00    +0.006 A 
ATOM     13  C   UNL     1      -6.377   9.814   3.466  0.00  0.00    +0.000 A 
ATOM     14  C   UNL     1      -5.877  10.799   4.297  0.00  0.00    +0.000 A 
ATOM     15  C   UNL     1      -4.520  10.865   4.551  0.00  0.00    +0.000 A 
ATOM     16  C   UNL     1      -3.663   9.947   3.974  0.00  0.00    +0.006 A 
ENDBRANCH   3  11
ENDBRANCH   1   6
BRANCH   1  17
ATOM     17  C   UNL     1      -2.872   3.556   2.041  0.00  0.00    +0.234 C 
ATOM     18  O   UNL     1      -2.044   4.121   1.358  0.00  0.00    -0.274 OA
ATOM     19  N   UNL     1      -3.138   2.251   1.837  0.00  0.00    -0.293 N 
BRANCH  19  20
ATOM     20  C   UNL     1      -2.361   1.490   0.855  0.00  0.00    +0.099 C 
ATOM     21  C   UNL     1      -0.868   1.560   1.220  0.00  0.00    +0.046 C 
ATOM     22  C   UNL     1      -0.050   1.024   0.011  0.00  0.00    +0.168 C 
ATOM     23  S   UNL     1      -0.979   1.779  -1.389  0.00  0.00    -0.029 S 
ATOM     24  O   UNL     1      -0.384   3.026  -1.720  0.00  0.00    -0.174 OA
ATOM     25  O   UNL     1      -1.163   0.801  -2.404  0.00  0.00    -0.174 OA
ATOM     26  C   UNL     1      -2.589   2.088  -0.555  0.00  0.00    +0.188 C 
ENDBRANCH  19  20
BRANCH  19  27
ATOM     27  C   UNL     1      -4.204   1.593   2.596  0.00  0.00    +0.139 C 
BRANCH  27  28
ATOM     28  C   UNL     1      -3.625   1.009   3.887  0.00  0.00    +0.136 C 
ATOM     29  C   UNL     1      -4.715   0.215   4.638  0.00  0.00    +0.035 C 
ATOM     30  C   UNL     1      -4.427   0.581   6.120  0.00  0.00    +0.031 C 
ATOM     31  C   UNL     1      -3.940   2.044   5.972  0.00  0.00    +0.160 C 
ATOM     32  O   UNL     1      -3.191   2.069   4.747  0.00  0.00    -0.375 OA
ENDBRANCH  27  28
ENDBRANCH  19  27
ENDBRANCH   1  17
TORSDOF 6
