REMARK  Name = ZINC05068485
REMARK  8 active torsions:
REMARK  status: ('A' for Active; 'I' for Inactive)
REMARK    1  A    between atoms: C_1  and  C_2
REMARK    2  A    between atoms: C_5  and  C_8
REMARK    3  A    between atoms: C_8  and  N_9
REMARK    4  A    between atoms: C_10  and  C_12
REMARK    5  A    between atoms: C_12  and  N_13
REMARK    6  A    between atoms: N_13  and  C_14
REMARK    7  A    between atoms: N_13  and  S_15
REMARK    8  A    between atoms: S_15  and  C_18
REMARK                            x       y       z     vdW  Elec       q    Type
REMARK                         _______ _______ _______ _____ _____    ______ ____
ROOT
ATOM      1  N   UNL     1      -0.897   1.885  -1.312  0.00  0.00    -0.171 NA
ATOM      2  C   UNL     1      -0.691   3.213  -1.897  0.00  0.00    +0.132 C 
ENDROOT
BRANCH   1   3
ATOM      3  S   UNL     1      -0.017   1.417   0.010  0.00  0.00    +0.061 S 
ATOM      4  O   UNL     1       0.002  -0.004   0.002  0.00  0.00    -0.153 OA
ATOM      5  O   UNL     1       1.172   2.195   0.003  0.00  0.00    -0.153 OA
BRANCH   3   6
ATOM      6  C   UNL     1      -0.927   1.900   1.439  0.00  0.00    +0.106 A 
ATOM      7  C   UNL     1      -0.716   3.146   2.003  0.00  0.00    +0.030 A 
ATOM      8  C   UNL     1      -1.429   3.529   3.121  0.00  0.00    +0.025 A 
ATOM      9  C   UNL     1      -2.353   2.659   3.685  0.00  0.00    +0.037 A 
ATOM     10  C   UNL     1      -2.559   1.408   3.119  0.00  0.00    -0.024 A 
ATOM     11  C   UNL     1      -1.846   1.032   1.999  0.00  0.00    +0.034 A 
ATOM     12  C   UNL     1      -3.562   0.465   3.731  0.00  0.00    +0.046 C 
ATOM     13  C   UNL     1      -3.579   0.650   5.249  0.00  0.00    +0.101 C 
ATOM     14  C   UNL     1      -3.682   2.113   5.585  0.00  0.00    +0.218 C 
ATOM     15  O   UNL     1      -4.317   2.462   6.558  0.00  0.00    -0.275 OA
ATOM     16  N   UNL     1      -3.076   3.040   4.820  0.00  0.00    -0.285 N 
ATOM     17  H   UNL     1      -3.142   3.978   5.057  0.00  0.00    +0.155 HD
ENDBRANCH   3   6
ENDBRANCH   1   3
BRANCH   1  18
ATOM     18  C   UNL     1      -1.883   0.973  -1.897  0.00  0.00    +0.204 C 
BRANCH  18  20
ATOM     19  N   UNL     1      -4.315   0.556  -1.728  0.00  0.00    -0.310 N 
ATOM     20  C   UNL     1      -3.246   1.275  -1.331  0.00  0.00    +0.229 C 
ATOM     21  O   UNL     1      -3.382   2.166  -0.519  0.00  0.00    -0.274 OA
ATOM     22  H   UNL     1      -4.207  -0.156  -2.377  0.00  0.00    +0.149 HD
BRANCH  19  23
ATOM     23  C   UNL     1      -5.641   0.850  -1.177  0.00  0.00    +0.139 C 
BRANCH  23  28
ATOM     24  C   UNL     1      -9.527  -2.750  -3.485  0.00  0.00    +0.044 C 
ATOM     25  C   UNL     1      -8.514  -1.811  -2.883  0.00  0.00    -0.050 A 
ATOM     26  C   UNL     1      -7.853  -2.160  -1.720  0.00  0.00    +0.003 A 
ATOM     27  C   UNL     1      -6.923  -1.299  -1.168  0.00  0.00    +0.005 A 
ATOM     28  C   UNL     1      -6.654  -0.089  -1.779  0.00  0.00    -0.030 A 
ATOM     29  C   UNL     1      -7.318   0.263  -2.939  0.00  0.00    +0.005 A 
ATOM     30  C   UNL     1      -8.245  -0.600  -3.494  0.00  0.00    +0.003 A 
ENDBRANCH  23  28
ENDBRANCH  19  23
ENDBRANCH  18  20
ENDBRANCH   1  18
TORSDOF 6
