REMARK  Name = ZINC54838598
REMARK  4 active torsions:
REMARK  status: ('A' for Active; 'I' for Inactive)
REMARK    1  A    between atoms: C_1  and  C_2
REMARK    2  A    between atoms: N_8  and  C_9
REMARK    3  A    between atoms: C_10  and  N_12
REMARK    4  A    between atoms: C_16  and  C_18
REMARK                            x       y       z     vdW  Elec       q    Type
REMARK                         _______ _______ _______ _____ _____    ______ ____
ROOT
ATOM      1  C   UNL     1      -3.032  -1.524  -0.984  0.00  0.00    +0.088 C 
ATOM      2  C   UNL     1      -1.627  -1.708  -0.471  0.00  0.00    +0.130 A 
ATOM      3  N   UNL     1      -0.622  -1.409  -1.264  0.00  0.00    -0.213 NA
ATOM      4  C   UNL     1       0.636  -1.556  -0.851  0.00  0.00    +0.163 A 
ATOM      5  C   UNL     1       0.872  -2.039   0.452  0.00  0.00    +0.078 A 
ATOM      6  C   UNL     1       2.272  -2.096   0.625  0.00  0.00    +0.148 A 
ATOM      7  N   UNL     1       2.840  -1.685  -0.473  0.00  0.00    -0.177 NA
ATOM      8  N   UNL     1       1.860  -1.341  -1.412  0.00  0.00    -0.249 N 
ATOM      9  C   UNL     1       2.107  -0.838  -2.766  0.00  0.00    +0.174 C 
ATOM     10  C   UNL     1      -0.239  -2.345   1.260  0.00  0.00    +0.136 A 
ATOM     11  N   UNL     1      -1.456  -2.159   0.759  0.00  0.00    -0.217 NA
ENDROOT
BRANCH  10  12
ATOM     12  N   UNL     1      -0.069  -2.821   2.546  0.00  0.00    -0.311 N 
ATOM     13  C   UNL     1      -0.073  -4.241   2.943  0.00  0.00    +0.107 C 
ATOM     14  C   UNL     1       0.741  -4.286   4.260  0.00  0.00    +0.021 C 
ATOM     15  C   UNL     1       0.310  -2.959   4.939  0.00  0.00    +0.024 C 
ATOM     16  C   UNL     1       0.153  -1.997   3.743  0.00  0.00    +0.078 C 
BRANCH  16  17
ATOM     17  C   UNL     1      -1.049  -1.079   3.972  0.00  0.00    +0.009 C 
ATOM     18  C   UNL     1      -1.121  -0.014   2.858  0.00  0.00    +0.005 C 
ATOM     19  C   UNL     1      -1.603   1.266   3.586  0.00  0.00    +0.000 C 
ATOM     20  C   UNL     1      -0.862   1.185   4.945  0.00  0.00    +0.000 C 
ATOM     21  C   UNL     1      -0.885  -0.317   5.299  0.00  0.00    +0.005 C 
ENDBRANCH  16  17
ENDBRANCH  10  12
TORSDOF 2
