REMARK  Name = ZINC02765831
REMARK  4 active torsions:
REMARK  status: ('A' for Active; 'I' for Inactive)
REMARK    1  A    between atoms: C_4  and  C_7
REMARK    2  A    between atoms: C_10  and  C_12
REMARK    3  A    between atoms: N_14  and  C_15
REMARK    4  A    between atoms: C_16  and  C_25
REMARK                            x       y       z     vdW  Elec       q    Type
REMARK                         _______ _______ _______ _____ _____    ______ ____
ROOT
ATOM      1  C   UNL     1      -0.418   2.209   1.293  0.00  0.00    +0.221 C 
ATOM      2  O   UNL     1      -0.707   1.548   2.268  0.00  0.00    -0.275 OA
ATOM      3  N   UNL     1      -0.453   3.555   1.357  0.00  0.00    -0.279 N 
ATOM      4  H   UNL     1      -0.222   4.084   0.577  0.00  0.00    +0.155 HD
ENDROOT
BRANCH   3   5
ATOM      5  C   UNL     1      -0.821   4.184   2.538  0.00  0.00    +0.090 A 
ATOM      6  C   UNL     1      -0.910   5.542   2.798  0.00  0.00    +0.084 A 
ATOM      7  C   UNL     1      -1.330   5.951   4.131  0.00  0.00    -0.018 A 
ATOM      8  C   UNL     1      -1.574   4.934   4.988  0.00  0.00    -0.004 A 
ATOM      9  S   UNL     1      -1.271   3.464   4.047  0.00  0.00    -0.077 S 
ATOM     10  C   UNL     1      -1.993   5.027   6.421  0.00  0.00    +0.043 C 
ATOM     11  C   UNL     1      -3.169   6.005   6.544  0.00  0.00    +0.005 C 
ATOM     12  C   UNL     1      -2.609   7.406   6.769  0.00  0.00    +0.001 C 
ATOM     13  C   UNL     1      -1.280   7.567   6.033  0.00  0.00    +0.005 C 
ATOM     14  C   UNL     1      -1.482   7.413   4.530  0.00  0.00    +0.037 C 
BRANCH   6  15
ATOM     15  C   UNL     1      -0.604   6.511   1.789  0.00  0.00    +0.102 C 
ATOM     16  N   UNL     1      -0.360   7.279   0.989  0.00  0.00    -0.191 NA
ENDBRANCH   6  15
ENDBRANCH   3   5
BRANCH   1  19
ATOM     17  C   UNL     1       0.002  -0.004   0.002  0.00  0.00    +0.032 C 
ATOM     18  C   UNL     1       1.317   0.779  -0.006  0.00  0.00    +0.022 C 
ATOM     19  C   UNL     1      -0.019   1.526   0.010  0.00  0.00    +0.083 C 
BRANCH  17  23
ATOM     20  C   UNL     1      -1.077  -2.011   3.615  0.00  0.00    +0.000 A 
ATOM     21  C   UNL     1      -1.806  -2.227   2.461  0.00  0.00    +0.000 A 
ATOM     22  C   UNL     1      -1.457  -1.577   1.292  0.00  0.00    +0.004 A 
ATOM     23  C   UNL     1      -0.379  -0.712   1.277  0.00  0.00    -0.044 A 
ATOM     24  C   UNL     1       0.354  -0.501   2.430  0.00  0.00    +0.004 A 
ATOM     25  C   UNL     1       0.002  -1.147   3.600  0.00  0.00    +0.000 A 
ENDBRANCH  17  23
ENDBRANCH   1  19
TORSDOF 4
