REMARK  Name = ZINC61706963
REMARK  8 active torsions:
REMARK  status: ('A' for Active; 'I' for Inactive)
REMARK    1  A    between atoms: C_1  and  C_2
REMARK    2  A    between atoms: C_3  and  C_21
REMARK    3  A    between atoms: C_4  and  C_20
REMARK    4  A    between atoms: C_5  and  S_10
REMARK    5  A    between atoms: C_6  and  C_9
REMARK    6  A    between atoms: C_7  and  C_8
REMARK    7  A    between atoms: S_10  and  N_13
REMARK    8  A    between atoms: C_16  and  O_19
REMARK                            x       y       z     vdW  Elec       q    Type
REMARK                         _______ _______ _______ _____ _____    ______ ____
ROOT
ATOM      1  C   UNL     1      -0.968   1.314   0.275  0.00  0.00    +0.044 C 
ATOM      2  C   UNL     1      -0.452  -0.095   0.129  0.00  0.00    -0.044 A 
ATOM      3  C   UNL     1      -0.120  -0.583  -1.121  0.00  0.00    -0.043 A 
ATOM      4  C   UNL     1       0.353  -1.874  -1.256  0.00  0.00    -0.021 A 
ATOM      5  C   UNL     1       0.494  -2.678  -0.140  0.00  0.00    +0.112 A 
ATOM      6  C   UNL     1       0.163  -2.190   1.110  0.00  0.00    -0.021 A 
ATOM      7  C   UNL     1      -0.306  -0.897   1.245  0.00  0.00    -0.043 A 
ATOM      8  C   UNL     1      -0.663  -0.363   2.608  0.00  0.00    +0.044 C 
ATOM      9  C   UNL     1       0.316  -3.067   2.326  0.00  0.00    +0.046 C 
ATOM     10  C   UNL     1       0.715  -2.406  -2.619  0.00  0.00    +0.046 C 
ATOM     11  C   UNL     1      -0.274   0.294  -2.338  0.00  0.00    +0.044 C 
ENDROOT
BRANCH   5  12
ATOM     12  S   UNL     1       1.096  -4.325  -0.312  0.00  0.00    +0.061 S 
ATOM     13  O   UNL     1       1.858  -4.357  -1.511  0.00  0.00    -0.153 OA
ATOM     14  O   UNL     1       1.644  -4.691   0.948  0.00  0.00    -0.153 OA
BRANCH  12  15
ATOM     15  N   UNL     1      -0.217  -5.303  -0.559  0.00  0.00    -0.174 NA
ATOM     16  C   UNL     1      -1.005  -5.966   0.496  0.00  0.00    +0.112 C 
ATOM     17  C   UNL     1      -2.396  -6.209  -0.141  0.00  0.00    +0.050 C 
ATOM     18  C   UNL     1      -2.012  -6.559  -1.603  0.00  0.00    +0.131 C 
ATOM     19  C   UNL     1      -0.794  -5.649  -1.866  0.00  0.00    +0.140 C 
BRANCH  18  20
ATOM     20  O   UNL     1      -3.082  -6.244  -2.496  0.00  0.00    -0.390 OA
ATOM     21  H   UNL     1      -3.897  -6.734  -2.322  0.00  0.00    +0.210 HD
ENDBRANCH  18  20
ENDBRANCH  12  15
ENDBRANCH   5  12
TORSDOF 3
