REMARK  Name = ZINC26603500
REMARK  5 active torsions:
REMARK  status: ('A' for Active; 'I' for Inactive)
REMARK    1  A    between atoms: C_4  and  N_8
REMARK    2  A    between atoms: C_9  and  C_11
REMARK    3  A    between atoms: N_16  and  C_17
REMARK    4  A    between atoms: C_17  and  C_18
REMARK    5  A    between atoms: N_23  and  C_24
REMARK                            x       y       z     vdW  Elec       q    Type
REMARK                         _______ _______ _______ _____ _____    ______ ____
ROOT
ATOM      1  C   UNL     1       1.453  -0.352   0.137  0.00  0.00    +0.020 C 
ATOM      2  C   UNL     1       2.144   0.903   0.724  0.00  0.00    -0.008 C 
ATOM      3  C   UNL     1       1.358   2.047   0.031  0.00  0.00    -0.020 C 
ATOM      4  C   UNL     1      -0.077   1.485  -0.047  0.00  0.00    -0.077 C 
ATOM      5  N   UNL     1       0.024   0.016   0.036  0.00  0.00    +0.393 N 
ATOM      6  H   UNL     1      -0.517  -0.342   0.923  0.00  0.00    -0.080 HD
ENDROOT
BRANCH   1   8
ATOM      7  N   UNL     1       2.858  -2.026   1.296  0.00  0.00    -0.286 N 
ATOM      8  C   UNL     1       1.627  -1.528   1.063  0.00  0.00    +0.204 C 
ATOM      9  O   UNL     1       0.660  -2.027   1.598  0.00  0.00    -0.277 OA
ATOM     10  H   UNL     1       3.741  -1.535   0.861  0.00  0.00    +0.155 HD
BRANCH   7  14
ATOM     11  C   UNL     1       3.318  -5.426   3.662  0.00  0.00    +0.021 A 
ATOM     12  C   UNL     1       4.275  -5.110   2.715  0.00  0.00    +0.023 A 
ATOM     13  C   UNL     1       4.126  -3.984   1.929  0.00  0.00    +0.062 A 
ATOM     14  C   UNL     1       3.012  -3.168   2.090  0.00  0.00    +0.053 A 
ATOM     15  C   UNL     1       2.056  -3.484   3.046  0.00  0.00    +0.044 A 
ATOM     16  C   UNL     1       2.209  -4.616   3.825  0.00  0.00    +0.043 A 
ATOM     17 CL   UNL     1       1.010  -5.017   5.016  0.00  0.00    -0.083 Cl
ATOM     18 CL   UNL     1       5.327  -3.588   0.740  0.00  0.00    -0.082 Cl
ENDBRANCH   7  14
ENDBRANCH   1   8
BRANCH   5  19
ATOM     19  C   UNL     1      -0.603  -0.622  -1.130  0.00  0.00    +0.020 C 
BRANCH  19  20
ATOM     20  C   UNL     1      -2.085  -0.353  -1.113  0.00  0.00    +0.204 C 
ATOM     21  O   UNL     1      -2.586   0.224  -0.171  0.00  0.00    -0.277 OA
ATOM     22  N   UNL     1      -2.855  -0.753  -2.144  0.00  0.00    -0.242 N 
ATOM     23  C   UNL     1      -4.181  -0.513  -2.129  0.00  0.00    +0.306 C 
ATOM     24  O   UNL     1      -4.683   0.065  -1.185  0.00  0.00    -0.252 OA
ATOM     25  N   UNL     1      -4.950  -0.913  -3.160  0.00  0.00    -0.296 N 
ATOM     26  H   UNL     1      -2.401  -1.276  -2.999  0.00  0.00    +0.159 HD
ATOM     27  H   UNL     1      -4.496  -1.437  -4.015  0.00  0.00    +0.151 HD
BRANCH  25  28
ATOM     28  C   UNL     1      -6.392  -0.652  -3.144  0.00  0.00    +0.075 C 
ATOM     29  C   UNL     1      -7.320  -1.786  -3.581  0.00  0.00    +0.024 C 
ATOM     30  C   UNL     1      -7.111  -0.574  -4.492  0.00  0.00    +0.024 C 
ENDBRANCH  25  28
ENDBRANCH  19  20
ENDBRANCH   5  19
TORSDOF 5
