REMARK  Name = ZINC38942717
REMARK  10 active torsions:
REMARK  status: ('A' for Active; 'I' for Inactive)
REMARK    1  A    between atoms: C_1  and  C_2
REMARK    2  A    between atoms: C_2  and  C_3
REMARK    3  A    between atoms: C_2  and  C_4
REMARK    4  A    between atoms: C_4  and  N_5
REMARK    5  A    between atoms: C_9  and  N_19
REMARK    6  A    between atoms: C_14  and  C_17
REMARK    7  A    between atoms: C_14  and  C_18
REMARK    8  A    between atoms: C_20  and  C_22
REMARK    9  A    between atoms: C_28  and  O_31
REMARK   10  A    between atoms: O_31  and  C_32
REMARK                            x       y       z     vdW  Elec       q    Type
REMARK                         _______ _______ _______ _____ _____    ______ ____
ROOT
ATOM      1  N   UNL     1      -1.762  -2.199  -0.272  0.00  0.00    -0.267 N 
ATOM      2  C   UNL     1      -1.772  -2.879  -1.499  0.00  0.00    +0.078 A 
ATOM      3  C   UNL     1      -0.985  -2.442  -2.553  0.00  0.00    +0.029 A 
ATOM      4  C   UNL     1      -1.006  -3.119  -3.757  0.00  0.00    +0.025 A 
ATOM      5  C   UNL     1      -1.817  -4.237  -3.913  0.00  0.00    +0.037 A 
ATOM      6  C   UNL     1      -2.605  -4.678  -2.859  0.00  0.00    +0.070 A 
ATOM      7  C   UNL     1      -2.582  -4.003  -1.651  0.00  0.00    +0.144 A 
ATOM      8  O   UNL     1      -3.340  -4.433  -0.608  0.00  0.00    -0.489 OA
ATOM      9  C   UNL     1      -2.666  -5.112   0.449  0.00  0.00    +0.244 C 
ATOM     10  C   UNL     1      -1.371  -4.388   0.809  0.00  0.00    +0.076 C 
ATOM     11  C   UNL     1      -1.604  -2.901   0.872  0.00  0.00    +0.229 C 
ATOM     12  O   UNL     1      -1.654  -2.337   1.945  0.00  0.00    -0.275 OA
ATOM     13  C   UNL     1      -0.876  -4.881   2.170  0.00  0.00    +0.024 C 
ATOM     14  C   UNL     1      -0.311  -4.687  -0.252  0.00  0.00    +0.024 C 
ENDROOT
BRANCH   5  15
ATOM     15  N   UNL     1      -1.839  -4.918  -5.136  0.00  0.00    -0.279 N 
ATOM     16  C   UNL     1      -1.972  -6.259  -5.157  0.00  0.00    +0.284 C 
ATOM     17  O   UNL     1      -2.159  -6.869  -4.121  0.00  0.00    -0.266 OA
ATOM     18  H   UNL     1      -1.758  -4.426  -5.967  0.00  0.00    +0.155 HD
BRANCH  16  19
ATOM     19  C   UNL     1      -1.890  -6.986  -6.432  0.00  0.00    +0.191 A 
ATOM     20  C   UNL     1      -2.014  -8.331  -6.575  0.00  0.00    +0.063 A 
ATOM     21  C   UNL     1      -1.865  -8.602  -8.004  0.00  0.00    +0.025 A 
ATOM     22  C   UNL     1      -1.891  -9.762  -8.783  0.00  0.00    +0.012 A 
ATOM     23  C   UNL     1      -1.714  -9.677 -10.135  0.00  0.00    +0.004 A 
ATOM     24  C   UNL     1      -1.508  -8.446 -10.742  0.00  0.00    +0.049 A 
ATOM     25  C   UNL     1      -1.479  -7.285  -9.992  0.00  0.00    +0.163 A 
ATOM     26  C   UNL     1      -1.658  -7.350  -8.610  0.00  0.00    +0.177 A 
ATOM     27  O   UNL     1      -1.686  -6.417  -7.638  0.00  0.00    -0.447 OA
BRANCH  25  28
ATOM     28  O   UNL     1      -1.277  -6.086 -10.598  0.00  0.00    -0.491 OA
ATOM     29  C   UNL     1      -1.103  -6.097 -12.017  0.00  0.00    +0.277 C 
ENDBRANCH  25  28
ENDBRANCH  16  19
ENDBRANCH   5  15
BRANCH   1  30
ATOM     30  C   UNL     1      -1.916  -0.743  -0.232  0.00  0.00    +0.116 C 
BRANCH  30  32
ATOM     31  C   UNL     1      -0.707   1.437  -0.404  0.00  0.00    +0.009 C 
ATOM     32  C   UNL     1      -0.539  -0.082  -0.321  0.00  0.00    +0.001 C 
ATOM     33  C   UNL     1       0.279  -0.437   0.923  0.00  0.00    +0.009 C 
ENDBRANCH  30  32
ENDBRANCH   1  30
TORSDOF 5
