REMARK  Name = ZINC67266599
REMARK  6 active torsions:
REMARK  status: ('A' for Active; 'I' for Inactive)
REMARK    1  A    between atoms: C_1  and  C_2
REMARK    2  A    between atoms: C_2  and  C_4
REMARK    3  A    between atoms: C_2  and  N_14
REMARK    4  A    between atoms: C_7  and  O_10
REMARK    5  A    between atoms: O_10  and  C_11
REMARK    6  A    between atoms: C_15  and  C_17
REMARK                            x       y       z     vdW  Elec       q    Type
REMARK                         _______ _______ _______ _____ _____    ______ ____
ROOT
ATOM      1  N   UNL     1       0.711  -0.489   1.189  0.00  0.00    -0.309 N 
ATOM      2  C   UNL     1       2.054  -0.600   1.174  0.00  0.00    +0.217 C 
ATOM      3  O   UNL     1       2.676  -0.297   0.177  0.00  0.00    -0.275 OA
ATOM      4  H   UNL     1       0.213  -0.731   1.986  0.00  0.00    +0.149 HD
ENDROOT
BRANCH   2   5
ATOM      5  C   UNL     1       2.783  -1.099   2.395  0.00  0.00    +0.075 C 
ATOM      6  C   UNL     1       2.501  -0.165   3.574  0.00  0.00    +0.015 C 
ATOM      7  C   UNL     1       3.232  -0.680   4.816  0.00  0.00    +0.036 C 
ATOM      8  C   UNL     1       4.731  -0.740   4.540  0.00  0.00    +0.112 C 
ATOM      9  C   UNL     1       5.025  -1.647   3.351  0.00  0.00    +0.036 C 
ATOM     10  C   UNL     1       4.287  -1.129   2.114  0.00  0.00    +0.015 C 
ATOM     11  C   UNL     1       5.278   0.647   4.294  0.00  0.00    +0.244 C 
ATOM     12  O   UNL     1       4.965   1.413   3.407  0.00  0.00    -0.273 OA
ATOM     13  N   UNL     1       6.187   0.854   5.269  0.00  0.00    -0.238 N 
ATOM     14  C   UNL     1       6.284  -0.203   6.085  0.00  0.00    +0.307 C 
ATOM     15  O   UNL     1       7.036  -0.254   7.039  0.00  0.00    -0.252 OA
ATOM     16  N   UNL     1       5.455  -1.203   5.731  0.00  0.00    -0.285 N 
ATOM     17  H   UNL     1       6.706   1.668   5.367  0.00  0.00    +0.159 HD
ATOM     18  H   UNL     1       5.355  -2.059   6.175  0.00  0.00    +0.151 HD
ENDBRANCH   2   5
BRANCH   1  20
ATOM     19  C   UNL     1      -0.019   1.526   0.010  0.00  0.00    +0.033 C 
ATOM     20  C   UNL     1       0.002  -0.004   0.002  0.00  0.00    +0.100 C 
BRANCH  20  21
ATOM     21  C   UNL     1      -1.412  -0.526   0.013  0.00  0.00    -0.027 A 
ATOM     22  C   UNL     1      -2.122  -0.570   1.198  0.00  0.00    +0.009 A 
ATOM     23  C   UNL     1      -3.418  -1.049   1.211  0.00  0.00    +0.046 A 
ATOM     24  C   UNL     1      -4.007  -1.484   0.032  0.00  0.00    +0.127 A 
ATOM     25  C   UNL     1      -3.292  -1.437  -1.156  0.00  0.00    +0.046 A 
ATOM     26  C   UNL     1      -1.998  -0.953  -1.164  0.00  0.00    +0.009 A 
BRANCH  24  27
ATOM     27  O   UNL     1      -5.282  -1.955   0.042  0.00  0.00    -0.434 OA
BRANCH  27  28
ATOM     28  C   UNL     1      -5.824  -2.386  -1.208  0.00  0.00    +0.541 C 
ATOM     29  F   UNL     1      -5.825  -1.315  -2.109  0.00  0.00    -0.166 F 
ATOM     30  F   UNL     1      -5.042  -3.426  -1.721  0.00  0.00    -0.166 F 
ENDBRANCH  27  28
ENDBRANCH  24  27
ENDBRANCH  20  21
ENDBRANCH   1  20
TORSDOF 5
