REMARK  Name = ZINC10936108
REMARK  7 active torsions:
REMARK  status: ('A' for Active; 'I' for Inactive)
REMARK    1  A    between atoms: C_1  and  C_2
REMARK    2  A    between atoms: C_14  and  C_16
REMARK    3  A    between atoms: C_16  and  O_17
REMARK    4  A    between atoms: O_17  and  C_18
REMARK    5  A    between atoms: C_18  and  C_20
REMARK    6  A    between atoms: C_21  and  S_25
REMARK    7  A    between atoms: S_25  and  N_28
REMARK                            x       y       z     vdW  Elec       q    Type
REMARK                         _______ _______ _______ _____ _____    ______ ____
ROOT
ATOM      1  C   UNL     1       3.104  -3.877  -0.049  0.00  0.00    +0.328 C 
ENDROOT
BRANCH   1  14
ATOM      2  C   UNL     1       7.433  -7.068   3.387  0.00  0.00    +0.019 C 
ATOM      3  C   UNL     1       6.599  -6.965   2.108  0.00  0.00    +0.050 C 
ATOM      4  C   UNL     1       7.060  -5.760   1.304  0.00  0.00    +0.033 C 
ATOM      5  C   UNL     1       6.503  -5.662  -0.097  0.00  0.00    +0.115 C 
ATOM      6  N   UNL     1       5.057  -5.394  -0.076  0.00  0.00    -0.268 N 
ATOM      7  C   UNL     1       4.177  -6.486  -0.074  0.00  0.00    +0.050 A 
ATOM      8  C   UNL     1       3.455  -6.791  -1.222  0.00  0.00    +0.024 A 
ATOM      9  C   UNL     1       2.623  -7.895  -1.236  0.00  0.00    +0.002 A 
ATOM     10  C   UNL     1       2.502  -8.702  -0.119  0.00  0.00    +0.001 A 
ATOM     11  C   UNL     1       3.204  -8.396   1.035  0.00  0.00    +0.016 A 
ATOM     12  C   UNL     1       4.017  -7.279   1.053  0.00  0.00    +0.030 A 
ATOM     13  S   UNL     1       4.844  -6.787   2.547  0.00  0.00    -0.120 S 
ATOM     14  C   UNL     1       4.589  -4.130  -0.065  0.00  0.00    +0.258 C 
ATOM     15  O   UNL     1       5.364  -3.197  -0.067  0.00  0.00    -0.272 OA
ENDBRANCH   1  14
BRANCH   1  16
ATOM     16  O   UNL     1       2.857  -2.446  -0.039  0.00  0.00    -0.451 OA
BRANCH  16  17
ATOM     17  C   UNL     1       1.569  -2.046  -0.024  0.00  0.00    +0.348 C 
ATOM     18  O   UNL     1       0.676  -2.872  -0.021  0.00  0.00    -0.244 OA
BRANCH  17  19
ATOM     19  C   UNL     1       1.246  -0.619  -0.013  0.00  0.00    +0.122 A 
ATOM     20  C   UNL     1       0.002  -0.004   0.002  0.00  0.00    +0.126 A 
ATOM     21  C   UNL     1      -0.017   1.368   0.010  0.00  0.00    +0.037 A 
ATOM     22  C   UNL     1       1.161   2.048   0.002  0.00  0.00    +0.048 A 
ATOM     23  S   UNL     1       2.348   0.784  -0.016  0.00  0.00    -0.088 S 
BRANCH  20  24
ATOM     24  S   UNL     1      -1.488  -0.944   0.011  0.00  0.00    +0.057 S 
ATOM     25  O   UNL     1      -1.344  -1.924   1.029  0.00  0.00    -0.153 OA
ATOM     26  O   UNL     1      -2.558  -0.009  -0.001  0.00  0.00    -0.153 OA
BRANCH  24  27
ATOM     27  N   UNL     1      -1.559  -1.762  -1.427  0.00  0.00    -0.203 NA
ATOM     28  H   UNL     1      -2.010  -2.620  -1.475  0.00  0.00    +0.144 HD
ATOM     29  H   UNL     1      -1.150  -1.384  -2.221  0.00  0.00    +0.144 HD
ENDBRANCH  24  27
ENDBRANCH  20  24
ENDBRANCH  17  19
ENDBRANCH  16  17
ENDBRANCH   1  16
TORSDOF 6
