REMARK  Name = ZINC44921525
REMARK  5 active torsions:
REMARK  status: ('A' for Active; 'I' for Inactive)
REMARK    1  A    between atoms: C_1  and  C_2
REMARK    2  A    between atoms: C_3  and  C_20
REMARK    3  A    between atoms: C_6  and  C_7
REMARK    4  A    between atoms: C_9  and  S_12
REMARK    5  A    between atoms: S_12  and  N_15
REMARK                            x       y       z     vdW  Elec       q    Type
REMARK                         _______ _______ _______ _____ _____    ______ ____
ROOT
ATOM      1  C   UNL     1       0.181  -0.217   2.450  0.00  0.00    +0.029 A 
ATOM      2  C   UNL     1       0.388  -1.072   3.536  0.00  0.00    +0.048 A 
ATOM      3  C   UNL     1       0.457  -0.490   4.753  0.00  0.00    +0.143 A 
ATOM      4  S   UNL     1       0.233   1.235   4.365  0.00  0.00    -0.076 S 
ATOM      5  C   UNL     1       0.071   1.120   2.697  0.00  0.00    +0.058 A 
ENDROOT
BRANCH   1  11
ATOM      6  C   UNL     1      -1.989   0.555   0.346  0.00  0.00    +0.049 C 
ATOM      7  C   UNL     1      -0.853  -0.415   0.148  0.00  0.00    +0.019 A 
ATOM      8  C   UNL     1      -0.577  -1.132  -1.024  0.00  0.00    +0.084 A 
ATOM      9  N   UNL     1       0.480  -1.867  -0.816  0.00  0.00    -0.083 NA
ATOM     10  O   UNL     1       0.921  -1.642   0.511  0.00  0.00    -0.354 OA
ATOM     11  C   UNL     1       0.089  -0.746   1.075  0.00  0.00    +0.171 A 
ATOM     12  C   UNL     1      -1.368  -1.066  -2.305  0.00  0.00    +0.069 C 
ENDBRANCH   1  11
BRANCH   3  13
ATOM     13  S   UNL     1       0.705  -1.245   6.326  0.00  0.00    +0.067 S 
ATOM     14  O   UNL     1       0.159  -0.358   7.293  0.00  0.00    -0.152 OA
ATOM     15  O   UNL     1       0.277  -2.594   6.201  0.00  0.00    -0.152 OA
BRANCH  13  16
ATOM     16  N   UNL     1       2.339  -1.290   6.595  0.00  0.00    -0.176 NA
ATOM     17  C   UNL     1       3.242  -2.382   6.205  0.00  0.00    +0.109 C 
ATOM     18  C   UNL     1       4.658  -1.998   6.682  0.00  0.00    +0.018 C 
ATOM     19  C   UNL     1       4.378  -0.973   7.812  0.00  0.00    +0.018 C 
ATOM     20  C   UNL     1       3.129  -0.238   7.260  0.00  0.00    +0.109 C 
ENDBRANCH  13  16
ENDBRANCH   3  13
TORSDOF 3
