REMARK  Name = ZINC66585848
REMARK  9 active torsions:
REMARK  status: ('A' for Active; 'I' for Inactive)
REMARK    1  A    between atoms: C_1  and  C_2
REMARK    2  A    between atoms: C_5  and  N_9
REMARK    3  A    between atoms: C_10  and  C_12
REMARK    4  A    between atoms: C_12  and  C_14
REMARK    5  A    between atoms: C_12  and  O_15
REMARK    6  A    between atoms: O_15  and  C_16
REMARK    7  A    between atoms: C_16  and  C_18
REMARK    8  A    between atoms: C_20  and  C_24
REMARK    9  A    between atoms: N_27  and  C_29
REMARK                            x       y       z     vdW  Elec       q    Type
REMARK                         _______ _______ _______ _____ _____    ______ ____
ROOT
ATOM      1  O   UNL     1      -0.348  -6.806  -2.526  0.00  0.00    -0.449 OA
ENDROOT
BRANCH   1   2
ATOM      2  C   UNL     1      -0.136  -6.343  -1.191  0.00  0.00    +0.259 C 
ATOM      3  C   UNL     1       1.165  -6.936  -0.646  0.00  0.00    +0.062 C 
BRANCH   2   5
ATOM      4  N   UNL     1       0.057  -4.171  -0.023  0.00  0.00    -0.281 N 
ATOM      5  C   UNL     1      -0.042  -4.839  -1.190  0.00  0.00    +0.258 C 
ATOM      6  O   UNL     1      -0.055  -4.230  -2.238  0.00  0.00    -0.271 OA
ATOM      7  H   UNL     1       0.149  -4.660   0.809  0.00  0.00    +0.155 HD
BRANCH   4  12
ATOM      8  C   UNL     1      -0.063   1.502   0.016  0.00  0.00    +0.044 C 
ATOM      9  C   UNL     1      -0.031  -0.005   0.006  0.00  0.00    -0.049 A 
ATOM     10  C   UNL     1      -0.622  -0.701  -1.033  0.00  0.00    +0.005 A 
ATOM     11  C   UNL     1      -0.594  -2.081  -1.046  0.00  0.00    +0.025 A 
ATOM     12  C   UNL     1       0.028  -2.772  -0.014  0.00  0.00    +0.052 A 
ATOM     13  C   UNL     1       0.621  -2.070   1.029  0.00  0.00    +0.062 A 
ATOM     14  C   UNL     1       0.595  -0.688   1.032  0.00  0.00    +0.025 A 
ATOM     15 CL   UNL     1       1.401  -2.928   2.321  0.00  0.00    -0.082 Cl
ENDBRANCH   4  12
ENDBRANCH   2   5
ENDBRANCH   1   2
BRANCH   1  16
ATOM     16  C   UNL     1      -1.047  -7.949  -2.673  0.00  0.00    +0.341 C 
ATOM     17  O   UNL     1      -1.464  -8.536  -1.695  0.00  0.00    -0.245 OA
BRANCH  16  18
ATOM     18  C   UNL     1      -1.305  -8.487  -4.024  0.00  0.00    +0.078 A 
ATOM     19  C   UNL     1      -2.034  -9.670  -4.190  0.00  0.00    +0.026 A 
ATOM     20  C   UNL     1      -2.250 -10.134  -5.487  0.00  0.00    +0.004 A 
ATOM     21  C   UNL     1      -1.735  -9.409  -6.560  0.00  0.00    +0.119 A 
ATOM     22  N   UNL     1      -1.052  -8.299  -6.363  0.00  0.00    -0.262 NA
ATOM     23  C   UNL     1      -0.830  -7.821  -5.156  0.00  0.00    +0.125 A 
BRANCH  20  24
ATOM     24  C   UNL     1      -3.017 -11.384  -5.721  0.00  0.00    +0.021 A 
ATOM     25  C   UNL     1      -3.593 -12.205  -4.732  0.00  0.00    +0.143 A 
ATOM     26  N   UNL     1      -4.182 -13.207  -5.329  0.00  0.00    -0.179 NA
ATOM     27  N   UNL     1      -4.006 -13.067  -6.711  0.00  0.00    -0.274 N 
ATOM     28  C   UNL     1      -3.296 -11.943  -6.934  0.00  0.00    +0.116 A 
ATOM     29  C   UNL     1      -4.512 -13.981  -7.738  0.00  0.00    +0.172 C 
ENDBRANCH  20  24
ENDBRANCH  16  18
ENDBRANCH   1  16
TORSDOF 6
