REMARK  Name = ZINC09325405
REMARK  10 active torsions:
REMARK  status: ('A' for Active; 'I' for Inactive)
REMARK    1  A    between atoms: C_1  and  C_2
REMARK    2  A    between atoms: C_2  and  C_3
REMARK    3  A    between atoms: C_2  and  C_4
REMARK    4  A    between atoms: C_2  and  C_5
REMARK    5  A    between atoms: C_8  and  C_11
REMARK    6  A    between atoms: N_13  and  C_14
REMARK    7  A    between atoms: C_15  and  C_27
REMARK    8  A    between atoms: C_23  and  O_25
REMARK    9  A    between atoms: O_25  and  C_26
REMARK   10  A    between atoms: N_29  and  C_30
REMARK                            x       y       z     vdW  Elec       q    Type
REMARK                         _______ _______ _______ _____ _____    ______ ____
ROOT
ATOM      1  C   UNL     1       1.179   1.675  -0.000  0.00  0.00    +0.085 A 
ATOM      2  C   UNL     1       2.477   1.182  -0.015  0.00  0.00    +0.069 A 
ATOM      3  C   UNL     1       3.563   2.147  -0.019  0.00  0.00    -0.020 A 
ATOM      4  C   UNL     1       3.178   3.442  -0.011  0.00  0.00    +0.013 A 
ATOM      5  S   UNL     1       1.409   3.392  -0.001  0.00  0.00    -0.076 S 
ATOM      6  C   UNL     1       4.072   4.646  -0.017  0.00  0.00    +0.153 C 
ATOM      7  N   UNL     1       5.450   4.165   0.204  0.00  0.00    -0.262 N 
ATOM      8  C   UNL     1       5.868   2.949  -0.509  0.00  0.00    +0.116 C 
ATOM      9  C   UNL     1       5.037   1.760  -0.025  0.00  0.00    +0.056 C 
ATOM     10  C   UNL     1       6.294   4.817   1.029  0.00  0.00    +0.403 C 
ATOM     11  O   UNL     1       7.424   4.401   1.195  0.00  0.00    -0.226 OA
ENDROOT
BRANCH   2  12
ATOM     12  C   UNL     1       2.741  -0.260  -0.028  0.00  0.00    +0.246 C 
ATOM     13  O   UNL     1       2.841  -0.851  -1.087  0.00  0.00    -0.270 OA
ATOM     14  N   UNL     1       2.874  -0.931   1.134  0.00  0.00    -0.314 N 
ATOM     15  C   UNL     1       3.139  -2.372   1.122  0.00  0.00    +0.128 C 
ATOM     16  H   UNL     1       2.794  -0.459   1.978  0.00  0.00    +0.149 HD
ENDBRANCH   2  12
BRANCH   1  19
ATOM     17  C   UNL     1      -1.187   1.624   0.017  0.00  0.00    +0.249 C 
ATOM     18  O   UNL     1      -1.204   2.839   0.023  0.00  0.00    -0.270 OA
ATOM     19  N   UNL     1      -0.011   0.966   0.007  0.00  0.00    -0.275 N 
ATOM     20  H   UNL     1       0.002  -0.004   0.002  0.00  0.00    +0.156 HD
BRANCH  17  24
ATOM     21  C   UNL     1      -4.836  -0.550   0.022  0.00  0.00    -0.042 A 
ATOM     22  C   UNL     1      -4.859   0.834   0.030  0.00  0.00    +0.005 A 
ATOM     23  C   UNL     1      -3.677   1.546   0.028  0.00  0.00    +0.013 A 
ATOM     24  C   UNL     1      -2.457   0.868   0.018  0.00  0.00    +0.037 A 
ATOM     25  C   UNL     1      -2.442  -0.528   0.005  0.00  0.00    +0.013 A 
ATOM     26  C   UNL     1      -3.631  -1.228   0.013  0.00  0.00    +0.005 A 
BRANCH  21  28
ATOM     27  C   UNL     1      -6.944  -0.955  -1.220  0.00  0.00    +0.015 C 
ATOM     28  C   UNL     1      -6.131  -1.321   0.023  0.00  0.00    -0.013 C 
ATOM     29  C   UNL     1      -5.831  -2.821   0.013  0.00  0.00    +0.015 C 
ATOM     30  C   UNL     1      -6.933  -0.969   1.278  0.00  0.00    +0.015 C 
ENDBRANCH  21  28
ENDBRANCH  17  24
ENDBRANCH   1  19
BRANCH  10  31
ATOM     31  O   UNL     1       5.885   5.928   1.670  0.00  0.00    -0.454 OA
ATOM     32  C   UNL     1       6.846   6.578   2.542  0.00  0.00    +0.282 C 
ENDBRANCH  10  31
TORSDOF 5
