REMARK  Name = ZINC11898444
REMARK  7 active torsions:
REMARK  status: ('A' for Active; 'I' for Inactive)
REMARK    1  A    between atoms: C_1  and  N_2
REMARK    2  A    between atoms: C_6  and  C_7
REMARK    3  A    between atoms: C_7  and  C_9
REMARK    4  A    between atoms: C_7  and  N_65
REMARK    5  A    between atoms: C_9  and  N_10
REMARK    6  A    between atoms: C_11  and  C_13
REMARK    7  A    between atoms: N_15  and  C_16
REMARK                            x       y       z     vdW  Elec       q    Type
REMARK                         _______ _______ _______ _____ _____    ______ ____
ROOT
ATOM      1  C   UNL     1      -1.190  -0.942   0.042  0.00  0.00    -0.003 C 
ENDROOT
BRANCH   1  11
ATOM      2  C   UNL     1      -1.291  -3.341  -0.285  0.00  0.00    -0.073 C 
ATOM      3  C   UNL     1      -0.396  -4.580  -0.319  0.00  0.00    +0.017 C 
ATOM      4  C   UNL     1       0.229  -4.800   1.035  0.00  0.00    -0.048 A 
ATOM      5  C   UNL     1       0.781  -6.041   1.314  0.00  0.00    +0.004 A 
ATOM      6  C   UNL     1       1.368  -6.283   2.540  0.00  0.00    +0.000 A 
ATOM      7  C   UNL     1       1.404  -5.284   3.495  0.00  0.00    +0.000 A 
ATOM      8  C   UNL     1       0.853  -4.049   3.218  0.00  0.00    +0.002 A 
ATOM      9  C   UNL     1       0.262  -3.804   1.987  0.00  0.00    -0.061 A 
ATOM     10  C   UNL     1      -0.330  -2.443   1.734  0.00  0.00    -0.042 C 
ATOM     11  N   UNL     1      -0.503  -2.231   0.287  0.00  0.00    +0.389 N 
ATOM     12  H   UNL     1       0.420  -2.208  -0.162  0.00  0.00    -0.080 HD
ENDBRANCH   1  11
BRANCH   1  18
ATOM     13  C   UNL     1      -1.800   2.091  -0.153  0.00  0.00    +0.148 C 
ATOM     14  N   UNL     1      -0.512   1.516   0.241  0.00  0.00    -0.355 N 
ATOM     15  C   UNL     1       0.605   2.222   0.576  0.00  0.00    +0.085 A 
ATOM     16  C   UNL     1       1.585   1.345   0.873  0.00  0.00    +0.019 A 
ATOM     17  C   UNL     1       1.054   0.050   0.716  0.00  0.00    +0.021 A 
ATOM     18  C   UNL     1      -0.231   0.184   0.329  0.00  0.00    +0.006 A 
ENDBRANCH   1  18
BRANCH   1  19
ATOM     19  C   UNL     1      -2.414  -0.813   0.950  0.00  0.00    +0.095 C 
BRANCH  19  20
ATOM     20  N   UNL     1      -3.400  -1.835   0.589  0.00  0.00    -0.309 N 
ATOM     21  C   UNL     1      -4.501  -2.007   1.347  0.00  0.00    +0.299 C 
ATOM     22  O   UNL     1      -4.676  -1.315   2.329  0.00  0.00    -0.265 OA
ATOM     23  H   UNL     1      -3.261  -2.387  -0.196  0.00  0.00    +0.149 HD
BRANCH  21  24
ATOM     24  C   UNL     1      -5.507  -3.049   0.979  0.00  0.00    +0.299 C 
ATOM     25  O   UNL     1      -5.332  -3.740  -0.003  0.00  0.00    -0.265 OA
ATOM     26  N   UNL     1      -6.607  -3.221   1.737  0.00  0.00    -0.305 N 
ATOM     27  H   UNL     1      -6.747  -2.669   2.522  0.00  0.00    +0.149 HD
BRANCH  26  28
ATOM     28  C   UNL     1      -7.593  -4.243   1.376  0.00  0.00    +0.073 C 
ATOM     29  C   UNL     1      -8.526  -3.675   0.287  0.00  0.00    +0.022 C 
ATOM     30  C   UNL     1      -9.176  -4.824  -0.433  0.00  0.00    +0.002 C 
ATOM     31  C   UNL     1     -10.554  -5.185   0.155  0.00  0.00    +0.000 C 
ATOM     32  C   UNL     1     -10.572  -5.157   1.695  0.00  0.00    +0.000 C 
ATOM     33  C   UNL     1      -9.335  -5.768   2.296  0.00  0.00    +0.002 C 
ATOM     34  C   UNL     1      -8.318  -4.643   2.574  0.00  0.00    +0.022 C 
ENDBRANCH  26  28
ENDBRANCH  21  24
ENDBRANCH  19  20
ENDBRANCH   1  19
TORSDOF 6
