REMARK  Name = ZINC59267204
REMARK  8 active torsions:
REMARK  status: ('A' for Active; 'I' for Inactive)
REMARK    1  A    between atoms: C_1  and  O_2
REMARK    2  A    between atoms: O_2  and  C_3
REMARK    3  A    between atoms: C_5  and  C_12
REMARK    4  A    between atoms: C_8  and  O_9
REMARK    5  A    between atoms: O_9  and  C_10
REMARK    6  A    between atoms: C_23  and  N_30
REMARK    7  A    between atoms: C_25  and  O_28
REMARK    8  A    between atoms: O_28  and  C_29
REMARK                            x       y       z     vdW  Elec       q    Type
REMARK                         _______ _______ _______ _____ _____    ______ ____
ROOT
ATOM      1  C   UNL     1      -4.871   0.258   0.039  0.00  0.00    +0.105 C 
ATOM      2  C   UNL     1      -5.393   0.353  -1.380  0.00  0.00    +0.029 C 
ATOM      3  C   UNL     1      -4.177   0.278  -2.346  0.00  0.00    +0.033 C 
ATOM      4  C   UNL     1      -4.056  -1.193  -2.678  0.00  0.00    -0.030 C 
ATOM      5  C   UNL     1      -5.164  -1.829  -2.389  0.00  0.00    -0.023 C 
ATOM      6  C   UNL     1      -6.201  -0.864  -1.823  0.00  0.00    +0.049 C 
ATOM      7  C   UNL     1      -7.038  -1.476  -0.751  0.00  0.00    -0.014 A 
ATOM      8  C   UNL     1      -8.049  -2.359  -1.107  0.00  0.00    +0.039 A 
ATOM      9  C   UNL     1      -8.852  -2.935  -0.143  0.00  0.00    +0.130 A 
ATOM     10  C   UNL     1      -8.658  -2.636   1.193  0.00  0.00    +0.080 A 
ATOM     11  C   UNL     1      -7.650  -1.762   1.561  0.00  0.00    +0.143 A 
ATOM     12  C   UNL     1      -6.834  -1.187   0.587  0.00  0.00    +0.074 A 
ATOM     13  N   UNL     1      -5.794  -0.356   0.968  0.00  0.00    -0.334 N 
ATOM     14  H   UNL     1      -5.697  -0.159   1.913  0.00  0.00    +0.147 HD
ENDROOT
BRANCH   1  17
ATOM     15  C   UNL     1      -1.201  -0.638   0.010  0.00  0.00    +0.163 A 
ATOM     16  C   UNL     1      -2.374   0.100   0.019  0.00  0.00    +0.055 A 
ATOM     17  C   UNL     1      -3.597  -0.546   0.028  0.00  0.00    -0.022 A 
ATOM     18  C   UNL     1      -3.653  -1.927   0.028  0.00  0.00    +0.024 A 
ATOM     19  C   UNL     1      -2.486  -2.669   0.018  0.00  0.00    +0.063 A 
ATOM     20  C   UNL     1      -1.257  -2.028   0.003  0.00  0.00    +0.175 A 
ATOM     21 BR   UNL     1      -2.567  -4.559   0.019  0.00  0.00    -0.046 Br
BRANCH  15  23
ATOM     22  C   UNL     1      -0.017   1.425   0.010  0.00  0.00    +0.277 C 
ATOM     23  O   UNL     1       0.002  -0.004   0.002  0.00  0.00    -0.491 OA
ENDBRANCH  15  23
BRANCH  20  24
ATOM     24  O   UNL     1      -0.108  -2.756  -0.012  0.00  0.00    -0.490 OA
ATOM     25  C   UNL     1       0.452  -3.110   1.254  0.00  0.00    +0.277 C 
ENDBRANCH  20  24
ENDBRANCH   1  17
BRANCH   9  26
ATOM     26  N   UNL     1      -9.924  -3.875  -0.541  0.00  0.00    +0.057 N 
ATOM     27  O   UNL     1     -10.095  -4.137  -1.709  0.00  0.00    -0.126 OA
ATOM     28  O   UNL     1     -10.628  -4.380   0.301  0.00  0.00    -0.126 OA
ENDBRANCH   9  26
BRANCH  11  29
ATOM     29  O   UNL     1      -7.456  -1.464   2.874  0.00  0.00    -0.493 OA
ATOM     30  C   UNL     1      -8.328  -2.089   3.818  0.00  0.00    +0.277 C 
ENDBRANCH  11  29
TORSDOF 5
