REMARK  Name = ZINC64741521
REMARK  7 active torsions:
REMARK  status: ('A' for Active; 'I' for Inactive)
REMARK    1  A    between atoms: C_1  and  C_2
REMARK    2  A    between atoms: C_5  and  C_8
REMARK    3  A    between atoms: C_8  and  S_9
REMARK    4  A    between atoms: S_9  and  C_10
REMARK    5  A    between atoms: C_16  and  C_24
REMARK    6  A    between atoms: N_26  and  C_27
REMARK    7  A    between atoms: C_30  and  C_33
REMARK                            x       y       z     vdW  Elec       q    Type
REMARK                         _______ _______ _______ _____ _____    ______ ____
ROOT
ATOM      1  C   UNL     1       2.345  -6.693  -0.054  0.00  0.00    +0.182 C 
ATOM      2  N   UNL     1       1.072  -7.039   0.025  0.00  0.00    -0.154 NA
ATOM      3  C   UNL     1       0.687  -8.315   0.098  0.00  0.00    +0.249 C 
ATOM      4  O   UNL     1      -0.488  -8.626   0.144  0.00  0.00    -0.273 OA
ATOM      5  C   UNL     1       1.786  -9.357   0.120  0.00  0.00    +0.153 C 
ATOM      6  C   UNL     1       1.529 -10.349  -1.017  0.00  0.00    +0.103 C 
ATOM      7  C   UNL     1       2.532 -11.499  -0.898  0.00  0.00    +0.110 C 
ATOM      8  C   UNL     1       3.930 -10.979  -0.725  0.00  0.00    +0.219 C 
ATOM      9  O   UNL     1       4.857 -11.723  -0.963  0.00  0.00    -0.275 OA
ATOM     10  N   UNL     1       4.198  -9.727  -0.319  0.00  0.00    -0.273 N 
ATOM     11  C   UNL     1       3.197  -8.836  -0.083  0.00  0.00    +0.117 C 
ATOM     12  N   UNL     1       3.372  -7.546  -0.140  0.00  0.00    -0.212 NA
ATOM     13  H   UNL     1       5.119  -9.455  -0.178  0.00  0.00    +0.156 HD
ENDROOT
BRANCH   6  14
ATOM     14  C   UNL     1       1.706  -9.655  -2.342  0.00  0.00    +0.222 C 
ATOM     15  O   UNL     1       2.007  -8.480  -2.377  0.00  0.00    -0.275 OA
ATOM     16  N   UNL     1       1.528 -10.338  -3.490  0.00  0.00    -0.285 N 
ATOM     17  H   UNL     1       1.362 -11.294  -3.465  0.00  0.00    +0.155 HD
BRANCH  16  18
ATOM     18  C   UNL     1       1.583  -9.671  -4.718  0.00  0.00    +0.033 A 
ATOM     19  C   UNL     1       2.078 -10.319  -5.842  0.00  0.00    +0.023 A 
ATOM     20  C   UNL     1       2.131  -9.657  -7.053  0.00  0.00    +0.005 A 
ATOM     21  C   UNL     1       1.691  -8.350  -7.147  0.00  0.00    -0.050 A 
ATOM     22  C   UNL     1       1.198  -7.700  -6.030  0.00  0.00    +0.005 A 
ATOM     23  C   UNL     1       1.136  -8.359  -4.818  0.00  0.00    +0.023 A 
ATOM     24  C   UNL     1       1.750  -7.630  -8.470  0.00  0.00    +0.044 C 
ENDBRANCH  16  18
ENDBRANCH   6  14
BRANCH   1  25
ATOM     25  S   UNL     1       2.719  -4.971  -0.053  0.00  0.00    -0.084 S 
BRANCH  25  26
ATOM     26  C   UNL     1       1.097  -4.170   0.075  0.00  0.00    +0.112 C 
BRANCH  26  31
ATOM     27  C   UNL     1       1.777   1.569   0.117  0.00  0.00    +0.044 C 
ATOM     28  C   UNL     1       1.599   0.072   0.106  0.00  0.00    -0.050 A 
ATOM     29  C   UNL     1       1.434  -0.595  -1.093  0.00  0.00    +0.003 A 
ATOM     30  C   UNL     1       1.272  -1.968  -1.103  0.00  0.00    +0.005 A 
ATOM     31  C   UNL     1       1.275  -2.673   0.086  0.00  0.00    -0.037 A 
ATOM     32  C   UNL     1       1.441  -2.006   1.285  0.00  0.00    +0.005 A 
ATOM     33  C   UNL     1       1.608  -0.633   1.294  0.00  0.00    +0.003 A 
ENDBRANCH  26  31
ENDBRANCH  25  26
ENDBRANCH   1  25
TORSDOF 5
