REMARK  Name = ZINC24840340
REMARK  6 active torsions:
REMARK  status: ('A' for Active; 'I' for Inactive)
REMARK    1  A    between atoms: C_1  and  C_2
REMARK    2  A    between atoms: C_9  and  C_13
REMARK    3  A    between atoms: C_13  and  O_14
REMARK    4  A    between atoms: O_14  and  C_15
REMARK    5  A    between atoms: C_18  and  C_27
REMARK    6  A    between atoms: C_24  and  C_26
REMARK                            x       y       z     vdW  Elec       q    Type
REMARK                         _______ _______ _______ _____ _____    ______ ____
ROOT
ATOM      1  C   UNL     1       4.170   0.021  -0.048  0.00  0.00    +0.284 C 
ENDROOT
BRANCH   1  10
ATOM      2  C   UNL     1       3.348  -6.492   3.151  0.00  0.00    +0.044 C 
ATOM      3  C   UNL     1       3.815  -5.661   1.984  0.00  0.00    -0.046 A 
ATOM      4  C   UNL     1       4.410  -6.276   0.874  0.00  0.00    +0.021 A 
ATOM      5  C   UNL     1       4.830  -5.529  -0.172  0.00  0.00    +0.096 A 
ATOM      6  N   UNL     1       4.680  -4.175  -0.165  0.00  0.00    -0.268 N 
ATOM      7  C   UNL     1       4.103  -3.547   0.903  0.00  0.00    +0.141 A 
ATOM      8  C   UNL     1       3.661  -4.307   2.001  0.00  0.00    +0.050 A 
ATOM      9  N   UNL     1       3.957  -2.224   0.919  0.00  0.00    -0.231 NA
ATOM     10  C   UNL     1       4.355  -1.474  -0.097  0.00  0.00    +0.086 A 
ATOM     11  C   UNL     1       4.944  -2.061  -1.200  0.00  0.00    +0.097 A 
ATOM     12  C   UNL     1       5.106  -3.451  -1.222  0.00  0.00    +0.259 A 
ATOM     13  O   UNL     1       5.623  -4.000  -2.182  0.00  0.00    -0.267 OA
ENDBRANCH   1  10
BRANCH   1  14
ATOM     14  O   UNL     1       2.775   0.328  -0.042  0.00  0.00    -0.485 OA
BRANCH  14  15
ATOM     15  C   UNL     1       2.433   1.640   0.001  0.00  0.00    +0.132 A 
ATOM     16  C   UNL     1       3.419   2.612   0.037  0.00  0.00    +0.046 A 
ATOM     17  C   UNL     1       3.073   3.948   0.081  0.00  0.00    +0.007 A 
ATOM     18  C   UNL     1       1.740   4.325   0.089  0.00  0.00    -0.046 A 
ATOM     19  C   UNL     1       0.743   3.372   0.054  0.00  0.00    -0.027 A 
ATOM     20  C   UNL     1       1.075   2.016   0.009  0.00  0.00    +0.063 A 
ATOM     21  C   UNL     1      -0.135   1.186  -0.023  0.00  0.00    +0.168 C 
ATOM     22  O   UNL     1      -0.166  -0.026  -0.064  0.00  0.00    -0.292 OA
ATOM     23  C   UNL     1      -1.335   2.102  -0.002  0.00  0.00    +0.087 C 
ATOM     24  C   UNL     1      -0.759   3.523   0.054  0.00  0.00    +0.024 C 
ATOM     25  C   UNL     1      -1.216   4.232   1.331  0.00  0.00    +0.013 C 
ATOM     26  C   UNL     1       1.376   5.786   0.138  0.00  0.00    +0.044 C 
ENDBRANCH  14  15
ENDBRANCH   1  14
TORSDOF 3
