REMARK  Name = ZINC49548497
REMARK  4 active torsions:
REMARK  status: ('A' for Active; 'I' for Inactive)
REMARK    1  A    between atoms: C_1  and  N_2
REMARK    2  A    between atoms: C_7  and  C_13
REMARK    3  A    between atoms: C_10  and  O_12
REMARK    4  A    between atoms: C_16  and  C_18
REMARK                            x       y       z     vdW  Elec       q    Type
REMARK                         _______ _______ _______ _____ _____    ______ ____
ROOT
ATOM      1  C   UNL     1       1.493  -3.636  -1.927  0.00  0.00    +0.114 A 
ATOM      2  C   UNL     1       2.064  -4.835  -1.699  0.00  0.00    +0.046 A 
ATOM      3  C   UNL     1       3.400  -4.747  -2.140  0.00  0.00    +0.050 A 
ATOM      4  C   UNL     1       3.571  -3.486  -2.619  0.00  0.00    +0.137 A 
ATOM      5  O   UNL     1       2.405  -2.825  -2.489  0.00  0.00    -0.459 OA
ENDROOT
BRANCH   1  12
ATOM      6  C   UNL     1      -0.018   1.461   0.010  0.00  0.00    +0.174 C 
ATOM      7  N   UNL     1       0.002  -0.004   0.002  0.00  0.00    -0.250 N 
ATOM      8  C   UNL     1       0.008  -0.794  -1.093  0.00  0.00    +0.158 A 
ATOM      9  C   UNL     1       0.038  -2.109  -0.647  0.00  0.00    +0.027 A 
ATOM     10  C   UNL     1       0.042  -2.090   0.735  0.00  0.00    +0.141 A 
ATOM     11  N   UNL     1       0.025  -0.838   1.132  0.00  0.00    -0.178 NA
ATOM     12  C   UNL     1       0.066  -3.268  -1.611  0.00  0.00    +0.099 C 
ATOM     13  C   UNL     1      -0.654  -2.825  -2.891  0.00  0.00    +0.111 C 
ATOM     14  C   UNL     1      -0.269  -1.428  -3.282  0.00  0.00    +0.190 C 
ATOM     15  N   UNL     1       0.011  -0.494  -2.424  0.00  0.00    -0.198 NA
BRANCH  14  16
ATOM     16  O   UNL     1      -0.211  -1.126  -4.596  0.00  0.00    -0.495 OA
ATOM     17  H   UNL     1       0.043  -0.211  -4.778  0.00  0.00    +0.293 HD
ENDBRANCH  14  16
ENDBRANCH   1  12
BRANCH   4  18
ATOM     18  C   UNL     1       4.820  -2.937  -3.189  0.00  0.00    +0.037 A 
ATOM     19  C   UNL     1       6.026  -3.077  -2.500  0.00  0.00    +0.033 A 
ATOM     20  C   UNL     1       7.188  -2.563  -3.038  0.00  0.00    +0.042 A 
ATOM     21  C   UNL     1       7.160  -1.908  -4.258  0.00  0.00    +0.021 A 
ATOM     22  C   UNL     1       5.968  -1.765  -4.945  0.00  0.00    +0.022 A 
ATOM     23  C   UNL     1       4.799  -2.280  -4.421  0.00  0.00    +0.052 A 
ATOM     24 CL   UNL     1       3.306  -2.106  -5.289  0.00  0.00    -0.083 Cl
ATOM     25 CL   UNL     1       8.689  -2.736  -2.183  0.00  0.00    -0.084 Cl
ENDBRANCH   4  18
TORSDOF 3
