REMARK  Name = ZINC63296353
REMARK  4 active torsions:
REMARK  status: ('A' for Active; 'I' for Inactive)
REMARK    1  A    between atoms: C_7  and  C_10
REMARK    2  A    between atoms: C_10  and  C_11
REMARK    3  A    between atoms: C_14  and  C_18
REMARK    4  A    between atoms: N_20  and  C_21
REMARK                            x       y       z     vdW  Elec       q    Type
REMARK                         _______ _______ _______ _____ _____    ______ ____
ROOT
ATOM      1  C   UNL     1       0.457  -3.653  -1.462  0.00  0.00    +0.154 C 
ATOM      2  N   UNL     1      -0.507  -4.779  -1.494  0.00  0.00    -0.265 NA
ATOM      3  C   UNL     1      -1.360  -4.562  -2.679  0.00  0.00    +0.297 C 
ATOM      4  O   UNL     1      -0.896  -3.361  -3.323  0.00  0.00    -0.270 OA
ATOM      5  N   UNL     1      -0.217  -2.591  -2.255  0.00  0.00    -0.181 NA
ATOM      6  H   UNL     1      -0.026  -5.665  -1.551  0.00  0.00    +0.126 HD
ATOM      7  H   UNL     1       0.457  -1.947  -2.643  0.00  0.00    +0.156 HD
ENDROOT
BRANCH   3   8
ATOM      8  C   UNL     1      -1.237  -5.732  -3.621  0.00  0.00    +0.259 C 
ATOM      9  O   UNL     1      -2.170  -6.493  -3.767  0.00  0.00    -0.271 OA
ATOM     10  N   UNL     1      -0.091  -5.933  -4.300  0.00  0.00    -0.309 N 
ATOM     11  H   UNL     1       0.655  -5.324  -4.184  0.00  0.00    +0.149 HD
BRANCH  10  12
ATOM     12  C   UNL     1       0.028  -7.071  -5.216  0.00  0.00    +0.073 C 
ATOM     13  C   UNL     1       0.519  -8.316  -4.449  0.00  0.00    +0.022 C 
ATOM     14  C   UNL     1       1.463  -9.030  -5.449  0.00  0.00    +0.002 C 
ATOM     15  C   UNL     1       2.183  -7.847  -6.143  0.00  0.00    +0.002 C 
ATOM     16  C   UNL     1       1.086  -6.772  -6.293  0.00  0.00    +0.022 C 
ENDBRANCH  10  12
ENDBRANCH   3   8
BRANCH   1  17
ATOM     17  C   UNL     1       0.691  -3.186  -0.024  0.00  0.00    +0.070 C 
BRANCH  17  24
ATOM     18  C   UNL     1      -0.016   1.348   0.009  0.00  0.00    +0.001 A 
ATOM     19  C   UNL     1       1.166   2.101   0.002  0.00  0.00    +0.002 A 
ATOM     20  C   UNL     1       2.391   1.535  -0.013  0.00  0.00    +0.026 A 
ATOM     21  C   UNL     1       2.529   0.120  -0.022  0.00  0.00    +0.043 A 
ATOM     22  N   UNL     1       3.587  -0.654  -0.037  0.00  0.00    -0.380 N 
ATOM     23  C   UNL     1       3.143  -2.053  -0.041  0.00  0.00    +0.144 C 
ATOM     24  C   UNL     1       1.631  -2.008  -0.025  0.00  0.00    -0.039 C 
ATOM     25  C   UNL     1       1.295  -0.698  -0.014  0.00  0.00    -0.001 A 
ATOM     26  C   UNL     1       0.002  -0.004   0.002  0.00  0.00    +0.010 A 
ATOM     27  H   UNL     1       4.509  -0.353  -0.045  0.00  0.00    +0.160 HD
ENDBRANCH  17  24
ENDBRANCH   1  17
TORSDOF 4
