REMARK  Name = ZINC12772055
REMARK  6 active torsions:
REMARK  status: ('A' for Active; 'I' for Inactive)
REMARK    1  A    between atoms: C_1  and  C_2
REMARK    2  A    between atoms: C_5  and  O_8
REMARK    3  A    between atoms: O_8  and  C_9
REMARK    4  A    between atoms: C_12  and  N_15
REMARK    5  A    between atoms: C_16  and  C_18
REMARK    6  A    between atoms: C_22  and  C_28
REMARK                            x       y       z     vdW  Elec       q    Type
REMARK                         _______ _______ _______ _____ _____    ______ ____
ROOT
ATOM      1  C   UNL     1       1.144   3.210   0.077  0.00  0.00    +0.129 A 
ATOM      2  C   UNL     1       0.977   1.870   0.395  0.00  0.00    +0.048 A 
ATOM      3  C   UNL     1      -0.286   1.312   0.395  0.00  0.00    +0.027 A 
ATOM      4  C   UNL     1      -1.389   2.092   0.072  0.00  0.00    +0.034 A 
ATOM      5  C   UNL     1      -1.222   3.435  -0.241  0.00  0.00    +0.027 A 
ATOM      6  C   UNL     1       0.042   3.991  -0.240  0.00  0.00    +0.048 A 
ENDROOT
BRANCH   4   7
ATOM      7  N   UNL     1      -2.671   1.526   0.067  0.00  0.00    -0.284 N 
ATOM      8  C   UNL     1      -2.982   0.554   0.947  0.00  0.00    +0.239 C 
ATOM      9  O   UNL     1      -2.180   0.225   1.796  0.00  0.00    -0.273 OA
ATOM     10  H   UNL     1      -3.334   1.833  -0.571  0.00  0.00    +0.155 HD
BRANCH   8  11
ATOM     11  C   UNL     1      -4.325  -0.125   0.876  0.00  0.00    +0.173 C 
ATOM     12  C   UNL     1      -4.485  -0.846  -0.500  0.00  0.00    +0.103 C 
ATOM     13  S   UNL     1      -5.860  -2.000  -0.064  0.00  0.00    -0.133 S 
ATOM     14  C   UNL     1      -5.685  -1.932   1.764  0.00  0.00    +0.082 C 
ATOM     15  N   UNL     1      -4.421  -1.163   1.926  0.00  0.00    -0.275 N 
ATOM     16  C   UNL     1      -3.724  -1.669   2.964  0.00  0.00    +0.217 C 
ATOM     17  O   UNL     1      -2.752  -1.146   3.466  0.00  0.00    -0.276 OA
ATOM     18  C   UNL     1      -4.325  -2.982   3.414  0.00  0.00    +0.099 C 
ATOM     19  C   UNL     1      -5.355  -3.332   2.312  0.00  0.00    +0.046 C 
ATOM     20  C   UNL     1      -6.890  -1.292   2.456  0.00  0.00    +0.044 C 
ENDBRANCH   8  11
ENDBRANCH   4   7
BRANCH   1  21
ATOM     21  O   UNL     1       2.388   3.759   0.078  0.00  0.00    -0.456 OA
BRANCH  21  26
ATOM     22  C   UNL     1       3.836   7.026   4.431  0.00  0.00    +0.044 C 
ATOM     23  C   UNL     1       3.449   6.151   3.267  0.00  0.00    -0.050 A 
ATOM     24  C   UNL     1       4.349   5.928   2.242  0.00  0.00    +0.007 A 
ATOM     25  C   UNL     1       3.997   5.127   1.173  0.00  0.00    +0.046 A 
ATOM     26  C   UNL     1       2.737   4.546   1.129  0.00  0.00    +0.128 A 
ATOM     27  C   UNL     1       1.833   4.776   2.156  0.00  0.00    +0.046 A 
ATOM     28  C   UNL     1       2.193   5.574   3.225  0.00  0.00    +0.007 A 
ENDBRANCH  21  26
ENDBRANCH   1  21
TORSDOF 4
