REMARK  Name = ZINC52457097
REMARK  6 active torsions:
REMARK  status: ('A' for Active; 'I' for Inactive)
REMARK    1  A    between atoms: C_1  and  C_2
REMARK    2  A    between atoms: N_5  and  C_11
REMARK    3  A    between atoms: C_7  and  C_10
REMARK    4  A    between atoms: C_14  and  C_18
REMARK    5  A    between atoms: C_18  and  N_19
REMARK    6  A    between atoms: N_24  and  C_25
REMARK                            x       y       z     vdW  Elec       q    Type
REMARK                         _______ _______ _______ _____ _____    ______ ____
ROOT
ATOM      1  C   UNL     1       2.795   0.528  -2.199  0.00  0.00    +0.066 A 
ATOM      2  C   UNL     1       2.817   1.915  -2.236  0.00  0.00    +0.026 A 
ATOM      3  C   UNL     1       3.462   2.567  -3.270  0.00  0.00    +0.007 A 
ATOM      4  C   UNL     1       4.085   1.840  -4.267  0.00  0.00    -0.027 A 
ATOM      5  C   UNL     1       4.065   0.457  -4.235  0.00  0.00    +0.045 A 
ATOM      6  C   UNL     1       3.427  -0.202  -3.200  0.00  0.00    +0.145 A 
ATOM      7  F   UNL     1       3.412  -1.552  -3.165  0.00  0.00    -0.204 F 
ENDROOT
BRANCH   1  11
ATOM      8  C   UNL     1      -0.019   1.526   0.010  0.00  0.00    +0.039 C 
ATOM      9  C   UNL     1       0.002  -0.004   0.002  0.00  0.00    +0.133 C 
ATOM     10  C   UNL     1       0.722  -0.499  -1.258  0.00  0.00    +0.136 C 
ATOM     11  N   UNL     1       2.143  -0.135  -1.154  0.00  0.00    -0.323 N 
ATOM     12  C   UNL     1       2.860  -0.488   0.082  0.00  0.00    +0.136 C 
ATOM     13  C   UNL     1       2.036   0.007   1.277  0.00  0.00    +0.133 C 
ATOM     14  O   UNL     1       0.695  -0.479   1.159  0.00  0.00    -0.371 OA
ATOM     15  C   UNL     1       2.656  -0.513   2.575  0.00  0.00    +0.039 C 
ENDBRANCH   1  11
BRANCH   4  16
ATOM     16  C   UNL     1       4.786   2.555  -5.393  0.00  0.00    +0.139 C 
BRANCH  16  17
ATOM     17  N   UNL     1       6.186   2.788  -5.027  0.00  0.00    -0.308 N 
ATOM     18  C   UNL     1       7.034   3.433  -5.909  0.00  0.00    +0.240 A 
ATOM     19  N   UNL     1       6.719   3.894  -7.100  0.00  0.00    -0.092 NA
ATOM     20  N   UNL     1       7.740   4.439  -7.656  0.00  0.00    -0.021 NA
ATOM     21  N   UNL     1       8.766   4.368  -6.878  0.00  0.00    -0.038 NA
ATOM     22  N   UNL     1       8.344   3.716  -5.707  0.00  0.00    -0.181 N 
ATOM     23  H   UNL     1       6.518   2.489  -4.166  0.00  0.00    +0.149 HD
BRANCH  22  24
ATOM     24  C   UNL     1       9.115   3.418  -4.573  0.00  0.00    +0.071 A 
ATOM     25  C   UNL     1       8.538   3.454  -3.311  0.00  0.00    +0.028 A 
ATOM     26  C   UNL     1       9.299   3.160  -2.197  0.00  0.00    +0.002 A 
ATOM     27  C   UNL     1      10.634   2.831  -2.337  0.00  0.00    +0.000 A 
ATOM     28  C   UNL     1      11.212   2.794  -3.593  0.00  0.00    +0.002 A 
ATOM     29  C   UNL     1      10.454   3.081  -4.712  0.00  0.00    +0.028 A 
ENDBRANCH  22  24
ENDBRANCH  16  17
ENDBRANCH   4  16
TORSDOF 4
