REMARK  Name = ZINC23698168
REMARK  4 active torsions:
REMARK  status: ('A' for Active; 'I' for Inactive)
REMARK    1  A    between atoms: C_1  and  C_2
REMARK    2  A    between atoms: C_5  and  C_25
REMARK    3  A    between atoms: N_8  and  C_10
REMARK    4  A    between atoms: C_10  and  C_11
REMARK                            x       y       z     vdW  Elec       q    Type
REMARK                         _______ _______ _______ _____ _____    ______ ____
ROOT
ATOM      1  C   UNL     1      -4.587   4.793   0.068  0.00  0.00    +0.118 A 
ATOM      2  N   UNL     1      -5.353   3.674   0.069  0.00  0.00    -0.193 NA
ATOM      3  C   UNL     1      -4.779   2.451   0.058  0.00  0.00    +0.316 A 
ATOM      4  O   UNL     1      -5.463   1.441   0.060  0.00  0.00    -0.262 OA
ATOM      5  C   UNL     1      -3.368   2.369   0.045  0.00  0.00    +0.220 A 
ATOM      6  C   UNL     1      -2.643   3.556   0.044  0.00  0.00    +0.124 A 
ATOM      7  N   UNL     1      -3.285   4.735   0.055  0.00  0.00    -0.230 NA
ATOM      8  C   UNL     1      -1.227   3.158   0.029  0.00  0.00    +0.046 A 
ATOM      9  C   UNL     1      -0.022   3.858   0.022  0.00  0.00    +0.014 A 
ATOM     10  C   UNL     1       1.169   3.167   0.007  0.00  0.00    +0.001 A 
ATOM     11  C   UNL     1       1.172   1.780   0.000  0.00  0.00    +0.004 A 
ATOM     12  C   UNL     1      -0.013   1.076   0.008  0.00  0.00    +0.047 A 
ATOM     13  C   UNL     1      -1.227   1.754   0.017  0.00  0.00    +0.138 A 
ATOM     14  O   UNL     1      -2.508   1.330   0.033  0.00  0.00    -0.448 OA
ENDROOT
BRANCH   1  15
ATOM     15  C   UNL     1      -5.261   6.141   0.081  0.00  0.00    -0.001 C 
BRANCH  15  21
ATOM     16  C   UNL     1      -1.516   8.190   2.525  0.00  0.00    +0.005 C 
ATOM     17  C   UNL     1      -2.317   8.194   1.221  0.00  0.00    -0.031 C 
ATOM     18  C   UNL     1      -2.899   9.590   0.982  0.00  0.00    +0.003 C 
ATOM     19  C   UNL     1      -3.748   9.569  -0.292  0.00  0.00    -0.031 C 
ATOM     20  C   UNL     1      -4.848   8.516  -0.149  0.00  0.00    -0.075 C 
ATOM     21  N   UNL     1      -4.240   7.198   0.077  0.00  0.00    +0.385 N 
ATOM     22  C   UNL     1      -3.459   7.180   1.320  0.00  0.00    -0.075 C 
ATOM     23  C   UNL     1      -2.862   9.223  -1.490  0.00  0.00    +0.005 C 
ATOM     24  H   UNL     1      -3.550   7.001  -0.756  0.00  0.00    -0.081 HD
ENDBRANCH  15  21
ENDBRANCH   1  15
TORSDOF 2
