REMARK  Name = ZINC44025596
REMARK  5 active torsions:
REMARK  status: ('A' for Active; 'I' for Inactive)
REMARK    1  A    between atoms: C_1  and  C_2
REMARK    2  A    between atoms: C_2  and  C_3
REMARK    3  A    between atoms: C_2  and  C_4
REMARK    4  A    between atoms: C_5  and  C_10
REMARK    5  A    between atoms: N_7  and  C_9
REMARK                            x       y       z     vdW  Elec       q    Type
REMARK                         _______ _______ _______ _____ _____    ______ ____
ROOT
ATOM      1  C   UNL     1      -1.353  -1.852  -2.193  0.00  0.00    +0.031 C 
ATOM      2  C   UNL     1      -2.045  -2.638  -3.056  0.00  0.00    +0.080 C 
ATOM      3  C   UNL     1      -1.613  -3.261  -4.326  0.00  0.00    +0.276 C 
ATOM      4  O   UNL     1      -0.482  -3.114  -4.763  0.00  0.00    -0.267 OA
ATOM      5  N   UNL     1      -2.512  -3.983  -4.959  0.00  0.00    -0.154 NA
ATOM      6  C   UNL     1      -3.740  -4.151  -4.496  0.00  0.00    +0.154 C 
ATOM      7  S   UNL     1      -3.735  -3.219  -2.973  0.00  0.00    -0.052 S 
ATOM      8  N   UNL     1      -4.767  -4.871  -5.049  0.00  0.00    -0.311 N 
ATOM      9  C   UNL     1      -6.076  -4.938  -4.386  0.00  0.00    +0.107 C 
ATOM     10  C   UNL     1      -7.157  -4.516  -5.387  0.00  0.00    +0.019 C 
ATOM     11  C   UNL     1      -7.045  -5.378  -6.646  0.00  0.00    +0.003 C 
ATOM     12  C   UNL     1      -5.676  -5.161  -7.295  0.00  0.00    +0.019 C 
ATOM     13  C   UNL     1      -4.580  -5.585  -6.320  0.00  0.00    +0.107 C 
ENDROOT
BRANCH   1  15
ATOM     14  C   UNL     1      -1.412  -0.526   0.013  0.00  0.00    +0.073 A 
ATOM     15  C   UNL     1      -2.001  -1.350  -0.975  0.00  0.00    +0.017 A 
ATOM     16  C   UNL     1      -3.304  -1.593  -0.577  0.00  0.00    +0.116 A 
ATOM     17  N   UNL     1      -3.494  -0.951   0.589  0.00  0.00    -0.274 N 
ATOM     18  N   UNL     1      -2.304  -0.301   0.937  0.00  0.00    -0.176 NA
ATOM     19  C   UNL     1      -4.735  -0.939   1.367  0.00  0.00    +0.172 C 
BRANCH  14  21
ATOM     20  C   UNL     1      -0.019   1.526   0.010  0.00  0.00    +0.014 C 
ATOM     21  C   UNL     1       0.002  -0.004   0.002  0.00  0.00    +0.034 C 
ATOM     22  C   UNL     1       0.742  -0.511   1.242  0.00  0.00    +0.014 C 
ENDBRANCH  14  21
ENDBRANCH   1  15
TORSDOF 2
