REMARK  Name = ZINC66594781
REMARK  5 active torsions:
REMARK  status: ('A' for Active; 'I' for Inactive)
REMARK    1  A    between atoms: C_1  and  C_2
REMARK    2  A    between atoms: C_7  and  N_10
REMARK    3  A    between atoms: C_11  and  C_13
REMARK    4  A    between atoms: C_13  and  N_14
REMARK    5  A    between atoms: N_22  and  C_23
REMARK                            x       y       z     vdW  Elec       q    Type
REMARK                         _______ _______ _______ _____ _____    ______ ____
ROOT
ATOM      1  N   UNL     1       1.181  -5.784   4.273  0.00  0.00    -0.291 NA
ATOM      2  C   UNL     1       1.325  -6.846   3.267  0.00  0.00    +0.104 C 
ATOM      3  C   UNL     1       0.710  -8.142   3.806  0.00  0.00    +0.124 C 
ATOM      4  N   UNL     1       1.314  -8.438   5.113  0.00  0.00    -0.283 N 
ATOM      5  C   UNL     1       1.330  -7.374   6.129  0.00  0.00    +0.124 C 
ATOM      6  C   UNL     1       1.921  -6.108   5.500  0.00  0.00    +0.104 C 
ATOM      7  C   UNL     1       1.839  -9.652   5.374  0.00  0.00    +0.307 C 
ATOM      8  O   UNL     1       1.736 -10.547   4.558  0.00  0.00    -0.252 OA
ATOM      9  N   UNL     1       2.479  -9.873   6.540  0.00  0.00    -0.267 N 
ATOM     10  H   UNL     1       2.503  -9.181   7.219  0.00  0.00    +0.156 HD
ENDROOT
BRANCH   9  11
ATOM     11  C   UNL     1       3.109 -11.104   6.771  0.00  0.00    +0.070 A 
ATOM     12  C   UNL     1       3.405 -11.944   5.706  0.00  0.00    +0.029 A 
ATOM     13  C   UNL     1       4.026 -13.156   5.935  0.00  0.00    +0.040 A 
ATOM     14  C   UNL     1       4.354 -13.535   7.226  0.00  0.00    +0.126 A 
ATOM     15  C   UNL     1       4.060 -12.700   8.291  0.00  0.00    +0.078 A 
ATOM     16  C   UNL     1       3.444 -11.482   8.066  0.00  0.00    +0.147 A 
ATOM     17  F   UNL     1       3.162 -10.664   9.103  0.00  0.00    -0.203 F 
ATOM     18  F   UNL     1       4.962 -14.721   7.447  0.00  0.00    -0.205 F 
ENDBRANCH   9  11
BRANCH   1  19
ATOM     19  C   UNL     1       1.602  -4.485   3.731  0.00  0.00    +0.180 C 
BRANCH  19  21
ATOM     20  N   UNL     1       0.855  -2.907   1.979  0.00  0.00    -0.311 N 
ATOM     21  C   UNL     1       0.663  -4.073   2.627  0.00  0.00    +0.227 C 
ATOM     22  O   UNL     1      -0.266  -4.791   2.321  0.00  0.00    -0.274 OA
ATOM     23  H   UNL     1       1.597  -2.333   2.224  0.00  0.00    +0.149 HD
BRANCH  20  29
ATOM     24  C   UNL     1      -0.984   0.959  -0.493  0.00  0.00    +0.007 C 
ATOM     25  C   UNL     1      -0.998  -0.564  -0.354  0.00  0.00    -0.012 C 
ATOM     26  C   UNL     1      -0.547  -1.201  -1.671  0.00  0.00    +0.003 C 
ATOM     27  C   UNL     1      -0.561  -2.724  -1.532  0.00  0.00    +0.002 C 
ATOM     28  C   UNL     1       0.392  -3.143  -0.410  0.00  0.00    +0.022 C 
ATOM     29  C   UNL     1      -0.058  -2.506   0.906  0.00  0.00    +0.073 C 
ATOM     30  C   UNL     1      -0.044  -0.983   0.767  0.00  0.00    +0.025 C 
ENDBRANCH  20  29
ENDBRANCH  19  21
ENDBRANCH   1  19
TORSDOF 4
