REMARK  Name = ZINC35323588
REMARK  8 active torsions:
REMARK  status: ('A' for Active; 'I' for Inactive)
REMARK    1  A    between atoms: C_1  and  C_2
REMARK    2  A    between atoms: C_2  and  O_17
REMARK    3  A    between atoms: C_3  and  C_15
REMARK    4  A    between atoms: C_3  and  C_16
REMARK    5  A    between atoms: C_4  and  C_11
REMARK    6  A    between atoms: C_4  and  C_13
REMARK    7  A    between atoms: C_5  and  C_9
REMARK    8  A    between atoms: O_17  and  C_18
REMARK                            x       y       z     vdW  Elec       q    Type
REMARK                         _______ _______ _______ _____ _____    ______ ____
ROOT
ATOM      1  C   UNL     1      -0.019   1.526   0.010  0.00  0.00    +0.064 C 
ATOM      2  C   UNL     1       0.002  -0.004   0.002  0.00  0.00    +0.139 C 
ATOM      3  C   UNL     1       0.644  -0.508  -1.298  0.00  0.00    +0.047 C 
ATOM      4  C   UNL     1       2.058   0.068  -1.401  0.00  0.00    +0.189 C 
ATOM      5  C   UNL     1       2.804  -0.157  -0.116  0.00  0.00    +0.096 C 
ATOM      6  C   UNL     1       2.179  -0.414   1.046  0.00  0.00    +0.113 C 
ATOM      7  N   UNL     1       0.813  -0.497   1.125  0.00  0.00    -0.306 N 
ATOM      8 CL   UNL     1       3.125  -0.647   2.482  0.00  0.00    -0.066 Cl
ATOM      9  C   UNL     1      -0.188  -0.043  -2.495  0.00  0.00    +0.018 C 
ATOM     10  C   UNL     1       0.712  -2.036  -1.279  0.00  0.00    +0.018 C 
ATOM     11  H   UNL     1       0.387  -0.875   1.910  0.00  0.00    +0.150 HD
ENDROOT
BRANCH   5  12
ATOM     12  C   UNL     1       4.234  -0.097  -0.129  0.00  0.00    +0.100 C 
ATOM     13  N   UNL     1       5.369  -0.048  -0.140  0.00  0.00    -0.191 NA
ENDBRANCH   5  12
BRANCH   4  14
ATOM     14  C   UNL     1       2.775  -0.592  -2.503  0.00  0.00    +0.091 C 
ATOM     15  N   UNL     1       3.329  -1.102  -3.354  0.00  0.00    -0.195 NA
ENDBRANCH   4  14
BRANCH   4  16
ATOM     16  C   UNL     1       1.978   1.513  -1.671  0.00  0.00    +0.091 C 
ATOM     17  N   UNL     1       1.916   2.628  -1.880  0.00  0.00    -0.195 NA
ENDBRANCH   4  16
BRANCH   2  18
ATOM     18  O   UNL     1      -1.331  -0.506   0.111  0.00  0.00    -0.359 OA
ATOM     19  C   UNL     1      -2.008  -0.104   1.304  0.00  0.00    +0.196 C 
ENDBRANCH   2  18
TORSDOF 4
