REMARK  Name = ZINC43687482
REMARK  3 active torsions:
REMARK  status: ('A' for Active; 'I' for Inactive)
REMARK    1  A    between atoms: C_5  and  C_6
REMARK    2  A    between atoms: C_6  and  N_7
REMARK    3  A    between atoms: C_15  and  N_16
REMARK                            x       y       z     vdW  Elec       q    Type
REMARK                         _______ _______ _______ _____ _____    ______ ____
ROOT
ATOM      1  N   UNL     1      -1.544  -1.274  -1.371  0.00  0.00    -0.310 N 
ATOM      2  C   UNL     1      -2.524  -0.655  -2.088  0.00  0.00    +0.202 A 
ATOM      3  N   UNL     1      -2.601  -1.177  -3.278  0.00  0.00    -0.231 NA
ATOM      4  C   UNL     1      -1.678  -2.160  -3.400  0.00  0.00    +0.147 A 
ATOM      5  C   UNL     1      -0.985  -2.231  -2.179  0.00  0.00    +0.166 A 
ATOM      6  N   UNL     1      -0.011  -3.125  -2.040  0.00  0.00    -0.216 NA
ATOM      7  C   UNL     1       0.305  -3.933  -3.030  0.00  0.00    +0.225 A 
ATOM      8  N   UNL     1      -0.315  -3.901  -4.196  0.00  0.00    -0.219 NA
ATOM      9  C   UNL     1      -1.308  -3.047  -4.425  0.00  0.00    +0.147 A 
ENDROOT
BRANCH   9  10
ATOM     10  N   UNL     1      -1.950  -3.021  -5.650  0.00  0.00    -0.341 N 
ATOM     11  H   UNL     1      -2.666  -2.385  -5.809  0.00  0.00    +0.144 HD
ATOM     12  H   UNL     1      -1.686  -3.638  -6.350  0.00  0.00    +0.144 HD
ENDBRANCH   9  10
BRANCH   1  13
ATOM     13  C   UNL     1      -1.156  -0.969   0.008  0.00  0.00    +0.167 C 
BRANCH  13  18
ATOM     14  C   UNL     1      -0.016   1.351   0.009  0.00  0.00    +0.028 A 
ATOM     15  C   UNL     1       1.184   2.038   0.002  0.00  0.00    +0.025 A 
ATOM     16  C   UNL     1       2.343   1.335  -0.013  0.00  0.00    +0.060 A 
ATOM     17  S   UNL     1       1.753  -0.350  -0.017  0.00  0.00    -0.099 S 
ATOM     18  C   UNL     1       0.002  -0.004   0.002  0.00  0.00    +0.011 A 
ATOM     19 BR   UNL     1       1.208   3.929   0.011  0.00  0.00    -0.050 Br
ENDBRANCH  13  18
ENDBRANCH   1  13
TORSDOF 3
