REMARK  Name = ZINC21803806
REMARK  4 active torsions:
REMARK  status: ('A' for Active; 'I' for Inactive)
REMARK    1  A    between atoms: C_1  and  C_2
REMARK    2  A    between atoms: C_5  and  S_8
REMARK    3  A    between atoms: S_8  and  N_11
REMARK    4  A    between atoms: C_13  and  C_24
REMARK                            x       y       z     vdW  Elec       q    Type
REMARK                         _______ _______ _______ _____ _____    ______ ____
ROOT
ATOM      1  N   UNL     1      -1.444  -5.352   0.272  0.00  0.00    -0.201 N 
ATOM      2  C   UNL     1      -2.286  -5.397   1.468  0.00  0.00    +0.144 C 
ATOM      3  C   UNL     1      -3.630  -4.716   1.179  0.00  0.00    +0.091 C 
ATOM      4  C   UNL     1      -3.412  -3.438   0.413  0.00  0.00    +0.222 C 
ATOM      5  O   UNL     1      -3.514  -2.371   0.980  0.00  0.00    -0.275 OA
ATOM      6  N   UNL     1      -3.104  -3.473  -0.902  0.00  0.00    -0.284 N 
ATOM      7  C   UNL     1      -2.889  -4.696  -1.549  0.00  0.00    +0.056 A 
ATOM      8  C   UNL     1      -2.023  -5.628  -0.972  0.00  0.00    +0.072 A 
ATOM      9  C   UNL     1      -1.751  -6.816  -1.631  0.00  0.00    +0.026 A 
ATOM     10  C   UNL     1      -2.351  -7.081  -2.849  0.00  0.00    +0.002 A 
ATOM     11  C   UNL     1      -3.223  -6.167  -3.409  0.00  0.00    +0.002 A 
ATOM     12  C   UNL     1      -3.495  -4.974  -2.762  0.00  0.00    +0.025 A 
ATOM     13  C   UNL     1      -4.505  -5.660   0.353  0.00  0.00    +0.019 C 
ATOM     14  H   UNL     1      -3.022  -2.536  -1.472  0.00  0.00    +0.155 HD
ENDROOT
BRANCH   1  15
ATOM     15  S   UNL     1       0.167  -4.987   0.388  0.00  0.00    +0.075 S 
ATOM     16  O   UNL     1       0.796  -5.555  -0.752  0.00  0.00    -0.150 OA
ATOM     17  O   UNL     1       0.562  -5.309   1.715  0.00  0.00    -0.150 OA
BRANCH  15  22
ATOM     18  C   UNL     1       0.685   1.000  -0.160  0.00  0.00    +0.044 C 
ATOM     19  C   UNL     1       0.556  -0.496  -0.023  0.00  0.00    -0.050 A 
ATOM     20  C   UNL     1       0.604  -1.300  -1.147  0.00  0.00    +0.005 A 
ATOM     21  C   UNL     1       0.490  -2.671  -1.021  0.00  0.00    +0.029 A 
ATOM     22  C   UNL     1       0.319  -3.239   0.228  0.00  0.00    +0.109 A 
ATOM     23  C   UNL     1       0.265  -2.434   1.351  0.00  0.00    +0.029 A 
ATOM     24  C   UNL     1       0.384  -1.063   1.225  0.00  0.00    +0.005 A 
ENDBRANCH  15  22
ENDBRANCH   1  15
TORSDOF 2
