REMARK  Name = ZINC61688377
REMARK  5 active torsions:
REMARK  status: ('A' for Active; 'I' for Inactive)
REMARK    1  A    between atoms: C_1  and  C_2
REMARK    2  A    between atoms: C_3  and  C_16
REMARK    3  A    between atoms: C_8  and  C_10
REMARK    4  A    between atoms: C_16  and  C_17
REMARK    5  A    between atoms: C_16  and  C_18
REMARK                            x       y       z     vdW  Elec       q    Type
REMARK                         _______ _______ _______ _____ _____    ______ ____
ROOT
ATOM      1  C   UNL     1      -0.018   1.503   0.010  0.00  0.00    +0.066 C 
ATOM      2  C   UNL     1       0.002  -0.004   0.002  0.00  0.00    +0.049 A 
ATOM      3  C   UNL     1      -1.172  -0.701   0.004  0.00  0.00    +0.040 A 
ATOM      4  C   UNL     1      -1.131  -2.107  -0.004  0.00  0.00    +0.255 A 
ATOM      5  O   UNL     1      -2.162  -2.759  -0.004  0.00  0.00    -0.267 OA
ATOM      6  N   UNL     1       0.071  -2.722  -0.014  0.00  0.00    -0.304 N 
ATOM      7  H   UNL     1       0.124  -3.690  -0.020  0.00  0.00    +0.170 HD
ATOM      8  C   UNL     1       1.215  -1.972  -0.015  0.00  0.00    +0.177 A 
ATOM      9  N   UNL     1       1.163  -0.651  -0.013  0.00  0.00    -0.231 NA
ENDROOT
BRANCH   8  10
ATOM     10  C   UNL     1       2.517  -2.643  -0.026  0.00  0.00    +0.171 A 
ATOM     11  C   UNL     1       3.737  -2.028  -0.023  0.00  0.00    +0.054 A 
ATOM     12  C   UNL     1       4.703  -3.046  -0.035  0.00  0.00    +0.057 A 
ATOM     13  C   UNL     1       4.039  -4.224  -0.046  0.00  0.00    +0.171 A 
ATOM     14  O   UNL     1       2.722  -3.977  -0.034  0.00  0.00    -0.445 OA
ATOM     15 BR   UNL     1       4.837  -5.938  -0.066  0.00  0.00    -0.008 Br
ENDBRANCH   8  10
BRANCH   3  16
ATOM     16  C   UNL     1      -2.493   0.026   0.015  0.00  0.00    +0.020 C 
ATOM     17  C   UNL     1      -3.294  -0.353  -1.232  0.00  0.00    +0.012 C 
ATOM     18  C   UNL     1      -3.281  -0.368   1.266  0.00  0.00    +0.012 C 
ENDBRANCH   3  16
TORSDOF 2
