REMARK  Name = ZINC64287766
REMARK  6 active torsions:
REMARK  status: ('A' for Active; 'I' for Inactive)
REMARK    1  A    between atoms: C_5  and  C_7
REMARK    2  A    between atoms: C_7  and  C_8
REMARK    3  A    between atoms: C_8  and  N_9
REMARK    4  A    between atoms: C_10  and  C_12
REMARK    5  A    between atoms: N_14  and  C_15
REMARK    6  A    between atoms: C_16  and  C_20
REMARK                            x       y       z     vdW  Elec       q    Type
REMARK                         _______ _______ _______ _____ _____    ______ ____
ROOT
ATOM      1  C   UNL     1       1.537  -6.339   2.551  0.00  0.00    +0.304 C 
ATOM      2  O   UNL     1       1.444  -6.941   1.501  0.00  0.00    -0.265 OA
ATOM      3  N   UNL     1       1.659  -7.018   3.709  0.00  0.00    -0.272 N 
ATOM      4  H   UNL     1       1.734  -6.537   4.548  0.00  0.00    +0.156 HD
ENDROOT
BRANCH   3   5
ATOM      5  C   UNL     1       1.678  -8.402   3.701  0.00  0.00    +0.084 A 
ATOM      6  C   UNL     1       1.790  -9.260   4.786  0.00  0.00    +0.065 A 
ATOM      7  C   UNL     1       1.783 -10.675   4.494  0.00  0.00    +0.022 A 
ATOM      8  C   UNL     1       1.668 -11.005   3.194  0.00  0.00    +0.048 A 
ATOM      9  S   UNL     1       1.563  -9.427   2.378  0.00  0.00    -0.081 S 
BRANCH   6  10
ATOM     10  C   UNL     1       1.910  -8.757   6.158  0.00  0.00    +0.244 C 
ATOM     11  O   UNL     1       1.913  -7.558   6.369  0.00  0.00    -0.270 OA
ATOM     12  N   UNL     1       2.016  -9.621   7.186  0.00  0.00    -0.325 N 
ATOM     13  H   UNL     1       2.014 -10.577   7.019  0.00  0.00    +0.145 HD
ATOM     14  H   UNL     1       2.096  -9.288   8.094  0.00  0.00    +0.145 HD
ENDBRANCH   6  10
ENDBRANCH   3   5
BRANCH   1  16
ATOM     15  N   UNL     1       1.395  -4.167   1.402  0.00  0.00    -0.307 N 
ATOM     16  C   UNL     1       1.517  -4.846   2.560  0.00  0.00    +0.299 C 
ATOM     17  O   UNL     1       1.611  -4.244   3.610  0.00  0.00    -0.265 OA
ATOM     18  H   UNL     1       1.320  -4.648   0.563  0.00  0.00    +0.149 HD
BRANCH  15  19
ATOM     19  C   UNL     1       1.375  -2.702   1.411  0.00  0.00    +0.109 C 
BRANCH  19  20
ATOM     20  C   UNL     1       1.229  -2.186  -0.022  0.00  0.00    +0.055 C 
BRANCH  20  25
ATOM     21  C   UNL     1      -0.017   1.378   0.010  0.00  0.00    +0.000 A 
ATOM     22  C   UNL     1       1.171   2.086   0.002  0.00  0.00    +0.001 A 
ATOM     23  C   UNL     1       2.377   1.412  -0.013  0.00  0.00    +0.015 A 
ATOM     24  C   UNL     1       2.397   0.029  -0.021  0.00  0.00    +0.021 A 
ATOM     25  C   UNL     1       1.208  -0.679  -0.013  0.00  0.00    -0.032 A 
ATOM     26  C   UNL     1       0.002  -0.004   0.002  0.00  0.00    +0.005 A 
ATOM     27 BR   UNL     1       4.047  -0.894  -0.042  0.00  0.00    -0.050 Br
ENDBRANCH  20  25
ENDBRANCH  19  20
ENDBRANCH  15  19
ENDBRANCH   1  16
TORSDOF 6
