REMARK  Name = ZINC15391092
REMARK  7 active torsions:
REMARK  status: ('A' for Active; 'I' for Inactive)
REMARK    1  A    between atoms: C_1  and  O_2
REMARK    2  A    between atoms: O_2  and  C_3
REMARK    3  A    between atoms: C_6  and  S_9
REMARK    4  A    between atoms: S_9  and  N_12
REMARK    5  A    between atoms: C_17  and  C_19
REMARK    6  A    between atoms: C_19  and  C_20
REMARK    7  A    between atoms: N_22  and  C_23
REMARK                            x       y       z     vdW  Elec       q    Type
REMARK                         _______ _______ _______ _____ _____    ______ ____
ROOT
ATOM      1  N   UNL     1       1.127   1.822  -0.058  0.00  0.00    -0.173 NA
ATOM      2  C   UNL     1       1.919   1.901   1.177  0.00  0.00    +0.110 C 
ATOM      3  C   UNL     1       1.009   2.372   2.317  0.00  0.00    +0.017 C 
ATOM      4  C   UNL     1      -0.207   1.448   2.408  0.00  0.00    +0.003 C 
ATOM      5  C   UNL     1      -0.999   1.513   1.099  0.00  0.00    +0.021 C 
ATOM      6  C   UNL     1      -0.112   1.032  -0.053  0.00  0.00    +0.089 C 
ENDROOT
BRANCH   1   7
ATOM      7  S   UNL     1       1.622   2.608  -1.429  0.00  0.00    +0.061 S 
ATOM      8  O   UNL     1       2.816   1.966  -1.857  0.00  0.00    -0.153 OA
ATOM      9  O   UNL     1       0.479   2.726  -2.264  0.00  0.00    -0.153 OA
BRANCH   7  13
ATOM     10  C   UNL     1       2.780   6.815  -0.216  0.00  0.00    +0.120 A 
ATOM     11  C   UNL     1       3.749   5.827  -0.310  0.00  0.00    +0.047 A 
ATOM     12  C   UNL     1       3.393   4.544  -0.679  0.00  0.00    +0.032 A 
ATOM     13  C   UNL     1       2.072   4.245  -0.957  0.00  0.00    +0.106 A 
ATOM     14  C   UNL     1       1.105   5.229  -0.870  0.00  0.00    +0.032 A 
ATOM     15  C   UNL     1       1.455   6.511  -0.495  0.00  0.00    +0.047 A 
BRANCH  10  17
ATOM     16  C   UNL     1       2.076   9.043   0.222  0.00  0.00    +0.277 C 
ATOM     17  O   UNL     1       3.127   8.077   0.146  0.00  0.00    -0.495 OA
ENDBRANCH  10  17
ENDBRANCH   7  13
ENDBRANCH   1   7
BRANCH   6  18
ATOM     18  C   UNL     1      -0.846   1.222  -1.383  0.00  0.00    +0.116 C 
BRANCH  18  19
ATOM     19  C   UNL     1      -0.034   0.612  -2.496  0.00  0.00    +0.215 C 
ATOM     20  O   UNL     1       1.046   0.115  -2.257  0.00  0.00    -0.276 OA
ATOM     21  N   UNL     1      -0.508   0.620  -3.758  0.00  0.00    -0.312 N 
ATOM     22  H   UNL     1      -1.372   1.018  -3.949  0.00  0.00    +0.149 HD
BRANCH  21  23
ATOM     23  C   UNL     1       0.281   0.027  -4.840  0.00  0.00    +0.073 C 
ATOM     24  C   UNL     1       1.282   1.058  -5.366  0.00  0.00    +0.022 C 
ATOM     25  C   UNL     1       2.106   0.439  -6.497  0.00  0.00    +0.002 C 
ATOM     26  C   UNL     1       1.173   0.008  -7.631  0.00  0.00    +0.000 C 
ATOM     27  C   UNL     1       0.173  -1.023  -7.105  0.00  0.00    +0.002 C 
ATOM     28  C   UNL     1      -0.651  -0.404  -5.974  0.00  0.00    +0.022 C 
ENDBRANCH  21  23
ENDBRANCH  18  19
ENDBRANCH   6  18
TORSDOF 6
