REMARK  Name = ZINC00227364
REMARK  8 active torsions:
REMARK  status: ('A' for Active; 'I' for Inactive)
REMARK    1  A    between atoms: C_1  and  C_2
REMARK    2  A    between atoms: C_2  and  C_3
REMARK    3  A    between atoms: C_6  and  C_9
REMARK    4  A    between atoms: C_14  and  N_23
REMARK    5  A    between atoms: C_18  and  N_22
REMARK    6  A    between atoms: C_19  and  C_20
REMARK    7  A    between atoms: N_23  and  C_24
REMARK    8  A    between atoms: N_23  and  C_25
REMARK                            x       y       z     vdW  Elec       q    Type
REMARK                         _______ _______ _______ _____ _____    ______ ____
ROOT
ATOM      1  C   UNL     1      -0.018   1.503   0.010  0.00  0.00    +0.098 C 
ATOM      2  C   UNL     1       1.395   2.021  -0.000  0.00  0.00    +0.008 A 
ATOM      3  C   UNL     1       2.120   1.997  -1.180  0.00  0.00    +0.010 A 
ATOM      4  C   UNL     1       3.417   2.468  -1.209  0.00  0.00    +0.023 A 
ATOM      5  C   UNL     1       4.001   2.968  -0.051  0.00  0.00    +0.033 A 
ATOM      6  C   UNL     1       3.277   2.993   1.132  0.00  0.00    +0.069 A 
ATOM      7  C   UNL     1       1.972   2.518   1.158  0.00  0.00    +0.136 A 
ATOM      8  O   UNL     1       1.278   2.549   2.323  0.00  0.00    -0.441 OA
ATOM      9  C   UNL     1      -0.063   2.471   2.306  0.00  0.00    +0.199 C 
ATOM     10  C   UNL     1      -0.739   1.984   1.238  0.00  0.00    +0.098 C 
ENDROOT
BRANCH   1  14
ATOM     11  C   UNL     1       0.040  -2.768  -0.013  0.00  0.00    -0.048 A 
ATOM     12  C   UNL     1      -0.578  -2.080  -1.041  0.00  0.00    +0.004 A 
ATOM     13  C   UNL     1      -0.597  -0.698  -1.033  0.00  0.00    +0.005 A 
ATOM     14  C   UNL     1       0.002  -0.004   0.002  0.00  0.00    -0.035 A 
ATOM     15  C   UNL     1       0.625  -0.693   1.026  0.00  0.00    +0.005 A 
ATOM     16  C   UNL     1       0.639  -2.075   1.021  0.00  0.00    +0.004 A 
BRANCH  11  18
ATOM     17  C   UNL     1       1.309  -4.764  -0.757  0.00  0.00    +0.009 C 
ATOM     18  C   UNL     1       0.060  -4.275  -0.022  0.00  0.00    +0.032 C 
ENDBRANCH  11  18
ENDBRANCH   1  14
BRANCH   9  19
ATOM     19  N   UNL     1      -0.768   2.897   3.403  0.00  0.00    -0.328 N 
ATOM     20  H   UNL     1      -0.299   3.249   4.175  0.00  0.00    +0.145 HD
ATOM     21  H   UNL     1      -1.737   2.848   3.406  0.00  0.00    +0.145 HD
ENDBRANCH   9  19
BRANCH   5  22
ATOM     22  N   UNL     1       5.313   3.446  -0.079  0.00  0.00    -0.336 N 
ATOM     23  C   UNL     1       6.076   3.420  -1.330  0.00  0.00    +0.129 C 
ATOM     24  C   UNL     1       5.927   3.973   1.142  0.00  0.00    +0.129 C 
ENDBRANCH   5  22
BRANCH  10  25
ATOM     25  C   UNL     1      -2.169   1.927   1.280  0.00  0.00    +0.101 C 
ATOM     26  N   UNL     1      -3.304   1.882   1.313  0.00  0.00    -0.191 NA
ENDBRANCH  10  25
TORSDOF 5
