REMARK  Name = ZINC10019652
REMARK  10 active torsions:
REMARK  status: ('A' for Active; 'I' for Inactive)
REMARK    1  A    between atoms: C_1  and  C_2
REMARK    2  A    between atoms: C_5  and  C_8
REMARK    3  A    between atoms: C_8  and  C_10
REMARK    4  A    between atoms: C_8  and  N_48
REMARK    5  A    between atoms: C_10  and  N_11
REMARK    6  A    between atoms: C_12  and  C_14
REMARK    7  A    between atoms: N_16  and  C_17
REMARK    8  A    between atoms: C_22  and  C_23
REMARK    9  A    between atoms: C_26  and  N_48
REMARK   10  A    between atoms: C_27  and  N_48
REMARK                            x       y       z     vdW  Elec       q    Type
REMARK                         _______ _______ _______ _____ _____    ______ ____
ROOT
ATOM      1  N   UNL     1       5.934   7.916  -1.032  0.00  0.00    -0.309 N 
ATOM      2  C   UNL     1       6.266   6.641  -1.319  0.00  0.00    +0.299 C 
ATOM      3  O   UNL     1       5.938   5.746  -0.568  0.00  0.00    -0.265 OA
ATOM      4  H   UNL     1       6.196   8.632  -1.632  0.00  0.00    +0.149 HD
ENDROOT
BRANCH   2   5
ATOM      5  C   UNL     1       7.038   6.331  -2.559  0.00  0.00    +0.303 C 
ATOM      6  O   UNL     1       7.366   7.227  -3.309  0.00  0.00    -0.265 OA
ATOM      7  N   UNL     1       7.370   5.056  -2.845  0.00  0.00    -0.277 N 
ATOM      8  H   UNL     1       7.043   4.333  -2.287  0.00  0.00    +0.155 HD
BRANCH   7   9
ATOM      9  C   UNL     1       8.182   4.778  -3.941  0.00  0.00    +0.053 A 
ATOM     10  C   UNL     1       9.048   5.746  -4.431  0.00  0.00    +0.044 A 
ATOM     11  C   UNL     1       9.853   5.467  -5.519  0.00  0.00    +0.043 A 
ATOM     12  C   UNL     1       9.807   4.221  -6.125  0.00  0.00    +0.021 A 
ATOM     13  C   UNL     1       8.949   3.250  -5.655  0.00  0.00    +0.022 A 
ATOM     14  C   UNL     1       8.129   3.517  -4.556  0.00  0.00    +0.073 A 
ATOM     15 CL   UNL     1      10.934   6.682  -6.126  0.00  0.00    -0.083 Cl
BRANCH  14  16
ATOM     16  C   UNL     1       7.240   2.511  -4.059  0.00  0.00    +0.101 C 
ATOM     17  N   UNL     1       6.535   1.712  -3.665  0.00  0.00    -0.191 NA
ENDBRANCH  14  16
ENDBRANCH   7   9
ENDBRANCH   2   5
BRANCH   1  18
ATOM     18  C   UNL     1       5.177   8.220   0.184  0.00  0.00    +0.094 C 
BRANCH  18  19
ATOM     19  C   UNL     1       4.826   9.709   0.208  0.00  0.00    -0.021 C 
BRANCH  19  24
ATOM     20  C   UNL     1       9.676  12.823   0.626  0.00  0.00    +0.044 C 
ATOM     21  C   UNL     1       8.412  12.011   0.517  0.00  0.00    -0.050 A 
ATOM     22  C   UNL     1       7.797  11.851  -0.710  0.00  0.00    +0.003 A 
ATOM     23  C   UNL     1       6.637  11.106  -0.811  0.00  0.00    +0.002 A 
ATOM     24  C   UNL     1       6.091  10.521   0.317  0.00  0.00    -0.059 A 
ATOM     25  C   UNL     1       6.703  10.686   1.546  0.00  0.00    +0.002 A 
ATOM     26  C   UNL     1       7.865  11.427   1.645  0.00  0.00    +0.003 A 
ENDBRANCH  19  24
BRANCH  19  29
ATOM     27  C   UNL     1       3.518  11.391   1.358  0.00  0.00    -0.096 C 
ATOM     28  C   UNL     1       2.815   9.075   1.397  0.00  0.00    -0.096 C 
ATOM     29  N   UNL     1       3.978   9.986   1.386  0.00  0.00    +0.382 N 
ATOM     30  H   UNL     1       4.530   9.833   2.238  0.00  0.00    -0.082 HD
ENDBRANCH  19  29
ENDBRANCH  18  19
ENDBRANCH   1  18
TORSDOF 7
