REMARK  Name = ZINC64740778
REMARK  6 active torsions:
REMARK  status: ('A' for Active; 'I' for Inactive)
REMARK    1  A    between atoms: C_1  and  C_2
REMARK    2  A    between atoms: C_7  and  N_8
REMARK    3  A    between atoms: C_9  and  C_11
REMARK    4  A    between atoms: C_19  and  S_25
REMARK    5  A    between atoms: S_25  and  C_26
REMARK    6  A    between atoms: C_26  and  C_27
REMARK                            x       y       z     vdW  Elec       q    Type
REMARK                         _______ _______ _______ _____ _____    ______ ____
ROOT
ATOM      1  C   UNL     1      -0.134   0.148   4.829  0.00  0.00    +0.103 C 
ATOM      2  C   UNL     1      -1.458   0.916   4.862  0.00  0.00    +0.110 C 
ATOM      3  C   UNL     1      -1.723   1.471   6.231  0.00  0.00    +0.219 C 
ATOM      4  O   UNL     1      -2.514   2.384   6.335  0.00  0.00    -0.275 OA
ATOM      5  N   UNL     1      -1.133   1.013   7.344  0.00  0.00    -0.273 N 
ATOM      6  C   UNL     1      -0.176   0.040   7.282  0.00  0.00    +0.117 C 
ATOM      7  N   UNL     1       0.646  -0.148   8.273  0.00  0.00    -0.212 NA
ATOM      8  C   UNL     1       1.667  -1.013   8.200  0.00  0.00    +0.182 C 
ATOM      9  N   UNL     1       1.931  -1.701   7.099  0.00  0.00    -0.154 NA
ATOM     10  C   UNL     1       1.152  -1.628   6.029  0.00  0.00    +0.249 C 
ATOM     11  O   UNL     1       1.455  -2.246   5.027  0.00  0.00    -0.273 OA
ATOM     12  C   UNL     1      -0.094  -0.798   6.032  0.00  0.00    +0.153 C 
ATOM     13  H   UNL     1      -1.390   1.378   8.205  0.00  0.00    +0.156 HD
ENDROOT
BRANCH   1  15
ATOM     14  N   UNL     1       0.628  -0.150   2.494  0.00  0.00    -0.285 N 
ATOM     15  C   UNL     1      -0.041  -0.649   3.553  0.00  0.00    +0.222 C 
ATOM     16  O   UNL     1      -0.569  -1.738   3.479  0.00  0.00    -0.275 OA
ATOM     17  H   UNL     1       1.103   0.692   2.573  0.00  0.00    +0.155 HD
BRANCH  14  24
ATOM     18  C   UNL     1       0.631   1.354   0.080  0.00  0.00    +0.045 C 
ATOM     19  C   UNL     1       0.639  -0.153   0.079  0.00  0.00    -0.029 A 
ATOM     20  C   UNL     1       0.655  -0.844  -1.117  0.00  0.00    +0.006 A 
ATOM     21  C   UNL     1       0.663  -2.226  -1.119  0.00  0.00    +0.020 A 
ATOM     22  C   UNL     1       0.656  -2.922   0.077  0.00  0.00    +0.043 A 
ATOM     23  C   UNL     1       0.641  -2.237   1.277  0.00  0.00    +0.043 A 
ATOM     24  C   UNL     1       0.638  -0.848   1.281  0.00  0.00    +0.038 A 
ATOM     25 CL   UNL     1       0.666  -4.658   0.071  0.00  0.00    -0.083 Cl
ENDBRANCH  14  24
ENDBRANCH   1  15
BRANCH   8  26
ATOM     26  S   UNL     1       2.692  -1.243   9.615  0.00  0.00    -0.084 S 
BRANCH  26  27
ATOM     27  C   UNL     1       3.913  -2.471   9.077  0.00  0.00    +0.103 C 
BRANCH  27  28
ATOM     28  C   UNL     1       4.864  -2.763  10.209  0.00  0.00    -0.023 C 
ATOM     29  C   UNL     1       4.896  -3.957  10.747  0.00  0.00    +0.005 C 
ENDBRANCH  27  28
ENDBRANCH  26  27
ENDBRANCH   8  26
TORSDOF 5
