REMARK  Name = ZINC63140714
REMARK  6 active torsions:
REMARK  status: ('A' for Active; 'I' for Inactive)
REMARK    1  A    between atoms: C_1  and  C_2
REMARK    2  A    between atoms: C_7  and  C_8
REMARK    3  A    between atoms: N_27  and  C_30
REMARK    4  A    between atoms: C_30  and  C_31
REMARK    5  A    between atoms: C_36  and  O_37
REMARK    6  A    between atoms: O_37  and  C_38
REMARK                            x       y       z     vdW  Elec       q    Type
REMARK                         _______ _______ _______ _____ _____    ______ ____
ROOT
ATOM      1  C   UNL     1       0.189   0.166   2.426  0.00  0.00    +0.134 C 
ATOM      2  C   UNL     1       1.576   0.801   2.515  0.00  0.00    +0.131 C 
ATOM      3  C   UNL     1       1.720   1.289   3.955  0.00  0.00    -0.034 C 
ATOM      4  C   UNL     1       1.889   2.602   3.898  0.00  0.00    -0.001 A 
ATOM      5  C   UNL     1       2.106   3.608   4.951  0.00  0.00    +0.010 A 
ATOM      6  C   UNL     1       2.239   4.895   4.533  0.00  0.00    +0.001 A 
ATOM      7  C   UNL     1       2.177   5.277   3.190  0.00  0.00    +0.002 A 
ATOM      8  C   UNL     1       1.982   4.420   2.156  0.00  0.00    +0.026 A 
ATOM      9  C   UNL     1       1.831   3.037   2.470  0.00  0.00    +0.043 A 
ATOM     10  N   UNL     1       1.647   2.003   1.674  0.00  0.00    -0.375 N 
ATOM     11  C   UNL     1       1.632   0.334   5.113  0.00  0.00    +0.065 C 
ATOM     12  C   UNL     1       0.530  -0.664   4.871  0.00  0.00    +0.167 C 
ATOM     13  N   UNL     1      -0.084  -0.703   3.561  0.00  0.00    -0.279 N 
ATOM     14  C   UNL     1      -1.073  -1.643   3.404  0.00  0.00    +0.234 C 
ATOM     15  O   UNL     1      -1.618  -1.818   2.334  0.00  0.00    -0.274 OA
ATOM     16  C   UNL     1      -1.452  -2.450   4.628  0.00  0.00    +0.204 C 
ATOM     17  N   UNL     1      -1.550  -1.534   5.779  0.00  0.00    -0.287 N 
ATOM     18  C   UNL     1      -0.541  -0.630   5.933  0.00  0.00    +0.237 C 
ATOM     19  O   UNL     1      -0.504   0.148   6.862  0.00  0.00    -0.274 OA
ATOM     20  H   UNL     1       1.567   2.022   0.707  0.00  0.00    +0.160 HD
ENDROOT
BRANCH   1  27
ATOM     21  C   UNL     1      -1.071   1.288   0.080  0.00  0.00    +0.044 C 
ATOM     22  C   UNL     1      -0.501  -0.107   0.035  0.00  0.00    -0.045 A 
ATOM     23  C   UNL     1      -0.577  -0.847  -1.130  0.00  0.00    +0.004 A 
ATOM     24  C   UNL     1      -0.055  -2.126  -1.171  0.00  0.00    +0.000 A 
ATOM     25  C   UNL     1       0.544  -2.665  -0.047  0.00  0.00    +0.000 A 
ATOM     26  C   UNL     1       0.620  -1.925   1.118  0.00  0.00    +0.006 A 
ATOM     27  C   UNL     1       0.101  -0.644   1.157  0.00  0.00    -0.022 A 
ENDBRANCH   1  27
BRANCH  17  28
ATOM     28  C   UNL     1      -2.679  -1.591   6.712  0.00  0.00    +0.147 C 
BRANCH  28  29
ATOM     29  C   UNL     1      -2.355  -2.543   7.835  0.00  0.00    +0.011 A 
ATOM     30  C   UNL     1      -2.854  -3.831   7.814  0.00  0.00    +0.009 A 
ATOM     31  C   UNL     1      -2.558  -4.705   8.843  0.00  0.00    +0.001 A 
ATOM     32  C   UNL     1      -1.762  -4.293   9.896  0.00  0.00    +0.004 A 
ATOM     33  C   UNL     1      -1.260  -3.006   9.921  0.00  0.00    +0.046 A 
ATOM     34  C   UNL     1      -1.551  -2.129   8.886  0.00  0.00    +0.125 A 
BRANCH  34  35
ATOM     35  O   UNL     1      -1.054  -0.864   8.906  0.00  0.00    -0.495 OA
ATOM     36  C   UNL     1      -0.234  -0.507  10.020  0.00  0.00    +0.277 C 
ENDBRANCH  34  35
ENDBRANCH  28  29
ENDBRANCH  17  28
TORSDOF 4
