REMARK  Name = ZINC56062260
REMARK  8 active torsions:
REMARK  status: ('A' for Active; 'I' for Inactive)
REMARK    1  A    between atoms: C_1  and  C_2
REMARK    2  A    between atoms: C_7  and  C_10
REMARK    3  A    between atoms: C_14  and  C_17
REMARK    4  A    between atoms: C_17  and  N_18
REMARK    5  A    between atoms: N_18  and  S_19
REMARK    6  A    between atoms: S_19  and  N_22
REMARK    7  A    between atoms: N_22  and  C_23
REMARK    8  A    between atoms: N_22  and  C_24
REMARK                            x       y       z     vdW  Elec       q    Type
REMARK                         _______ _______ _______ _____ _____    ______ ____
ROOT
ATOM      1  C   UNL     1       0.024   1.508  -0.007  0.00  0.00    +0.039 C 
ATOM      2  C   UNL     1       0.027  -0.022  -0.001  0.00  0.00    +0.133 C 
ATOM      3  C   UNL     1      -1.417  -0.537   0.001  0.00  0.00    +0.137 C 
ATOM      4  N   UNL     1      -1.389  -1.995   0.196  0.00  0.00    -0.312 N 
ATOM      5  C   UNL     1      -0.598  -2.529   1.316  0.00  0.00    +0.137 C 
ATOM      6  C   UNL     1       0.806  -1.917   1.250  0.00  0.00    +0.133 C 
ATOM      7  O   UNL     1       0.698  -0.493   1.171  0.00  0.00    -0.371 OA
ATOM      8  C   UNL     1       1.591  -2.301   2.506  0.00  0.00    +0.039 C 
ATOM      9  C   UNL     1      -2.091  -2.844  -0.652  0.00  0.00    +0.099 A 
ATOM     10  C   UNL     1      -2.927  -2.308  -1.627  0.00  0.00    +0.042 A 
ATOM     11  C   UNL     1      -3.619  -3.164  -2.464  0.00  0.00    +0.009 A 
ATOM     12  C   UNL     1      -3.451  -4.533  -2.299  0.00  0.00    -0.016 A 
ATOM     13  C   UNL     1      -2.604  -4.995  -1.311  0.00  0.00    +0.089 A 
ATOM     14  N   UNL     1      -1.953  -4.155  -0.530  0.00  0.00    -0.349 N 
ATOM     15  H   UNL     1      -1.361  -4.507   0.154  0.00  0.00    +0.167 HD
ENDROOT
BRANCH  12  16
ATOM     16  C   UNL     1      -4.185  -5.503  -3.188  0.00  0.00    +0.143 C 
BRANCH  16  17
ATOM     17  N   UNL     1      -3.369  -5.796  -4.369  0.00  0.00    -0.175 NA
ATOM     18  H   UNL     1      -2.613  -5.230  -4.589  0.00  0.00    +0.149 HD
BRANCH  17  19
ATOM     19  S   UNL     1      -3.739  -7.093  -5.330  0.00  0.00    +0.097 S 
ATOM     20  O   UNL     1      -2.796  -7.094  -6.392  0.00  0.00    -0.141 OA
ATOM     21  O   UNL     1      -3.910  -8.205  -4.462  0.00  0.00    -0.141 OA
BRANCH  19  22
ATOM     22  N   UNL     1      -5.218  -6.792  -6.011  0.00  0.00    -0.167 NA
ATOM     23  C   UNL     1      -5.305  -6.093  -7.295  0.00  0.00    +0.133 C 
BRANCH  22  24
ATOM     24  C   UNL     1      -6.441  -7.225  -5.329  0.00  0.00    +0.081 C 
ATOM     25  C   UNL     1      -7.209  -8.197  -6.227  0.00  0.00    +0.020 C 
ATOM     26  C   UNL     1      -8.486  -8.649  -5.515  0.00  0.00    +0.002 C 
ATOM     27  C   UNL     1      -9.361  -7.430  -5.215  0.00  0.00    +0.000 C 
ATOM     28  C   UNL     1      -8.592  -6.459  -4.316  0.00  0.00    +0.002 C 
ATOM     29  C   UNL     1      -7.316  -6.007  -5.028  0.00  0.00    +0.020 C 
ENDBRANCH  22  24
ENDBRANCH  19  22
ENDBRANCH  17  19
ENDBRANCH  16  17
ENDBRANCH  12  16
TORSDOF 5
