REMARK  Name = ZINC20573546
REMARK  8 active torsions:
REMARK  status: ('A' for Active; 'I' for Inactive)
REMARK    1  A    between atoms: C_1  and  C_2
REMARK    2  A    between atoms: C_2  and  C_27
REMARK    3  A    between atoms: C_7  and  N_12
REMARK    4  A    between atoms: C_8  and  C_9
REMARK    5  A    between atoms: N_15  and  C_16
REMARK    6  A    between atoms: C_16  and  C_17
REMARK    7  A    between atoms: C_17  and  C_18
REMARK    8  A    between atoms: C_18  and  N_19
REMARK                            x       y       z     vdW  Elec       q    Type
REMARK                         _______ _______ _______ _____ _____    ______ ____
ROOT
ATOM      1  C   UNL     1      -0.019   1.526   0.010  0.00  0.00    +0.041 C 
ATOM      2  C   UNL     1       0.002  -0.004   0.002  0.00  0.00    +0.068 C 
ATOM      3  C   UNL     1      -1.436  -0.532   0.020  0.00  0.00    +0.071 C 
ATOM      4  C   UNL     1      -1.390  -2.034  -0.233  0.00  0.00    -0.018 A 
ATOM      5  C   UNL     1      -0.279  -2.593  -0.764  0.00  0.00    +0.021 A 
ATOM      6  S   UNL     1      -0.652  -4.317  -0.882  0.00  0.00    -0.075 S 
ATOM      7  C   UNL     1      -2.261  -4.299  -0.236  0.00  0.00    +0.086 A 
ATOM      8  C   UNL     1      -2.471  -2.957   0.056  0.00  0.00    +0.069 A 
ATOM      9  C   UNL     1       0.972  -1.869  -1.153  0.00  0.00    +0.203 C 
ATOM     10  O   UNL     1       0.678  -0.463  -1.172  0.00  0.00    -0.368 OA
ATOM     11  C   UNL     1       0.743  -0.508   1.242  0.00  0.00    +0.041 C 
ENDROOT
BRANCH   7  12
ATOM     12  N   UNL     1      -3.128  -5.366  -0.054  0.00  0.00    -0.263 N 
ATOM     13  C   UNL     1      -2.746  -6.611  -0.400  0.00  0.00    +0.304 C 
ATOM     14  O   UNL     1      -1.641  -6.799  -0.871  0.00  0.00    -0.252 OA
ATOM     15  N   UNL     1      -3.588  -7.648  -0.223  0.00  0.00    -0.299 N 
ATOM     16  H   UNL     1      -4.127  -5.196   0.372  0.00  0.00    +0.157 HD
ATOM     17  H   UNL     1      -4.588  -7.478   0.203  0.00  0.00    +0.150 HD
BRANCH  15  18
ATOM     18  C   UNL     1      -3.173  -9.002  -0.599  0.00  0.00    +0.107 C 
BRANCH  18  19
ATOM     19  C   UNL     1      -4.306  -9.985  -0.298  0.00  0.00    +0.034 C 
BRANCH  19  20
ATOM     20  C   UNL     1      -3.872 -11.399  -0.691  0.00  0.00    +0.086 C 
BRANCH  20  21
ATOM     21  N   UNL     1      -4.960 -12.342  -0.402  0.00  0.00    -0.298 NA
ATOM     22  C   UNL     1      -5.197 -12.446   1.046  0.00  0.00    +0.112 C 
ATOM     23  C   UNL     1      -6.375 -13.391   1.298  0.00  0.00    +0.175 C 
ATOM     24  O   UNL     1      -6.096 -14.661   0.703  0.00  0.00    -0.377 OA
ATOM     25  C   UNL     1      -5.860 -14.598  -0.706  0.00  0.00    +0.175 C 
ATOM     26  C   UNL     1      -4.677 -13.665  -0.979  0.00  0.00    +0.112 C 
ENDBRANCH  20  21
ENDBRANCH  19  20
ENDBRANCH  18  19
ENDBRANCH  15  18
ENDBRANCH   7  12
BRANCH   8  27
ATOM     27  C   UNL     1      -3.735  -2.492   0.634  0.00  0.00    +0.244 C 
ATOM     28  O   UNL     1      -4.648  -2.149  -0.095  0.00  0.00    -0.270 OA
ATOM     29  N   UNL     1      -3.888  -2.445   1.972  0.00  0.00    -0.325 N 
ATOM     30  H   UNL     1      -4.837  -2.097   2.405  0.00  0.00    +0.145 HD
ATOM     31  H   UNL     1      -3.063  -2.756   2.631  0.00  0.00    +0.145 HD
ENDBRANCH   8  27
TORSDOF 6
