REMARK  Name = ZINC23448690
REMARK  6 active torsions:
REMARK  status: ('A' for Active; 'I' for Inactive)
REMARK    1  A    between atoms: C_1  and  C_2
REMARK    2  A    between atoms: C_2  and  C_3
REMARK    3  A    between atoms: N_11  and  C_15
REMARK    4  A    between atoms: C_15  and  C_16
REMARK    5  A    between atoms: N_18  and  C_19
REMARK    6  A    between atoms: N_18  and  C_25
REMARK                            x       y       z     vdW  Elec       q    Type
REMARK                         _______ _______ _______ _____ _____    ______ ____
ROOT
ATOM      1  C   UNL     1      -2.157  -2.211  -6.531  0.00  0.00    +0.213 C 
ENDROOT
BRANCH   1  10
ATOM      2  C   UNL     1       3.582  -1.603  -4.662  0.00  0.00    -0.011 C 
ATOM      3  C   UNL     1       2.640  -2.742  -4.266  0.00  0.00    +0.006 C 
ATOM      4  C   UNL     1       1.434  -2.168  -3.518  0.00  0.00    +0.035 C 
ATOM      5  C   UNL     1       0.705  -1.172  -4.413  0.00  0.00    +0.113 C 
ATOM      6  C   UNL     1       1.638  -0.043  -4.837  0.00  0.00    +0.035 C 
ATOM      7  C   UNL     1       2.844  -0.626  -5.579  0.00  0.00    +0.006 C 
ATOM      8  C   UNL     1       0.135  -1.870  -5.626  0.00  0.00    +0.247 C 
ATOM      9  O   UNL     1       0.749  -2.463  -6.487  0.00  0.00    -0.273 OA
ATOM     10  N   UNL     1      -1.200  -1.694  -5.549  0.00  0.00    -0.215 N 
ATOM     11  C   UNL     1      -1.543  -0.988  -4.465  0.00  0.00    +0.310 C 
ATOM     12  O   UNL     1      -2.689  -0.701  -4.179  0.00  0.00    -0.252 OA
ATOM     13  N   UNL     1      -0.475  -0.632  -3.725  0.00  0.00    -0.285 N 
ATOM     14  H   UNL     1      -0.484  -0.120  -2.901  0.00  0.00    +0.151 HD
BRANCH   2  16
ATOM     15  C   UNL     1       5.602  -3.056  -4.443  0.00  0.00    +0.004 C 
ATOM     16  C   UNL     1       4.794  -2.176  -5.399  0.00  0.00    -0.000 C 
ENDBRANCH   2  16
ENDBRANCH   1  10
BRANCH   1  17
ATOM     17  C   UNL     1      -2.601  -3.592  -6.122  0.00  0.00    +0.234 C 
ATOM     18  O   UNL     1      -1.905  -4.258  -5.385  0.00  0.00    -0.274 OA
ATOM     19  N   UNL     1      -3.770  -4.086  -6.574  0.00  0.00    -0.294 N 
BRANCH  19  20
ATOM     20  C   UNL     1      -4.287  -5.349  -6.042  0.00  0.00    +0.076 C 
ATOM     21  C   UNL     1      -4.378  -5.261  -4.517  0.00  0.00    +0.022 C 
ATOM     22  C   UNL     1      -4.918  -6.580  -3.961  0.00  0.00    +0.002 C 
ATOM     23  C   UNL     1      -3.975  -7.721  -4.351  0.00  0.00    +0.000 C 
ATOM     24  C   UNL     1      -3.884  -7.809  -5.875  0.00  0.00    +0.002 C 
ATOM     25  C   UNL     1      -3.344  -6.490  -6.431  0.00  0.00    +0.022 C 
ENDBRANCH  19  20
BRANCH  19  26
ATOM     26  C   UNL     1      -4.524  -3.360  -7.599  0.00  0.00    +0.076 C 
ATOM     27  C   UNL     1      -3.569  -2.891  -8.699  0.00  0.00    +0.022 C 
ATOM     28  C   UNL     1      -4.357  -2.132  -9.769  0.00  0.00    +0.002 C 
ATOM     29  C   UNL     1      -5.040  -0.919  -9.135  0.00  0.00    +0.000 C 
ATOM     30  C   UNL     1      -5.995  -1.388  -8.035  0.00  0.00    +0.002 C 
ATOM     31  C   UNL     1      -5.208  -2.146  -6.965  0.00  0.00    +0.022 C 
ENDBRANCH  19  26
ENDBRANCH   1  17
TORSDOF 5
