REMARK  Name = ZINC24263878
REMARK  6 active torsions:
REMARK  status: ('A' for Active; 'I' for Inactive)
REMARK    1  A    between atoms: C_1  and  C_2
REMARK    2  A    between atoms: C_5  and  C_8
REMARK    3  A    between atoms: C_9  and  C_10
REMARK    4  A    between atoms: C_9  and  C_12
REMARK    5  A    between atoms: C_16  and  C_23
REMARK    6  A    between atoms: C_19  and  C_22
REMARK                            x       y       z     vdW  Elec       q    Type
REMARK                         _______ _______ _______ _____ _____    ______ ____
ROOT
ATOM      1  C   UNL     1      -0.996   1.798   0.916  0.00  0.00    +0.032 C 
ATOM      2  C   UNL     1      -0.064   1.502  -0.037  0.00  0.00    +0.114 C 
ENDROOT
BRANCH   2   3
ATOM      3  C   UNL     1       1.094   2.389  -0.236  0.00  0.00    +0.257 C 
ATOM      4  O   UNL     1       0.923   3.579  -0.424  0.00  0.00    -0.269 OA
ATOM      5  N   UNL     1       2.343   1.884  -0.210  0.00  0.00    -0.292 N 
ATOM      6  C   UNL     1       3.518   2.764  -0.297  0.00  0.00    +0.139 C 
ATOM      7  C   UNL     1       4.473   2.404   0.853  0.00  0.00    +0.133 C 
ATOM      8  O   UNL     1       4.730   0.998   0.825  0.00  0.00    -0.371 OA
ATOM      9  C   UNL     1       3.572   0.187   1.034  0.00  0.00    +0.133 C 
ATOM     10  C   UNL     1       2.571   0.434  -0.101  0.00  0.00    +0.139 C 
ATOM     11  C   UNL     1       3.975  -1.289   1.047  0.00  0.00    +0.039 C 
ATOM     12  C   UNL     1       3.834   2.780   2.191  0.00  0.00    +0.039 C 
ENDBRANCH   2   3
BRANCH   1  17
ATOM     13  C   UNL     1      -5.817  -1.305   1.283  0.00  0.00    +0.044 C 
ATOM     14  C   UNL     1      -4.553  -0.491   1.187  0.00  0.00    -0.050 A 
ATOM     15  C   UNL     1      -4.015   0.082   2.327  0.00  0.00    +0.004 A 
ATOM     16  C   UNL     1      -2.858   0.828   2.248  0.00  0.00    +0.008 A 
ATOM     17  C   UNL     1      -2.228   1.006   1.010  0.00  0.00    -0.024 A 
ATOM     18  C   UNL     1      -2.782   0.427  -0.139  0.00  0.00    +0.008 A 
ATOM     19  C   UNL     1      -3.936  -0.321  -0.041  0.00  0.00    +0.004 A 
ENDBRANCH   1  17
BRANCH   2  20
ATOM     20  C   UNL     1      -0.216   0.330  -0.847  0.00  0.00    +0.104 C 
ATOM     21  N   UNL     1      -0.337  -0.599  -1.490  0.00  0.00    -0.191 NA
ENDBRANCH   2  20
TORSDOF 3
