REMARK  Name = ZINC64588859
REMARK  6 active torsions:
REMARK  status: ('A' for Active; 'I' for Inactive)
REMARK    1  A    between atoms: C_1  and  C_2
REMARK    2  A    between atoms: C_6  and  C_8
REMARK    3  A    between atoms: N_10  and  C_11
REMARK    4  A    between atoms: C_14  and  N_20
REMARK    5  A    between atoms: C_16  and  C_17
REMARK    6  A    between atoms: C_24  and  C_27
REMARK                            x       y       z     vdW  Elec       q    Type
REMARK                         _______ _______ _______ _____ _____    ______ ____
ROOT
ATOM      1  C   UNL     1       0.188  -4.892   3.645  0.00  0.00    +0.048 A 
ATOM      2  C   UNL     1       0.171  -4.132   4.807  0.00  0.00    +0.026 A 
ATOM      3  C   UNL     1       0.266  -4.746   6.038  0.00  0.00    +0.025 A 
ATOM      4  C   UNL     1       0.380  -6.130   6.127  0.00  0.00    +0.031 A 
ATOM      5  C   UNL     1       0.399  -6.903   4.979  0.00  0.00    +0.040 A 
ATOM      6  C   UNL     1       0.297  -6.289   3.727  0.00  0.00    +0.086 A 
ENDROOT
BRANCH   4   7
ATOM      7  N   UNL     1       0.477  -6.743   7.382  0.00  0.00    -0.330 N 
ATOM      8  C   UNL     1       0.338  -5.953   8.613  0.00  0.00    +0.105 C 
ATOM      9  C   UNL     1       1.559  -6.206   9.502  0.00  0.00    +0.019 C 
ATOM     10  C   UNL     1       1.713  -7.711   9.734  0.00  0.00    +0.006 C 
ATOM     11  C   UNL     1       1.937  -8.416   8.394  0.00  0.00    +0.003 C 
ATOM     12  C   UNL     1       0.714  -8.189   7.492  0.00  0.00    +0.108 C 
ATOM     13  C   UNL     1       2.124  -9.916   8.630  0.00  0.00    +0.009 C 
ENDBRANCH   4   7
BRANCH   1  16
ATOM     14  C   UNL     1      -0.507  -3.068   2.294  0.00  0.00    +0.248 C 
ATOM     15  O   UNL     1      -1.055  -2.574   3.260  0.00  0.00    -0.270 OA
ATOM     16  N   UNL     1       0.093  -4.270   2.402  0.00  0.00    -0.281 N 
ATOM     17  H   UNL     1       0.458  -4.703   1.614  0.00  0.00    +0.155 HD
BRANCH  14  23
ATOM     18  C   UNL     1      -1.777   0.901  -0.449  0.00  0.00    +0.044 C 
ATOM     19  C   UNL     1      -1.108  -0.443  -0.323  0.00  0.00    -0.050 A 
ATOM     20  C   UNL     1      -0.483  -1.009  -1.421  0.00  0.00    +0.003 A 
ATOM     21  C   UNL     1       0.134  -2.242  -1.313  0.00  0.00    +0.001 A 
ATOM     22  C   UNL     1       0.130  -2.917  -0.109  0.00  0.00    +0.013 A 
ATOM     23  C   UNL     1      -0.499  -2.352   1.002  0.00  0.00    +0.037 A 
ATOM     24  C   UNL     1      -1.114  -1.104   0.888  0.00  0.00    +0.016 A 
ENDBRANCH  14  23
ENDBRANCH   1  16
BRANCH   6  25
ATOM     25  C   UNL     1       0.310  -7.104   2.501  0.00  0.00    +0.388 C 
ATOM     26  O   UNL     1       0.501  -8.310   2.570  0.00  0.00    -0.241 OA
ATOM     27  O   UNL     1       0.129  -6.574   1.413  0.00  0.00    -0.241 OA
ENDBRANCH   6  25
TORSDOF 4
