REMARK  Name = ZINC42093263
REMARK  3 active torsions:
REMARK  status: ('A' for Active; 'I' for Inactive)
REMARK    1  A    between atoms: C_1  and  C_2
REMARK    2  A    between atoms: N_9  and  C_14
REMARK    3  A    between atoms: C_14  and  N_15
REMARK                            x       y       z     vdW  Elec       q    Type
REMARK                         _______ _______ _______ _____ _____    ______ ____
ROOT
ATOM      1  C   UNL     1      -0.018   1.503   0.010  0.00  0.00    +0.044 C 
ATOM      2  C   UNL     1       0.002  -0.004   0.002  0.00  0.00    -0.047 A 
ATOM      3  C   UNL     1       0.006  -0.687  -1.198  0.00  0.00    +0.017 A 
ATOM      4  C   UNL     1       0.025  -2.082  -1.200  0.00  0.00    +0.051 A 
ATOM      5  C   UNL     1       0.040  -2.793   0.010  0.00  0.00    +0.084 A 
ATOM      6  C   UNL     1       0.037  -2.086   1.207  0.00  0.00    +0.146 A 
ATOM      7  C   UNL     1       0.023  -0.702   1.198  0.00  0.00    +0.043 A 
ATOM      8  F   UNL     1       0.051  -2.752   2.383  0.00  0.00    -0.204 F 
ATOM      9  N   UNL     1       0.057  -4.162  -0.252  0.00  0.00    -0.248 N 
ATOM     10  C   UNL     1       0.054  -4.409  -1.574  0.00  0.00    +0.292 C 
ATOM     11  O   UNL     1       0.066  -5.502  -2.099  0.00  0.00    -0.266 OA
ATOM     12  C   UNL     1       0.033  -3.086  -2.280  0.00  0.00    +0.250 C 
ATOM     13  O   UNL     1       0.024  -2.886  -3.477  0.00  0.00    -0.282 OA
ENDROOT
BRANCH   9  14
ATOM     14  C   UNL     1       0.076  -5.200   0.781  0.00  0.00    +0.201 C 
BRANCH  14  15
ATOM     15  N   UNL     1      -1.303  -5.566   1.133  0.00  0.00    -0.286 NA
ATOM     16  C   UNL     1      -1.865  -6.504   0.154  0.00  0.00    +0.091 C 
ATOM     17  C   UNL     1      -3.344  -6.745   0.467  0.00  0.00    +0.080 C 
ATOM     18  C   UNL     1      -3.475  -7.308   1.883  0.00  0.00    +0.172 C 
ATOM     19  C   UNL     1      -2.834  -6.340   2.881  0.00  0.00    +0.080 C 
ATOM     20  C   UNL     1      -1.371  -6.113   2.494  0.00  0.00    +0.091 C 
ATOM     21  O   UNL     1      -4.864  -7.479   2.205  0.00  0.00    -0.346 OA
ATOM     22  C   UNL     1      -5.146  -8.867   1.903  0.00  0.00    +0.191 C 
ATOM     23  C   UNL     1      -3.821  -9.555   2.318  0.00  0.00    +0.191 C 
ATOM     24  O   UNL     1      -2.821  -8.581   1.958  0.00  0.00    -0.346 OA
ENDBRANCH  14  15
ENDBRANCH   9  14
TORSDOF 2
