REMARK  Name = ZINC63835219
REMARK  9 active torsions:
REMARK  status: ('A' for Active; 'I' for Inactive)
REMARK    1  A    between atoms: C_1  and  C_2
REMARK    2  A    between atoms: C_5  and  C_14
REMARK    3  A    between atoms: C_6  and  C_13
REMARK    4  A    between atoms: N_7  and  C_8
REMARK    5  A    between atoms: C_8  and  C_9
REMARK    6  A    between atoms: C_14  and  C_16
REMARK    7  A    between atoms: C_16  and  S_17
REMARK    8  A    between atoms: S_17  and  C_18
REMARK    9  A    between atoms: C_21  and  C_23
REMARK                            x       y       z     vdW  Elec       q    Type
REMARK                         _______ _______ _______ _____ _____    ______ ____
ROOT
ATOM      1  S   UNL     1      -4.947  -2.735   2.433  0.00  0.00    -0.058 S 
ENDROOT
BRANCH   1   2
ATOM      2  C   UNL     1      -6.402  -2.865   1.448  0.00  0.00    +0.278 A 
ATOM      3  N   UNL     1      -6.532  -2.471   0.190  0.00  0.00    -0.101 NA
ATOM      4  N   UNL     1      -7.729  -2.719  -0.212  0.00  0.00    -0.107 NA
ATOM      5  C   UNL     1      -8.412  -3.283   0.771  0.00  0.00    +0.248 A 
ATOM      6  O   UNL     1      -7.579  -3.388   1.834  0.00  0.00    -0.411 OA
BRANCH   5   7
ATOM      7  C   UNL     1      -9.750  -3.699   0.721  0.00  0.00    +0.044 C 
ATOM      8  C   UNL     1     -10.621  -3.611  -0.366  0.00  0.00    +0.008 A 
ATOM      9  C   UNL     1     -10.462  -3.112  -1.677  0.00  0.00    +0.010 A 
ATOM     10  C   UNL     1     -11.505  -3.155  -2.544  0.00  0.00    +0.001 A 
ATOM     11  C   UNL     1     -12.744  -3.684  -2.174  0.00  0.00    +0.002 A 
ATOM     12  C   UNL     1     -12.967  -4.180  -0.932  0.00  0.00    +0.026 A 
ATOM     13  C   UNL     1     -11.924  -4.170   0.030  0.00  0.00    +0.043 A 
ATOM     14  N   UNL     1     -11.887  -4.585   1.281  0.00  0.00    -0.380 N 
ATOM     15  C   UNL     1     -10.550  -4.344   1.831  0.00  0.00    +0.154 C 
ATOM     16  H   UNL     1     -12.627  -4.988   1.760  0.00  0.00    +0.160 HD
ENDBRANCH   5   7
ENDBRANCH   1   2
BRANCH   1  17
ATOM     17  C   UNL     1      -3.739  -1.950   1.331  0.00  0.00    +0.158 C 
BRANCH  17  18
ATOM     18  C   UNL     1      -2.431  -1.778   2.060  0.00  0.00    +0.171 C 
ATOM     19  O   UNL     1      -2.324  -2.149   3.212  0.00  0.00    -0.291 OA
BRANCH  18  23
ATOM     20  C   UNL     1       0.127   1.424  -0.378  0.00  0.00    +0.028 C 
ATOM     21  C   UNL     1       0.093  -0.093  -0.178  0.00  0.00    +0.075 C 
ATOM     22  C   UNL     1      -1.355  -0.578   0.024  0.00  0.00    +0.062 C 
ATOM     23  C   UNL     1      -1.338  -1.189   1.409  0.00  0.00    +0.014 C 
ATOM     24  C   UNL     1      -0.091  -1.071   1.909  0.00  0.00    +0.010 C 
ATOM     25  N   UNL     1       0.780  -0.461   1.068  0.00  0.00    -0.322 N 
ATOM     26  C   UNL     1       0.299  -1.573   3.276  0.00  0.00    +0.061 C 
BRANCH  25  27
ATOM     27  C   UNL     1       2.194  -0.207   1.355  0.00  0.00    +0.218 C 
BRANCH  27  28
ATOM     28  C   UNL     1       3.043  -1.342   0.781  0.00  0.00    +0.405 C 
ATOM     29  F   UNL     1       2.890  -1.382  -0.609  0.00  0.00    -0.169 F 
ATOM     30  F   UNL     1       4.389  -1.122   1.095  0.00  0.00    -0.169 F 
ATOM     31  F   UNL     1       2.629  -2.559   1.331  0.00  0.00    -0.169 F 
ENDBRANCH  27  28
ENDBRANCH  25  27
ENDBRANCH  18  23
ENDBRANCH  17  18
ENDBRANCH   1  17
TORSDOF 7
