REMARK  Name = ZINC40805298
REMARK  6 active torsions:
REMARK  status: ('A' for Active; 'I' for Inactive)
REMARK    1  A    between atoms: C_1  and  C_2
REMARK    2  A    between atoms: C_11  and  C_13
REMARK    3  A    between atoms: C_11  and  C_14
REMARK    4  A    between atoms: C_20  and  C_22
REMARK    5  A    between atoms: C_22  and  C_23
REMARK    6  A    between atoms: C_22  and  C_24
REMARK                            x       y       z     vdW  Elec       q    Type
REMARK                         _______ _______ _______ _____ _____    ______ ____
ROOT
ATOM      1  C   UNL     1      -0.018   1.503   0.010  0.00  0.00    +0.044 C 
ATOM      2  C   UNL     1       0.002  -0.004   0.002  0.00  0.00    -0.048 A 
ATOM      3  C   UNL     1       0.006  -0.687  -1.200  0.00  0.00    +0.007 A 
ATOM      4  C   UNL     1       0.019  -2.070  -1.216  0.00  0.00    +0.048 A 
ATOM      5  C   UNL     1       0.031  -2.773  -0.024  0.00  0.00    +0.144 A 
ATOM      6  C   UNL     1       0.038  -2.085   1.188  0.00  0.00    +0.076 A 
ATOM      7  C   UNL     1       0.023  -0.700   1.197  0.00  0.00    +0.030 A 
ATOM      8  N   UNL     1       0.086  -2.805   2.389  0.00  0.00    -0.279 N 
ATOM      9  C   UNL     1       0.342  -4.129   2.355  0.00  0.00    +0.270 C 
ATOM     10  O   UNL     1       0.279  -4.788   3.371  0.00  0.00    -0.271 OA
ATOM     11  C   UNL     1       0.706  -4.787   1.048  0.00  0.00    +0.258 C 
ATOM     12  O   UNL     1       0.025  -4.133  -0.026  0.00  0.00    -0.465 OA
ATOM     13  C   UNL     1       0.298  -6.261   1.088  0.00  0.00    +0.076 C 
ATOM     14  H   UNL     1      -0.063  -2.356   3.236  0.00  0.00    +0.155 HD
ENDROOT
BRANCH  11  15
ATOM     15  C   UNL     1       2.194  -4.685   0.833  0.00  0.00    +0.272 C 
ATOM     16  O   UNL     1       2.938  -4.569   1.784  0.00  0.00    -0.270 OA
ATOM     17  N   UNL     1       2.699  -4.724  -0.416  0.00  0.00    -0.260 N 
ATOM     18  C   UNL     1       4.073  -4.631  -0.614  0.00  0.00    +0.188 A 
ATOM     19  N   UNL     1       5.035  -4.507   0.279  0.00  0.00    -0.126 NA
ATOM     20  N   UNL     1       6.251  -4.433  -0.056  0.00  0.00    -0.144 NA
ATOM     21  C   UNL     1       6.568  -4.481  -1.335  0.00  0.00    +0.106 A 
ATOM     22  S   UNL     1       4.943  -4.654  -2.058  0.00  0.00    -0.035 S 
ATOM     23  H   UNL     1       2.105  -4.818  -1.177  0.00  0.00    +0.157 HD
BRANCH  21  24
ATOM     24  C   UNL     1       7.920  -4.416  -1.998  0.00  0.00    +0.040 C 
ATOM     25  C   UNL     1       8.597  -3.090  -1.647  0.00  0.00    +0.014 C 
ATOM     26  C   UNL     1       8.786  -5.577  -1.507  0.00  0.00    +0.014 C 
ENDBRANCH  21  24
ENDBRANCH  11  15
TORSDOF 2
