REMARK  Name = ZINC05741164
REMARK  2 active torsions:
REMARK  status: ('A' for Active; 'I' for Inactive)
REMARK    1  A    between atoms: C_4  and  C_7
REMARK    2  A    between atoms: C_19  and  N_24
REMARK                            x       y       z     vdW  Elec       q    Type
REMARK                         _______ _______ _______ _____ _____    ______ ____
ROOT
ATOM      1  C   UNL     1      -1.291   3.500   0.264  0.00  0.00    +0.106 C 
ATOM      2  C   UNL     1      -0.139   4.134  -0.517  0.00  0.00    +0.047 C 
ATOM      3  C   UNL     1      -0.144   5.656  -0.369  0.00  0.00    +0.011 C 
ATOM      4  C   UNL     1       1.065   6.217  -1.128  0.00  0.00    +0.028 C 
ATOM      5  C   UNL     1       2.349   5.570  -0.608  0.00  0.00    +0.160 C 
ATOM      6  O   UNL     1       2.261   4.144  -0.714  0.00  0.00    -0.372 OA
ATOM      7  C   UNL     1       1.181   3.593   0.034  0.00  0.00    +0.155 C 
ATOM      8  C   UNL     1       1.179   2.093   0.002  0.00  0.00    +0.004 A 
ATOM      9  C   UNL     1       2.380   1.407  -0.025  0.00  0.00    +0.040 A 
ATOM     10  C   UNL     1       2.394   0.026  -0.035  0.00  0.00    +0.127 A 
ATOM     11  C   UNL     1       1.205  -0.680  -0.020  0.00  0.00    +0.034 A 
ATOM     12  C   UNL     1       0.002  -0.004   0.002  0.00  0.00    +0.025 A 
ATOM     13  C   UNL     1      -0.017   1.387   0.010  0.00  0.00    +0.033 A 
ATOM     14  N   UNL     1      -1.248   2.051   0.014  0.00  0.00    -0.336 N 
ATOM     15  H   UNL     1      -2.068   1.559  -0.148  0.00  0.00    +0.147 HD
ENDROOT
BRANCH   1  19
ATOM     16  C   UNL     1      -0.810   4.266   4.439  0.00  0.00    +0.000 A 
ATOM     17  C   UNL     1      -1.686   5.032   3.692  0.00  0.00    +0.000 A 
ATOM     18  C   UNL     1      -1.842   4.784   2.341  0.00  0.00    +0.005 A 
ATOM     19  C   UNL     1      -1.121   3.770   1.737  0.00  0.00    -0.027 A 
ATOM     20  C   UNL     1      -0.250   3.001   2.485  0.00  0.00    +0.005 A 
ATOM     21  C   UNL     1      -0.091   3.252   3.835  0.00  0.00    +0.000 A 
ENDBRANCH   1  19
BRANCH  10  22
ATOM     22  N   UNL     1       3.684  -0.700  -0.062  0.00  0.00    +0.056 N 
ATOM     23  O   UNL     1       3.697  -1.917  -0.071  0.00  0.00    -0.126 OA
ATOM     24  O   UNL     1       4.732  -0.079  -0.076  0.00  0.00    -0.126 OA
ENDBRANCH  10  22
TORSDOF 2
