REMARK  Name = ZINC04121178
REMARK  5 active torsions:
REMARK  status: ('A' for Active; 'I' for Inactive)
REMARK    1  A    between atoms: C_1  and  C_2
REMARK    2  A    between atoms: C_5  and  C_22
REMARK    3  A    between atoms: C_6  and  N_8
REMARK    4  A    between atoms: C_9  and  C_11
REMARK    5  A    between atoms: C_18  and  C_21
REMARK                            x       y       z     vdW  Elec       q    Type
REMARK                         _______ _______ _______ _____ _____    ______ ____
ROOT
ATOM      1  N   UNL     1       0.086   0.017  -0.011  0.00  0.00    -0.281 N 
ATOM      2  C   UNL     1      -0.007   1.361   0.005  0.00  0.00    +0.255 C 
ATOM      3  O   UNL     1       1.002   2.042   0.013  0.00  0.00    -0.270 OA
ATOM      4  H   UNL     1      -0.714  -0.526   0.064  0.00  0.00    +0.155 HD
ENDROOT
BRANCH   2   5
ATOM      5  C   UNL     1      -1.326   2.005   0.006  0.00  0.00    +0.120 A 
ATOM      6  C   UNL     1      -1.435   3.397  -0.087  0.00  0.00    +0.132 A 
ATOM      7  N   UNL     1      -2.640   3.941  -0.083  0.00  0.00    -0.230 NA
ATOM      8  C   UNL     1      -3.728   3.204   0.006  0.00  0.00    +0.180 A 
ATOM      9  N   UNL     1      -3.721   1.841   0.101  0.00  0.00    -0.259 N 
ATOM     10  C   UNL     1      -2.500   1.227   0.096  0.00  0.00    +0.271 A 
ATOM     11  O   UNL     1      -2.425   0.013   0.173  0.00  0.00    -0.266 OA
ATOM     12  C   UNL     1      -4.945   1.220   0.186  0.00  0.00    +0.033 A 
ATOM     13  C   UNL     1      -6.059   1.951   0.174  0.00  0.00    +0.070 A 
ATOM     14  S   UNL     1      -5.410   3.607   0.036  0.00  0.00    -0.057 S 
ATOM     15  C   UNL     1      -5.026  -0.281   0.294  0.00  0.00    +0.064 C 
ENDBRANCH   2   5
BRANCH   1  21
ATOM     16  C   UNL     1       4.763   0.216  -1.513  0.00  0.00    +0.044 C 
ATOM     17  C   UNL     1       3.623  -0.522  -0.860  0.00  0.00    -0.049 A 
ATOM     18  C   UNL     1       3.813  -1.807  -0.384  0.00  0.00    +0.004 A 
ATOM     19  C   UNL     1       2.769  -2.487   0.215  0.00  0.00    +0.005 A 
ATOM     20  C   UNL     1       1.532  -1.885   0.341  0.00  0.00    -0.029 A 
ATOM     21  C   UNL     1       1.338  -0.595  -0.136  0.00  0.00    +0.037 A 
ATOM     22  C   UNL     1       2.387   0.083  -0.742  0.00  0.00    +0.027 A 
ATOM     23  C   UNL     1       0.395  -2.627   0.993  0.00  0.00    +0.045 C 
ENDBRANCH   1  21
TORSDOF 2
