REMARK  Name = ZINC12549689
REMARK  10 active torsions:
REMARK  status: ('A' for Active; 'I' for Inactive)
REMARK    1  A    between atoms: C_1  and  C_2
REMARK    2  A    between atoms: C_3  and  C_30
REMARK    3  A    between atoms: C_4  and  C_29
REMARK    4  A    between atoms: C_5  and  S_10
REMARK    5  A    between atoms: C_6  and  C_9
REMARK    6  A    between atoms: C_7  and  C_8
REMARK    7  A    between atoms: S_10  and  N_13
REMARK    8  A    between atoms: N_13  and  N_14
REMARK    9  A    between atoms: C_15  and  C_17
REMARK   10  A    between atoms: N_21  and  C_22
REMARK                            x       y       z     vdW  Elec       q    Type
REMARK                         _______ _______ _______ _____ _____    ______ ____
ROOT
ATOM      1  N   UNL     1      -2.792   4.050   5.217  0.00  0.00    -0.108 NA
ATOM      2  H   UNL     1      -2.731   4.585   6.024  0.00  0.00    +0.172 HD
ENDROOT
BRANCH   1   3
ATOM      3  N   UNL     1      -3.576   4.490   4.143  0.00  0.00    -0.227 N 
ATOM      4  C   UNL     1      -4.876   4.789   4.335  0.00  0.00    +0.277 C 
ATOM      5  O   UNL     1      -5.346   4.766   5.457  0.00  0.00    -0.267 OA
ATOM      6  H   UNL     1      -3.183   4.580   3.260  0.00  0.00    +0.171 HD
BRANCH   4   7
ATOM      7  C   UNL     1      -5.725   5.141   3.191  0.00  0.00    +0.129 A 
ATOM      8  C   UNL     1      -5.331   5.279   1.889  0.00  0.00    +0.144 A 
ATOM      9  N   UNL     1      -6.405   5.604   1.170  0.00  0.00    -0.243 NA
ATOM     10  C   UNL     1      -7.453   5.678   1.950  0.00  0.00    +0.204 A 
ATOM     11  N   UNL     1      -7.084   5.394   3.214  0.00  0.00    -0.295 N 
BRANCH  11  12
ATOM     12  C   UNL     1      -7.919   5.364   4.340  0.00  0.00    +0.048 A 
ATOM     13  C   UNL     1      -8.009   4.212   5.108  0.00  0.00    +0.029 A 
ATOM     14  C   UNL     1      -8.828   4.186   6.220  0.00  0.00    +0.040 A 
ATOM     15  C   UNL     1      -9.568   5.305   6.562  0.00  0.00    +0.124 A 
ATOM     16  C   UNL     1      -9.484   6.454   5.794  0.00  0.00    +0.040 A 
ATOM     17  C   UNL     1      -8.662   6.486   4.684  0.00  0.00    +0.029 A 
ATOM     18  F   UNL     1     -10.373   5.276   7.646  0.00  0.00    -0.205 F 
ENDBRANCH  11  12
ENDBRANCH   4   7
ENDBRANCH   1   3
BRANCH   1  19
ATOM     19  S   UNL     1      -1.969   2.617   5.109  0.00  0.00    +0.074 S 
ATOM     20  O   UNL     1      -2.925   1.626   4.758  0.00  0.00    -0.152 OA
ATOM     21  O   UNL     1      -1.166   2.521   6.277  0.00  0.00    -0.152 OA
BRANCH  19  26
ATOM     22  C   UNL     1       1.825   3.086   0.441  0.00  0.00    +0.044 C 
ATOM     23  C   UNL     1       0.877   2.969   1.607  0.00  0.00    -0.044 A 
ATOM     24  C   UNL     1       1.278   3.373   2.866  0.00  0.00    -0.043 A 
ATOM     25  C   UNL     1       0.407   3.270   3.935  0.00  0.00    -0.021 A 
ATOM     26  C   UNL     1      -0.861   2.754   3.746  0.00  0.00    +0.113 A 
ATOM     27  C   UNL     1      -1.260   2.344   2.487  0.00  0.00    -0.021 A 
ATOM     28  C   UNL     1      -0.391   2.452   1.417  0.00  0.00    -0.043 A 
ATOM     29  C   UNL     1      -0.826   2.006   0.045  0.00  0.00    +0.044 C 
ATOM     30  C   UNL     1      -2.643   1.781   2.281  0.00  0.00    +0.046 C 
ATOM     31  C   UNL     1       0.842   3.716   5.307  0.00  0.00    +0.046 C 
ATOM     32  C   UNL     1       2.663   3.930   3.074  0.00  0.00    +0.044 C 
ENDBRANCH  19  26
ENDBRANCH   1  19
TORSDOF 5
