REMARK  Name = ZINC62508784
REMARK  8 active torsions:
REMARK  status: ('A' for Active; 'I' for Inactive)
REMARK    1  A    between atoms: C_1  and  C_2
REMARK    2  A    between atoms: C_2  and  C_3
REMARK    3  A    between atoms: C_2  and  C_4
REMARK    4  A    between atoms: C_2  and  O_5
REMARK    5  A    between atoms: O_5  and  C_6
REMARK    6  A    between atoms: C_12  and  C_14
REMARK    7  A    between atoms: N_16  and  C_17
REMARK    8  A    between atoms: N_27  and  C_28
REMARK                            x       y       z     vdW  Elec       q    Type
REMARK                         _______ _______ _______ _____ _____    ______ ____
ROOT
ATOM      1  C   UNL     1       4.184   1.347  -2.879  0.00  0.00    +0.238 C 
ATOM      2  O   UNL     1       3.204   2.033  -3.079  0.00  0.00    -0.273 OA
ATOM      3  N   UNL     1       5.399   1.920  -2.781  0.00  0.00    -0.281 N 
ATOM      4  H   UNL     1       6.171   1.383  -2.542  0.00  0.00    +0.155 HD
ENDROOT
BRANCH   3   5
ATOM      5  C   UNL     1       5.548   3.292  -3.024  0.00  0.00    +0.078 A 
ATOM      6  C   UNL     1       4.638   3.960  -3.833  0.00  0.00    +0.027 A 
ATOM      7  C   UNL     1       4.784   5.313  -4.073  0.00  0.00    +0.004 A 
ATOM      8  C   UNL     1       5.837   6.011  -3.509  0.00  0.00    +0.027 A 
ATOM      9  C   UNL     1       6.749   5.353  -2.700  0.00  0.00    +0.080 A 
ATOM     10  C   UNL     1       6.604   3.991  -2.451  0.00  0.00    +0.164 A 
ATOM     11  O   UNL     1       7.505   3.356  -1.653  0.00  0.00    -0.479 OA
ATOM     12  C   UNL     1       8.849   3.841  -1.689  0.00  0.00    +0.325 C 
ATOM     13  C   UNL     1       8.847   5.345  -1.594  0.00  0.00    +0.257 C 
ATOM     14  O   UNL     1       9.768   5.923  -1.056  0.00  0.00    -0.272 OA
ATOM     15  N   UNL     1       7.822   6.045  -2.119  0.00  0.00    -0.269 N 
ATOM     16  C   UNL     1       7.821   7.509  -2.068  0.00  0.00    +0.138 C 
ENDBRANCH   3   5
BRANCH   1  23
ATOM     17  C   UNL     1       1.956  -0.101  -1.351  0.00  0.00    +0.404 C 
ATOM     18  O   UNL     1       2.491   0.597  -0.512  0.00  0.00    -0.226 OA
ATOM     19  N   UNL     1       2.644  -0.491  -2.442  0.00  0.00    -0.256 N 
ATOM     20  C   UNL     1       2.118  -1.329  -3.535  0.00  0.00    +0.112 C 
ATOM     21  C   UNL     1       3.370  -1.987  -4.168  0.00  0.00    +0.021 C 
ATOM     22  C   UNL     1       4.408  -0.837  -4.073  0.00  0.00    +0.033 C 
ATOM     23  C   UNL     1       4.042  -0.147  -2.742  0.00  0.00    +0.165 C 
BRANCH  17  24
ATOM     24  O   UNL     1       0.675  -0.484  -1.191  0.00  0.00    -0.445 OA
BRANCH  24  26
ATOM     25  C   UNL     1      -0.017   1.496   0.010  0.00  0.00    +0.055 C 
ATOM     26  C   UNL     1       0.006  -0.033  -0.011  0.00  0.00    +0.107 C 
ATOM     27  C   UNL     1       0.747  -0.549   1.224  0.00  0.00    +0.055 C 
ATOM     28  C   UNL     1      -1.429  -0.565  -0.004  0.00  0.00    +0.055 C 
ENDBRANCH  24  26
ENDBRANCH  17  24
ENDBRANCH   1  23
TORSDOF 4
