REMARK  Name = ZINC54911230
REMARK  3 active torsions:
REMARK  status: ('A' for Active; 'I' for Inactive)
REMARK    1  A    between atoms: C_1  and  C_2
REMARK    2  A    between atoms: C_2  and  C_3
REMARK    3  A    between atoms: C_15  and  O_20
REMARK                            x       y       z     vdW  Elec       q    Type
REMARK                         _______ _______ _______ _____ _____    ______ ____
ROOT
ATOM      1  C   UNL     1       0.718  -0.497  -1.257  0.00  0.00    +0.006 C 
ATOM      2  C   UNL     1       0.848  -2.022  -1.206  0.00  0.00    +0.006 C 
ATOM      3  C   UNL     1       1.593  -2.513  -2.449  0.00  0.00    +0.019 C 
ATOM      4  C   UNL     1       0.794  -2.137  -3.701  0.00  0.00    +0.107 C 
ATOM      5  N   UNL     1       0.540  -0.690  -3.683  0.00  0.00    -0.309 N 
ATOM      6  C   UNL     1      -0.091  -0.098  -2.495  0.00  0.00    +0.110 C 
ATOM      7  C   UNL     1       0.888   0.102  -4.766  0.00  0.00    +0.161 A 
ATOM      8  N   UNL     1       0.738   1.400  -4.911  0.00  0.00    -0.229 NA
ATOM      9  C   UNL     1       1.124   2.034  -6.016  0.00  0.00    +0.056 A 
ATOM     10  C   UNL     1       1.677   1.238  -6.966  0.00  0.00    +0.042 A 
ATOM     11  S   UNL     1       1.614  -0.364  -6.214  0.00  0.00    -0.054 S 
ATOM     12  C   UNL     1       2.204   1.643  -8.301  0.00  0.00    +0.153 C 
ATOM     13  C   UNL     1       2.367   3.172  -8.309  0.00  0.00    +0.037 C 
ATOM     14  C   UNL     1       1.090   3.807  -7.750  0.00  0.00    +0.009 C 
ATOM     15  C   UNL     1       0.978   3.531  -6.249  0.00  0.00    +0.056 C 
ENDROOT
BRANCH   1  17
ATOM     16  C   UNL     1      -0.019   1.526   0.010  0.00  0.00    +0.004 C 
ATOM     17  C   UNL     1       0.002  -0.004   0.002  0.00  0.00    +0.002 C 
ENDBRANCH   1  17
BRANCH  12  18
ATOM     18  O   UNL     1       3.471   1.022  -8.528  0.00  0.00    -0.387 OA
ATOM     19  H   UNL     1       3.442   0.055  -8.516  0.00  0.00    +0.210 HD
ENDBRANCH  12  18
TORSDOF 2
