REMARK  Name = ZINC00137932
REMARK  7 active torsions:
REMARK  status: ('A' for Active; 'I' for Inactive)
REMARK    1  A    between atoms: C_1  and  C_2
REMARK    2  A    between atoms: C_2  and  C_3
REMARK    3  A    between atoms: C_16  and  C_19
REMARK    4  A    between atoms: C_17  and  O_18
REMARK    5  A    between atoms: C_19  and  N_41
REMARK    6  A    between atoms: C_20  and  N_41
REMARK    7  A    between atoms: C_21  and  N_41
REMARK                            x       y       z     vdW  Elec       q    Type
REMARK                         _______ _______ _______ _____ _____    ______ ____
ROOT
ATOM      1  C   UNL     1      -3.632  -0.945   0.032  0.00  0.00    -0.005 A 
ATOM      2  C   UNL     1      -2.485  -0.182   0.026  0.00  0.00    +0.019 A 
ATOM      3  C   UNL     1      -1.238  -0.804   0.010  0.00  0.00    +0.026 A 
ATOM      4  C   UNL     1       0.002  -0.004   0.002  0.00  0.00    -0.000 A 
ATOM      5  C   UNL     1      -0.017   1.385   0.010  0.00  0.00    +0.009 A 
ATOM      6  C   UNL     1       1.174   2.083   0.002  0.00  0.00    +0.001 A 
ATOM      7  C   UNL     1       2.387   1.410  -0.016  0.00  0.00    +0.001 A 
ATOM      8  C   UNL     1       2.426   0.032  -0.022  0.00  0.00    +0.015 A 
ATOM      9  C   UNL     1       1.235  -0.691  -0.013  0.00  0.00    +0.067 A 
ATOM     10  C   UNL     1       1.219  -2.160  -0.020  0.00  0.00    +0.345 A 
ATOM     11  O   UNL     1       2.268  -2.776  -0.033  0.00  0.00    -0.245 OA
ATOM     12  O   UNL     1       0.053  -2.825  -0.012  0.00  0.00    -0.421 OA
ATOM     13  C   UNL     1      -1.147  -2.204   0.002  0.00  0.00    +0.144 A 
ATOM     14  C   UNL     1      -2.312  -2.959   0.010  0.00  0.00    +0.021 A 
ATOM     15  C   UNL     1      -3.547  -2.333   0.024  0.00  0.00    +0.125 A 
ENDROOT
BRANCH   1  17
ATOM     16  C   UNL     1      -5.482  -0.167   1.490  0.00  0.00    +0.009 C 
ATOM     17  C   UNL     1      -4.982  -0.274   0.048  0.00  0.00    +0.035 C 
ENDBRANCH   1  17
BRANCH  15  18
ATOM     18  O   UNL     1      -4.682  -3.079   0.031  0.00  0.00    -0.506 OA
ATOM     19  H   UNL     1      -5.002  -3.300   0.916  0.00  0.00    +0.292 HD
ENDBRANCH  15  18
BRANCH  14  20
ATOM     20  C   UNL     1      -2.232  -4.464   0.001  0.00  0.00    -0.036 C 
BRANCH  20  23
ATOM     21  C   UNL     1      -2.353  -6.419   1.423  0.00  0.00    -0.096 C 
ATOM     22  C   UNL     1      -0.953  -4.548   2.055  0.00  0.00    -0.096 C 
ATOM     23  N   UNL     1      -2.215  -4.948   1.397  0.00  0.00    +0.379 N 
ATOM     24  H   UNL     1      -3.003  -4.530   1.905  0.00  0.00    -0.082 HD
ENDBRANCH  20  23
ENDBRANCH  14  20
TORSDOF 4
