REMARK  Name = ZINC03189399
REMARK  4 active torsions:
REMARK  status: ('A' for Active; 'I' for Inactive)
REMARK    1  A    between atoms: C_1  and  C_2
REMARK    2  A    between atoms: C_7  and  N_8
REMARK    3  A    between atoms: C_12  and  C_13
REMARK    4  A    between atoms: C_16  and  O_19
REMARK                            x       y       z     vdW  Elec       q    Type
REMARK                         _______ _______ _______ _____ _____    ______ ____
ROOT
ATOM      1  N   UNL     1       4.782   5.648  -0.329  0.00  0.00    -0.217 N 
ATOM      2  C   UNL     1       4.873   4.305  -0.233  0.00  0.00    +0.262 C 
ATOM      3  O   UNL     1       5.956   3.750  -0.245  0.00  0.00    -0.269 OA
ATOM      4  C   UNL     1       3.624   3.527  -0.118  0.00  0.00    +0.100 C 
ATOM      5  C   UNL     1       3.638   2.150  -0.021  0.00  0.00    +0.026 C 
ATOM      6  C   UNL     1       2.358   4.289  -0.106  0.00  0.00    +0.255 C 
ATOM      7  O   UNL     1       1.288   3.720  -0.010  0.00  0.00    -0.270 OA
ATOM      8  N   UNL     1       2.423   5.633  -0.204  0.00  0.00    -0.263 N 
ATOM      9  C   UNL     1       3.596   6.272  -0.310  0.00  0.00    +0.150 C 
ATOM     10  S   UNL     1       3.579   7.980  -0.431  0.00  0.00    -0.018 S 
ATOM     11  H   UNL     1       1.601   6.148  -0.197  0.00  0.00    +0.157 HD
ENDROOT
BRANCH   1  18
ATOM     12  C   UNL     1       5.782   6.189  -2.937  0.00  0.00    +0.045 C 
ATOM     13  C   UNL     1       6.475   6.694  -1.698  0.00  0.00    -0.029 A 
ATOM     14  C   UNL     1       7.627   7.448  -1.809  0.00  0.00    +0.005 A 
ATOM     15  C   UNL     1       8.267   7.907  -0.673  0.00  0.00    +0.000 A 
ATOM     16  C   UNL     1       7.753   7.617   0.578  0.00  0.00    +0.002 A 
ATOM     17  C   UNL     1       6.598   6.869   0.696  0.00  0.00    +0.024 A 
ATOM     18  C   UNL     1       5.953   6.407  -0.444  0.00  0.00    +0.046 A 
ENDBRANCH   1  18
BRANCH   5  19
ATOM     19  C   UNL     1       2.388   1.396  -0.126  0.00  0.00    -0.024 A 
ATOM     20  C   UNL     1       2.104   0.372   0.790  0.00  0.00    +0.011 A 
ATOM     21  C   UNL     1       0.936  -0.327   0.687  0.00  0.00    +0.046 A 
ATOM     22  C   UNL     1       0.028  -0.027  -0.324  0.00  0.00    +0.117 A 
ATOM     23  C   UNL     1       0.305   0.987  -1.236  0.00  0.00    +0.046 A 
ATOM     24  C   UNL     1       1.469   1.694  -1.144  0.00  0.00    +0.011 A 
BRANCH  22  25
ATOM     25  O   UNL     1      -1.130  -0.726  -0.422  0.00  0.00    -0.507 OA
ATOM     26  H   UNL     1      -1.863  -0.344   0.080  0.00  0.00    +0.292 HD
ENDBRANCH  22  25
ENDBRANCH   5  19
TORSDOF 3
