REMARK  Name = ZINC40119307
REMARK  7 active torsions:
REMARK  status: ('A' for Active; 'I' for Inactive)
REMARK    1  A    between atoms: C_1  and  C_2
REMARK    2  A    between atoms: C_5  and  C_26
REMARK    3  A    between atoms: C_6  and  N_8
REMARK    4  A    between atoms: C_12  and  S_13
REMARK    5  A    between atoms: S_13  and  C_14
REMARK    6  A    between atoms: C_14  and  C_15
REMARK    7  A    between atoms: C_23  and  C_25
REMARK                            x       y       z     vdW  Elec       q    Type
REMARK                         _______ _______ _______ _____ _____    ______ ____
ROOT
ATOM      1  N   UNL     1       0.051  -2.798   2.395  0.00  0.00    -0.294 N 
ATOM      2  C   UNL     1      -0.951  -2.828   3.342  0.00  0.00    +0.113 A 
ATOM      3  C   UNL     1      -0.527  -3.626   4.337  0.00  0.00    +0.131 A 
ATOM      4  N   UNL     1       0.699  -4.080   4.023  0.00  0.00    -0.230 NA
ATOM      5  C   UNL     1       1.056  -3.596   2.856  0.00  0.00    +0.174 A 
ENDROOT
BRANCH   1  11
ATOM      6  C   UNL     1      -0.018   1.503   0.010  0.00  0.00    +0.044 C 
ATOM      7  C   UNL     1       0.002  -0.004   0.002  0.00  0.00    -0.048 A 
ATOM      8  C   UNL     1       0.006  -0.688  -1.200  0.00  0.00    +0.004 A 
ATOM      9  C   UNL     1       0.024  -2.071  -1.212  0.00  0.00    +0.005 A 
ATOM     10  C   UNL     1       0.039  -2.773  -0.022  0.00  0.00    -0.027 A 
ATOM     11  C   UNL     1       0.036  -2.089   1.186  0.00  0.00    +0.052 A 
ATOM     12  C   UNL     1       0.023  -0.700   1.194  0.00  0.00    +0.029 A 
ATOM     13  C   UNL     1       0.059  -4.279  -0.035  0.00  0.00    +0.046 C 
ENDBRANCH   1  11
BRANCH   5  14
ATOM     14  S   UNL     1       2.579  -3.918   2.029  0.00  0.00    -0.081 S 
BRANCH  14  15
ATOM     15  C   UNL     1       3.461  -5.035   3.153  0.00  0.00    +0.133 C 
BRANCH  15  16
ATOM     16  C   UNL     1       4.798  -5.394   2.558  0.00  0.00    +0.060 A 
ATOM     17  C   UNL     1       5.959  -4.838   3.053  0.00  0.00    +0.096 A 
ATOM     18  C   UNL     1       7.187  -5.183   2.488  0.00  0.00    +0.275 A 
ATOM     19  O   UNL     1       8.218  -4.694   2.923  0.00  0.00    -0.266 OA
ATOM     20  N   UNL     1       7.234  -6.068   1.450  0.00  0.00    -0.171 N 
ATOM     21  C   UNL     1       6.036  -6.571   1.021  0.00  0.00    +0.199 A 
ATOM     22  N   UNL     1       4.880  -6.257   1.549  0.00  0.00    -0.225 NA
ATOM     23  S   UNL     1       6.526  -7.652  -0.305  0.00  0.00    -0.033 S 
ATOM     24  C   UNL     1       8.286  -7.364  -0.203  0.00  0.00    +0.099 A 
ATOM     25  N   UNL     1       8.366  -6.516   0.776  0.00  0.00    -0.159 NA
ATOM     26  C   UNL     1       9.392  -7.955  -1.039  0.00  0.00    +0.075 C 
ENDBRANCH  15  16
ENDBRANCH  14  15
ENDBRANCH   5  14
TORSDOF 4
