REMARK  Name = ZINC34830264
REMARK  7 active torsions:
REMARK  status: ('A' for Active; 'I' for Inactive)
REMARK    1  A    between atoms: C_1  and  C_2
REMARK    2  A    between atoms: C_7  and  C_8
REMARK    3  A    between atoms: N_17  and  C_18
REMARK    4  A    between atoms: C_18  and  C_19
REMARK    5  A    between atoms: C_19  and  C_20
REMARK    6  A    between atoms: C_26  and  C_29
REMARK    7  A    between atoms: C_30  and  C_32
REMARK                            x       y       z     vdW  Elec       q    Type
REMARK                         _______ _______ _______ _____ _____    ______ ____
ROOT
ATOM      1  C   UNL     1      -1.451  -1.258   3.674  0.00  0.00    -0.068 C 
ENDROOT
BRANCH   1  10
ATOM      2  C   UNL     1       0.143   0.203   2.646  0.00  0.00    -0.006 C 
ATOM      3  C   UNL     1       1.535   0.811   2.789  0.00  0.00    -0.047 A 
ATOM      4  C   UNL     1       2.225   1.431   1.750  0.00  0.00    +0.010 A 
ATOM      5  C   UNL     1       3.459   1.941   1.968  0.00  0.00    +0.045 A 
ATOM      6  S   UNL     1       3.716   1.563   3.695  0.00  0.00    -0.101 S 
ATOM      7  C   UNL     1       2.168   0.760   3.995  0.00  0.00    -0.010 A 
ATOM      8  C   UNL     1       1.634   0.156   5.252  0.00  0.00    +0.024 C 
ATOM      9  C   UNL     1       0.128  -0.087   5.047  0.00  0.00    -0.072 C 
ATOM     10  N   UNL     1      -0.077  -0.743   3.747  0.00  0.00    +0.388 N 
ATOM     11  H   UNL     1       0.570  -1.511   3.659  0.00  0.00    -0.080 HD
BRANCH   2  18
ATOM     12  C   UNL     1      -0.745   1.613   0.286  0.00  0.00    +0.044 C 
ATOM     13  C   UNL     1      -0.384   0.152   0.200  0.00  0.00    -0.049 A 
ATOM     14  C   UNL     1      -0.472  -0.512  -1.010  0.00  0.00    +0.003 A 
ATOM     15  C   UNL     1      -0.141  -1.852  -1.088  0.00  0.00    +0.000 A 
ATOM     16  C   UNL     1       0.279  -2.527   0.043  0.00  0.00    +0.000 A 
ATOM     17  C   UNL     1       0.368  -1.863   1.252  0.00  0.00    +0.002 A 
ATOM     18  C   UNL     1       0.041  -0.522   1.329  0.00  0.00    -0.054 A 
ENDBRANCH   2  18
ENDBRANCH   1  10
BRANCH   1  19
ATOM     19  C   UNL     1      -1.648  -2.336   4.742  0.00  0.00    +0.077 C 
BRANCH  19  20
ATOM     20  C   UNL     1      -3.057  -2.865   4.667  0.00  0.00    +0.214 C 
ATOM     21  O   UNL     1      -3.828  -2.423   3.841  0.00  0.00    -0.276 OA
ATOM     22  N   UNL     1      -3.461  -3.829   5.518  0.00  0.00    -0.298 N 
ATOM     23  C   UNL     1      -2.540  -4.369   6.528  0.00  0.00    +0.127 C 
ATOM     24  C   UNL     1      -2.470  -5.892   6.362  0.00  0.00    +0.127 C 
ATOM     25  N   UNL     1      -3.839  -6.421   6.297  0.00  0.00    -0.289 N 
ATOM     26  C   UNL     1      -4.760  -5.881   5.287  0.00  0.00    +0.091 C 
ATOM     27  C   UNL     1      -4.832  -4.354   5.457  0.00  0.00    +0.130 C 
ATOM     28  C   UNL     1      -4.247  -6.226   3.888  0.00  0.00    +0.029 C 
ATOM     29  C   UNL     1      -4.243  -7.385   7.148  0.00  0.00    +0.282 C 
ATOM     30  O   UNL     1      -5.345  -7.886   7.022  0.00  0.00    -0.267 OA
BRANCH  29  31
ATOM     31  C   UNL     1      -3.355  -7.830   8.227  0.00  0.00    +0.189 A 
ATOM     32  C   UNL     1      -3.680  -8.704   9.225  0.00  0.00    +0.054 A 
ATOM     33  C   UNL     1      -2.537  -8.843  10.028  0.00  0.00    +0.042 A 
ATOM     34  C   UNL     1      -1.577  -8.057   9.492  0.00  0.00    +0.196 A 
ATOM     35  O   UNL     1      -2.072  -7.453   8.404  0.00  0.00    -0.458 OA
ENDBRANCH  29  31
ENDBRANCH  19  20
ENDBRANCH   1  19
TORSDOF 5
