REMARK  Name = ZINC09041595
REMARK  5 active torsions:
REMARK  status: ('A' for Active; 'I' for Inactive)
REMARK    1  A    between atoms: C_1  and  C_2
REMARK    2  A    between atoms: C_2  and  C_3
REMARK    3  A    between atoms: C_3  and  C_4
REMARK    4  A    between atoms: C_4  and  N_5
REMARK    5  A    between atoms: C_10  and  C_27
REMARK                            x       y       z     vdW  Elec       q    Type
REMARK                         _______ _______ _______ _____ _____    ______ ____
ROOT
ATOM      1  N   UNL     1       1.337   4.191  -2.576  0.00  0.00    -0.242 N 
ATOM      2  C   UNL     1       2.058   3.773  -1.484  0.00  0.00    +0.224 C 
ATOM      3  O   UNL     1       3.017   4.308  -0.970  0.00  0.00    -0.275 OA
ATOM      4  C   UNL     1       1.400   2.543  -1.093  0.00  0.00    +0.073 C 
ATOM      5  C   UNL     1       1.384   1.562  -0.003  0.00  0.00    -0.060 C 
ATOM      6  C   UNL     1      -0.676   1.537  -1.217  0.00  0.00    +0.050 C 
ATOM      7  C   UNL     1      -0.115   2.950  -1.308  0.00  0.00    +0.088 C 
ATOM      8  C   UNL     1       0.115   3.583  -2.658  0.00  0.00    +0.225 C 
ATOM      9  O   UNL     1      -0.628   3.558  -3.615  0.00  0.00    -0.275 OA
ATOM     10  C   UNL     1      -0.391   0.690  -2.416  0.00  0.00    -0.027 A 
ATOM     11  C   UNL     1       0.759   0.309  -3.072  0.00  0.00    +0.019 A 
ATOM     12  C   UNL     1       0.690  -0.510  -4.185  0.00  0.00    +0.018 A 
ATOM     13  C   UNL     1      -0.540  -0.949  -4.643  0.00  0.00    +0.017 A 
ATOM     14  C   UNL     1      -1.695  -0.572  -3.991  0.00  0.00    +0.024 A 
ATOM     15  C   UNL     1      -1.634   0.252  -2.871  0.00  0.00    +0.036 A 
ATOM     16  N   UNL     1      -2.652   0.758  -2.058  0.00  0.00    -0.286 N 
ATOM     17  C   UNL     1      -2.171   1.525  -1.060  0.00  0.00    +0.211 C 
ATOM     18  O   UNL     1      -2.815   2.093  -0.204  0.00  0.00    -0.277 OA
ATOM     19 BR   UNL     1       2.274  -1.027  -5.080  0.00  0.00    -0.050 Br
ATOM     20  C   UNL     1       1.692   2.246   1.331  0.00  0.00    -0.013 C 
ATOM     21  H   UNL     1      -3.595   0.578  -2.195  0.00  0.00    +0.155 HD
ATOM     22  N   UNL     1      -0.002   1.020  -0.009  0.00  0.00    +0.394 N 
ATOM     23  H   UNL     1      -0.503   1.329   0.832  0.00  0.00    -0.083 HD
ATOM     24  H   UNL     1       0.024  -0.007  -0.035  0.00  0.00    -0.083 HD
ENDROOT
BRANCH   1  25
ATOM     25  C   UNL     1       1.813   5.189  -3.537  0.00  0.00    +0.116 C 
BRANCH  25  26
ATOM     26  C   UNL     1       1.403   6.586  -3.066  0.00  0.00    +0.019 C 
BRANCH  26  28
ATOM     27  C   UNL     1       1.491   9.026  -3.599  0.00  0.00    +0.004 C 
ATOM     28  C   UNL     1       1.900   7.629  -4.069  0.00  0.00    -0.002 C 
ENDBRANCH  26  28
ENDBRANCH  25  26
ENDBRANCH   1  25
TORSDOF 3
