REMARK  Name = ZINC66179032
REMARK  9 active torsions:
REMARK  status: ('A' for Active; 'I' for Inactive)
REMARK    1  A    between atoms: C_1  and  C_2
REMARK    2  A    between atoms: C_5  and  C_30
REMARK    3  A    between atoms: N_8  and  C_10
REMARK    4  A    between atoms: C_10  and  C_11
REMARK    5  A    between atoms: C_11  and  C_12
REMARK    6  A    between atoms: C_12  and  C_13
REMARK    7  A    between atoms: C_13  and  N_14
REMARK    8  A    between atoms: C_20  and  N_23
REMARK    9  A    between atoms: C_24  and  C_26
REMARK                            x       y       z     vdW  Elec       q    Type
REMARK                         _______ _______ _______ _____ _____    ______ ____
ROOT
ATOM      1  N   UNL     1       6.033  -2.576   4.436  0.00  0.00    -0.299 N 
ATOM      2  C   UNL     1       7.352  -2.312   4.518  0.00  0.00    +0.302 C 
ATOM      3  O   UNL     1       7.919  -1.754   3.598  0.00  0.00    -0.253 OA
ATOM      4  N   UNL     1       8.042  -2.665   5.621  0.00  0.00    -0.286 N 
ATOM      5  C   UNL     1       9.452  -2.281   5.776  0.00  0.00    +0.111 C 
ATOM      6  C   UNL     1       9.622  -1.556   7.114  0.00  0.00    +0.041 C 
ATOM      7  C   UNL     1       9.084  -2.441   8.241  0.00  0.00    +0.076 C 
ATOM      8  C   UNL     1       7.592  -2.702   8.019  0.00  0.00    +0.041 C 
ATOM      9  C   UNL     1       7.398  -3.435   6.693  0.00  0.00    +0.111 C 
ATOM     10  H   UNL     1       5.596  -3.085   5.136  0.00  0.00    +0.150 HD
ENDROOT
BRANCH   7  11
ATOM     11  N   UNL     1       9.274  -1.765   9.526  0.00  0.00    -0.312 N 
ATOM     12  C   UNL     1       9.362  -2.486  10.661  0.00  0.00    +0.216 C 
ATOM     13  O   UNL     1       9.283  -3.696  10.618  0.00  0.00    -0.276 OA
ATOM     14  H   UNL     1       9.338  -0.797   9.561  0.00  0.00    +0.149 HD
BRANCH  12  15
ATOM     15  C   UNL     1       9.558  -1.791  11.983  0.00  0.00    +0.075 C 
ATOM     16  C   UNL     1      11.024  -1.428  12.277  0.00  0.00    +0.013 C 
ATOM     17  C   UNL     1      10.754  -1.849  13.732  0.00  0.00    +0.001 C 
ATOM     18  C   UNL     1       9.639  -2.753  13.180  0.00  0.00    +0.013 C 
ENDBRANCH  12  15
ENDBRANCH   7  11
BRANCH   1  19
ATOM     19  C   UNL     1       5.260  -2.094   3.289  0.00  0.00    +0.105 C 
BRANCH  19  20
ATOM     20  C   UNL     1       3.800  -2.527   3.440  0.00  0.00    +0.017 C 
BRANCH  20  21
ATOM     21  C   UNL     1       2.992  -2.024   2.241  0.00  0.00    -0.017 C 
BRANCH  21  22
ATOM     22  C   UNL     1       1.532  -2.457   2.392  0.00  0.00    -0.079 C 
BRANCH  22  28
ATOM     23  C   UNL     1      -0.019   1.533   0.017  0.00  0.00    +0.005 C 
ATOM     24  C   UNL     1       0.001   0.003   0.007  0.00  0.00    -0.031 C 
ATOM     25  C   UNL     1      -1.435  -0.527   0.020  0.00  0.00    +0.003 C 
ATOM     26  C   UNL     1      -1.404  -2.057   0.090  0.00  0.00    -0.031 C 
ATOM     27  C   UNL     1      -0.614  -2.490   1.327  0.00  0.00    -0.076 C 
ATOM     28  N   UNL     1       0.757  -1.974   1.242  0.00  0.00    +0.380 N 
ATOM     29  C   UNL     1       0.740  -0.506   1.247  0.00  0.00    -0.076 C 
ATOM     30  C   UNL     1      -2.833  -2.594   0.181  0.00  0.00    +0.005 C 
ATOM     31  H   UNL     1       1.186  -2.300   0.389  0.00  0.00    -0.082 HD
ENDBRANCH  22  28
ENDBRANCH  21  22
ENDBRANCH  20  21
ENDBRANCH  19  20
ENDBRANCH   1  19
TORSDOF 7
