REMARK  Name = ZINC16957164
REMARK  6 active torsions:
REMARK  status: ('A' for Active; 'I' for Inactive)
REMARK    1  A    between atoms: C_1  and  C_2
REMARK    2  A    between atoms: C_8  and  C_12
REMARK    3  A    between atoms: C_12  and  C_13
REMARK    4  A    between atoms: C_13  and  N_14
REMARK    5  A    between atoms: C_18  and  C_19
REMARK    6  A    between atoms: N_23  and  C_24
REMARK                            x       y       z     vdW  Elec       q    Type
REMARK                         _______ _______ _______ _____ _____    ______ ____
ROOT
ATOM      1  N   UNL     1      -1.112   7.213  -0.830  0.00  0.00    -0.246 N 
ATOM      2  C   UNL     1      -2.046   7.703  -1.627  0.00  0.00    +0.259 C 
ATOM      3  O   UNL     1      -2.360   8.877  -1.597  0.00  0.00    -0.269 OA
ATOM      4  C   UNL     1      -2.699   6.742  -2.559  0.00  0.00    +0.084 C 
ATOM      5  C   UNL     1      -3.679   6.958  -3.475  0.00  0.00    +0.116 C 
ATOM      6  S   UNL     1      -1.845   5.227  -2.148  0.00  0.00    -0.049 S 
ATOM      7  C   UNL     1      -0.768   5.880  -0.883  0.00  0.00    +0.168 C 
ATOM      8  N   UNL     1       0.130   5.242  -0.171  0.00  0.00    -0.225 NA
ENDROOT
BRANCH   8   9
ATOM      9  C   UNL     1       0.330   3.902  -0.362  0.00  0.00    +0.067 A 
ATOM     10  C   UNL     1       1.627   3.391  -0.447  0.00  0.00    +0.028 A 
ATOM     11  C   UNL     1       1.821   2.040  -0.640  0.00  0.00    +0.002 A 
ATOM     12  C   UNL     1       0.734   1.190  -0.749  0.00  0.00    +0.000 A 
ATOM     13  C   UNL     1      -0.554   1.690  -0.671  0.00  0.00    +0.002 A 
ATOM     14  C   UNL     1      -0.763   3.039  -0.473  0.00  0.00    +0.028 A 
ENDBRANCH   8   9
BRANCH   5  15
ATOM     15  C   UNL     1      -4.139   8.319  -3.746  0.00  0.00    +0.381 C 
ATOM     16  O   UNL     1      -3.600   9.263  -3.200  0.00  0.00    -0.241 OA
ATOM     17  O   UNL     1      -5.161   8.528  -4.602  0.00  0.00    -0.241 OA
ENDBRANCH   5  15
BRANCH   1  18
ATOM     18  C   UNL     1      -0.432   8.099   0.119  0.00  0.00    +0.120 C 
BRANCH  18  19
ATOM     19  C   UNL     1       0.805   8.705  -0.547  0.00  0.00    +0.056 C 
BRANCH  19  27
ATOM     20  C   UNL     1       4.576   6.646   3.242  0.00  0.00    +0.044 C 
ATOM     21  C   UNL     1       3.965   7.963   2.835  0.00  0.00    -0.050 A 
ATOM     22  C   UNL     1       4.335   9.127   3.494  0.00  0.00    +0.005 A 
ATOM     23  C   UNL     1       3.788  10.340   3.138  0.00  0.00    +0.026 A 
ATOM     24  C   UNL     1       2.856  10.402   2.107  0.00  0.00    +0.047 A 
ATOM     25  C   UNL     1       2.484   9.220   1.442  0.00  0.00    +0.003 A 
ATOM     26  C   UNL     1       3.051   8.000   1.820  0.00  0.00    +0.013 A 
ATOM     27  C   UNL     1       1.505   9.616   0.428  0.00  0.00    -0.021 A 
ATOM     28  C   UNL     1       1.353  10.946   0.529  0.00  0.00    +0.087 A 
ATOM     29  N   UNL     1       2.148  11.432   1.530  0.00  0.00    -0.360 N 
ATOM     30  H   UNL     1       2.207  12.364   1.793  0.00  0.00    +0.165 HD
ENDBRANCH  19  27
ENDBRANCH  18  19
ENDBRANCH   1  18
TORSDOF 5
