REMARK  Name = ZINC20637424
REMARK  5 active torsions:
REMARK  status: ('A' for Active; 'I' for Inactive)
REMARK    1  A    between atoms: C_1  and  C_2
REMARK    2  A    between atoms: C_2  and  C_3
REMARK    3  A    between atoms: C_2  and  C_4
REMARK    4  A    between atoms: C_7  and  C_10
REMARK    5  A    between atoms: C_12  and  C_26
REMARK                            x       y       z     vdW  Elec       q    Type
REMARK                         _______ _______ _______ _____ _____    ______ ____
ROOT
ATOM      1  C   UNL     1       5.409   3.086  -0.032  0.00  0.00    +0.146 C 
ATOM      2  C   UNL     1       5.646   3.949   1.209  0.00  0.00    +0.204 C 
ATOM      3  C   UNL     1       4.984   5.292   1.068  0.00  0.00    +0.239 C 
ATOM      4  O   UNL     1       4.462   5.799   2.038  0.00  0.00    -0.274 OA
ATOM      5  N   UNL     1       4.958   5.947  -0.112  0.00  0.00    -0.255 N 
ATOM      6  C   UNL     1       5.383   5.266  -1.245  0.00  0.00    +0.204 A 
ATOM      7  N   UNL     1       5.620   3.910  -1.226  0.00  0.00    -0.302 N 
ATOM      8  C   UNL     1       6.051   3.555  -2.470  0.00  0.00    +0.071 A 
ATOM      9  C   UNL     1       6.445   2.344  -3.026  0.00  0.00    +0.028 A 
ATOM     10  C   UNL     1       6.827   2.355  -4.358  0.00  0.00    +0.002 A 
ATOM     11  C   UNL     1       6.822   3.514  -5.113  0.00  0.00    +0.002 A 
ATOM     12  C   UNL     1       6.436   4.732  -4.584  0.00  0.00    +0.030 A 
ATOM     13  C   UNL     1       6.046   4.746  -3.240  0.00  0.00    +0.091 A 
ATOM     14  N   UNL     1       5.629   5.743  -2.435  0.00  0.00    -0.214 NA
ATOM     15  H   UNL     1       4.608   6.988  -0.155  0.00  0.00    +0.158 HD
ENDROOT
BRANCH   1  19
ATOM     16  C   UNL     1       1.401   1.607  -0.003  0.00  0.00    -0.045 A 
ATOM     17  C   UNL     1       1.635   2.970  -0.003  0.00  0.00    +0.004 A 
ATOM     18  C   UNL     1       2.932   3.448  -0.009  0.00  0.00    +0.006 A 
ATOM     19  C   UNL     1       3.995   2.564  -0.023  0.00  0.00    -0.023 A 
ATOM     20  C   UNL     1       3.761   1.202  -0.027  0.00  0.00    +0.006 A 
ATOM     21  C   UNL     1       2.464   0.724  -0.018  0.00  0.00    +0.004 A 
BRANCH  16  23
ATOM     22  C   UNL     1      -0.753   1.593  -1.232  0.00  0.00    +0.012 C 
ATOM     23  C   UNL     1      -0.013   1.086   0.008  0.00  0.00    +0.013 C 
ATOM     24  C   UNL     1      -0.729   1.579   1.267  0.00  0.00    +0.012 C 
ENDBRANCH  16  23
ENDBRANCH   1  19
BRANCH   2  25
ATOM     25  C   UNL     1       7.093   4.141   1.395  0.00  0.00    +0.078 C 
ATOM     26  N   UNL     1       8.210   4.289   1.539  0.00  0.00    -0.196 NA
ENDBRANCH   2  25
TORSDOF 3
