REMARK  Name = ZINC61939307
REMARK  3 active torsions:
REMARK  status: ('A' for Active; 'I' for Inactive)
REMARK    1  A    between atoms: C_1  and  C_2
REMARK    2  A    between atoms: N_5  and  C_10
REMARK    3  A    between atoms: C_15  and  N_16
REMARK                            x       y       z     vdW  Elec       q    Type
REMARK                         _______ _______ _______ _____ _____    ______ ____
ROOT
ATOM      1  C   UNL     1      -0.505  -2.456  -2.084  0.00  0.00    +0.060 A 
ATOM      2  C   UNL     1      -1.662  -2.823  -1.408  0.00  0.00    +0.026 A 
ATOM      3  C   UNL     1      -2.733  -3.342  -2.108  0.00  0.00    +0.017 A 
ATOM      4  C   UNL     1      -2.655  -3.498  -3.480  0.00  0.00    +0.020 A 
ATOM      5  C   UNL     1      -1.504  -3.135  -4.156  0.00  0.00    +0.050 A 
ATOM      6  C   UNL     1      -0.431  -2.609  -3.462  0.00  0.00    +0.148 A 
ATOM      7 BR   UNL     1      -4.124  -4.211  -4.434  0.00  0.00    -0.050 Br
ENDROOT
BRANCH   1  11
ATOM      8  C   UNL     1      -0.046   1.534   0.013  0.00  0.00    +0.039 C 
ATOM      9  C   UNL     1      -0.015   0.004   0.003  0.00  0.00    +0.132 C 
ATOM     10  C   UNL     1       0.712  -0.489  -1.272  0.00  0.00    +0.136 C 
ATOM     11  N   UNL     1       0.581  -1.930  -1.379  0.00  0.00    -0.326 N 
ATOM     12  C   UNL     1       1.550  -2.861  -0.771  0.00  0.00    +0.107 C 
ATOM     13  C   UNL     1       1.960  -2.390   0.632  0.00  0.00    +0.047 C 
ATOM     14  C   UNL     1       0.748  -1.848   1.361  0.00  0.00    +0.162 C 
ATOM     15  O   UNL     1       0.657  -0.450   1.120  0.00  0.00    -0.375 OA
ENDBRANCH   1  11
BRANCH   6  16
ATOM     16  N   UNL     1       0.797  -2.214  -4.187  0.00  0.00    +0.058 N 
ATOM     17  O   UNL     1       0.827  -2.255  -5.395  0.00  0.00    -0.126 OA
ATOM     18  O   UNL     1       1.772  -1.850  -3.571  0.00  0.00    -0.126 OA
ENDBRANCH   6  16
TORSDOF 2
