REMARK  Name = ZINC27926152
REMARK  2 active torsions:
REMARK  status: ('A' for Active; 'I' for Inactive)
REMARK    1  A    between atoms: N_11  and  S_12
REMARK    2  A    between atoms: S_12  and  C_15
REMARK                            x       y       z     vdW  Elec       q    Type
REMARK                         _______ _______ _______ _____ _____    ______ ____
ROOT
ATOM      1  C   UNL     1       0.188   3.973  -0.386  0.00  0.00    +0.004 A 
ATOM      2  C   UNL     1       1.311   3.212  -0.503  0.00  0.00    +0.028 A 
ATOM      3  C   UNL     1       1.221   1.811  -0.444  0.00  0.00    +0.073 A 
ATOM      4  C   UNL     1      -0.047   1.206  -0.263  0.00  0.00    +0.025 A 
ATOM      5  C   UNL     1      -0.134  -0.195  -0.204  0.00  0.00    +0.013 A 
ATOM      6  C   UNL     1       1.020  -0.918  -0.326  0.00  0.00    +0.020 A 
ATOM      7  C   UNL     1       2.235  -0.263  -0.502  0.00  0.00    +0.111 A 
ATOM      8  N   UNL     1       2.312   1.045  -0.556  0.00  0.00    -0.255 NA
ATOM      9  C   UNL     1      -1.194   2.019  -0.139  0.00  0.00    +0.066 A 
ATOM     10  C   UNL     1      -1.062   3.390  -0.208  0.00  0.00    +0.027 A 
ATOM     11  N   UNL     1      -2.447   1.442   0.044  0.00  0.00    -0.256 N 
ATOM     12  H   UNL     1      -2.550   0.530   0.651  0.00  0.00    +0.188 HD
ENDROOT
BRANCH  11  13
ATOM     13  S   UNL     1      -3.785   2.129  -0.650  0.00  0.00    +0.078 S 
ATOM     14  O   UNL     1      -4.871   1.249  -0.396  0.00  0.00    -0.148 OA
ATOM     15  O   UNL     1      -3.798   3.491  -0.246  0.00  0.00    -0.148 OA
BRANCH  13  16
ATOM     16  C   UNL     1      -3.528   2.122  -2.393  0.00  0.00    +0.110 A 
ATOM     17  C   UNL     1      -2.917   3.200  -3.005  0.00  0.00    +0.030 A 
ATOM     18  C   UNL     1      -2.710   3.193  -4.372  0.00  0.00    +0.022 A 
ATOM     19  C   UNL     1      -3.126   2.112  -5.129  0.00  0.00    +0.041 A 
ATOM     20  C   UNL     1      -3.743   1.036  -4.516  0.00  0.00    +0.022 A 
ATOM     21  C   UNL     1      -3.944   1.042  -3.149  0.00  0.00    +0.030 A 
ATOM     22 CL   UNL     1      -2.872   2.106  -6.846  0.00  0.00    -0.084 Cl
ENDBRANCH  13  16
ENDBRANCH  11  13
TORSDOF 2
