REMARK  Name = ZINC22995721
REMARK  8 active torsions:
REMARK  status: ('A' for Active; 'I' for Inactive)
REMARK    1  A    between atoms: C_1  and  C_2
REMARK    2  A    between atoms: C_5  and  C_8
REMARK    3  A    between atoms: C_8  and  N_9
REMARK    4  A    between atoms: N_13  and  C_16
REMARK    5  A    between atoms: C_16  and  C_18
REMARK    6  A    between atoms: C_16  and  C_19
REMARK    7  A    between atoms: N_21  and  C_22
REMARK    8  A    between atoms: C_23  and  C_27
REMARK                            x       y       z     vdW  Elec       q    Type
REMARK                         _______ _______ _______ _____ _____    ______ ____
ROOT
ATOM      1  N   UNL     1       4.997  -4.117  -1.063  0.00  0.00    +0.383 N 
ATOM      2  C   UNL     1       5.683  -2.807  -1.117  0.00  0.00    -0.077 C 
ATOM      3  C   UNL     1       4.812  -1.664  -0.572  0.00  0.00    -0.003 C 
ATOM      4  C   UNL     1       3.378  -1.780  -1.022  0.00  0.00    +0.083 C 
ATOM      5  N   UNL     1       2.622  -2.530   0.004  0.00  0.00    -0.294 NA
ATOM      6  C   UNL     1       2.789  -3.919  -0.066  0.00  0.00    +0.066 C 
ATOM      7  C   UNL     1       4.255  -4.339   0.159  0.00  0.00    -0.063 C 
ATOM      8  H   UNL     1       4.232  -4.109  -1.853  0.00  0.00    -0.081 HD
ENDROOT
BRANCH   5   9
ATOM      9  C   UNL     1       1.199  -2.169  -0.021  0.00  0.00    +0.140 C 
ATOM     10  C   UNL     1       0.500  -2.927  -1.151  0.00  0.00    +0.034 C 
BRANCH   9  11
ATOM     11  C   UNL     1       0.565  -2.535   1.297  0.00  0.00    +0.235 C 
ATOM     12  O   UNL     1       1.160  -3.244   2.080  0.00  0.00    -0.274 OA
ATOM     13  N   UNL     1      -0.664  -2.074   1.604  0.00  0.00    -0.278 N 
ATOM     14  H   UNL     1      -1.204  -1.430   0.894  0.00  0.00    +0.155 HD
BRANCH  13  15
ATOM     15  C   UNL     1      -1.247  -2.410   2.817  0.00  0.00    +0.084 A 
ATOM     16  C   UNL     1      -2.490  -2.032   3.311  0.00  0.00    +0.065 A 
ATOM     17  C   UNL     1      -2.850  -2.536   4.615  0.00  0.00    +0.022 A 
ATOM     18  C   UNL     1      -1.952  -3.316   5.242  0.00  0.00    +0.048 A 
ATOM     19  S   UNL     1      -0.601  -3.397   4.084  0.00  0.00    -0.081 S 
BRANCH  16  20
ATOM     20  C   UNL     1      -3.392  -1.167   2.544  0.00  0.00    +0.244 C 
ATOM     21  O   UNL     1      -3.059  -0.762   1.446  0.00  0.00    -0.270 OA
ATOM     22  N   UNL     1      -4.590  -0.821   3.056  0.00  0.00    -0.325 N 
ATOM     23  H   UNL     1      -5.267  -0.172   2.480  0.00  0.00    +0.145 HD
ATOM     24  H   UNL     1      -4.891  -1.187   4.048  0.00  0.00    +0.145 HD
ENDBRANCH  16  20
ENDBRANCH  13  15
ENDBRANCH   9  11
ENDBRANCH   5   9
BRANCH   1  25
ATOM     25  C   UNL     1       5.939  -5.216  -1.313  0.00  0.00    -0.043 C 
BRANCH  25  30
ATOM     26  C   UNL     1       9.468  -3.776  -5.657  0.00  0.00    +0.044 C 
ATOM     27  C   UNL     1       8.548  -4.152  -4.524  0.00  0.00    -0.050 A 
ATOM     28  C   UNL     1       8.893  -3.843  -3.221  0.00  0.00    +0.003 A 
ATOM     29  C   UNL     1       8.049  -4.188  -2.182  0.00  0.00    +0.002 A 
ATOM     30  C   UNL     1       6.859  -4.840  -2.446  0.00  0.00    -0.064 A 
ATOM     31  C   UNL     1       6.516  -5.153  -3.748  0.00  0.00    +0.002 A 
ATOM     32  C   UNL     1       7.358  -4.805  -4.787  0.00  0.00    +0.003 A 
ENDBRANCH  25  30
ENDBRANCH   1  25
TORSDOF 6
