REMARK  Name = ZINC11366239
REMARK  12 active torsions:
REMARK  status: ('A' for Active; 'I' for Inactive)
REMARK    1  A    between atoms: C_1  and  C_2
REMARK    2  A    between atoms: C_2  and  N_53
REMARK    3  A    between atoms: C_3  and  C_4
REMARK    4  A    between atoms: C_3  and  N_53
REMARK    5  A    between atoms: C_7  and  O_12
REMARK    6  A    between atoms: C_8  and  O_10
REMARK    7  A    between atoms: O_10  and  C_11
REMARK    8  A    between atoms: O_12  and  C_13
REMARK    9  A    between atoms: C_14  and  C_15
REMARK   10  A    between atoms: C_14  and  N_53
REMARK   11  A    between atoms: C_24  and  O_27
REMARK   12  A    between atoms: C_25  and  C_26
REMARK                            x       y       z     vdW  Elec       q    Type
REMARK                         _______ _______ _______ _____ _____    ______ ____
ROOT
ATOM      1  C   UNL     1       0.295  -2.492  -0.224  0.00  0.00    -0.042 C 
ENDROOT
BRANCH   1   2
ATOM      2  C   UNL     1       1.491  -1.633  -0.545  0.00  0.00    -0.047 A 
ATOM      3  C   UNL     1       2.734  -2.174  -0.640  0.00  0.00    +0.094 A 
ATOM      4  C   UNL     1       3.837  -1.348  -0.941  0.00  0.00    +0.337 A 
ATOM      5  O   UNL     1       4.945  -1.846  -1.022  0.00  0.00    -0.245 OA
ATOM      6  O   UNL     1       3.696  -0.028  -1.141  0.00  0.00    -0.422 OA
ATOM      7  C   UNL     1       2.489   0.572  -1.062  0.00  0.00    +0.146 A 
ATOM      8  C   UNL     1       1.345  -0.192  -0.764  0.00  0.00    +0.019 A 
ATOM      9  C   UNL     1       0.092   0.426  -0.680  0.00  0.00    +0.015 A 
ATOM     10  C   UNL     1      -0.016   1.770  -0.888  0.00  0.00    +0.046 A 
ATOM     11  C   UNL     1       1.113   2.532  -1.184  0.00  0.00    +0.123 A 
ATOM     12  C   UNL     1       2.361   1.936  -1.271  0.00  0.00    +0.034 A 
ATOM     13  C   UNL     1       3.575   2.769  -1.591  0.00  0.00    +0.051 C 
BRANCH  11  14
ATOM     14  O   UNL     1       0.989   3.868  -1.388  0.00  0.00    -0.506 OA
ATOM     15  H   UNL     1       1.082   4.399  -0.585  0.00  0.00    +0.292 HD
ENDBRANCH  11  14
ENDBRANCH   1   2
BRANCH   1  16
ATOM     16  N   UNL     1      -0.439  -2.775  -1.475  0.00  0.00    +0.385 N 
ATOM     17  H   UNL     1      -0.623  -1.890  -1.961  0.00  0.00    -0.081 HD
BRANCH  16  19
ATOM     18  C   UNL     1      -0.219  -3.610  -3.762  0.00  0.00    -0.017 C 
ATOM     19  C   UNL     1       0.374  -3.644  -2.352  0.00  0.00    -0.081 C 
ENDBRANCH  16  19
BRANCH  16  20
ATOM     20  C   UNL     1      -1.727  -3.431  -1.167  0.00  0.00    -0.042 C 
BRANCH  20  21
ATOM     21  C   UNL     1      -2.696  -2.387  -0.677  0.00  0.00    -0.060 A 
ATOM     22  C   UNL     1      -2.878  -2.198   0.681  0.00  0.00    +0.005 A 
ATOM     23  C   UNL     1      -3.762  -1.237   1.135  0.00  0.00    +0.049 A 
ATOM     24  C   UNL     1      -4.476  -0.468   0.230  0.00  0.00    +0.161 A 
ATOM     25  C   UNL     1      -4.297  -0.662  -1.136  0.00  0.00    +0.162 A 
ATOM     26  C   UNL     1      -3.405  -1.623  -1.585  0.00  0.00    +0.051 A 
BRANCH  25  27
ATOM     27  O   UNL     1      -4.995   0.090  -2.029  0.00  0.00    -0.491 OA
ATOM     28  C   UNL     1      -4.760  -0.164  -3.415  0.00  0.00    +0.277 C 
ENDBRANCH  25  27
BRANCH  24  29
ATOM     29  O   UNL     1      -5.349   0.474   0.676  0.00  0.00    -0.491 OA
ATOM     30  C   UNL     1      -5.482   0.618   2.091  0.00  0.00    +0.277 C 
ENDBRANCH  24  29
ENDBRANCH  20  21
ENDBRANCH  16  20
ENDBRANCH   1  16
TORSDOF 8
