REMARK  Name = ZINC60411735
REMARK  5 active torsions:
REMARK  status: ('A' for Active; 'I' for Inactive)
REMARK    1  A    between atoms: C_2  and  C_13
REMARK    2  A    between atoms: C_13  and  C_14
REMARK    3  A    between atoms: N_16  and  N_17
REMARK    4  A    between atoms: N_20  and  C_21
REMARK    5  A    between atoms: C_21  and  C_22
REMARK                            x       y       z     vdW  Elec       q    Type
REMARK                         _______ _______ _______ _____ _____    ______ ____
ROOT
ATOM      1  C   UNL     1       1.167   4.084   1.434  0.00  0.00    +0.233 C 
ATOM      2  O   UNL     1       1.185   3.291   2.352  0.00  0.00    -0.274 OA
ATOM      3  N   UNL     1       1.155   5.408   1.688  0.00  0.00    -0.233 N 
ATOM      4  H   UNL     1       1.141   6.042   0.954  0.00  0.00    +0.173 HD
ENDROOT
BRANCH   3   5
ATOM      5  N   UNL     1       1.163   5.867   3.011  0.00  0.00    -0.218 N 
ATOM      6  C   UNL     1       1.151   7.191   3.265  0.00  0.00    +0.316 C 
ATOM      7  O   UNL     1       1.157   7.590   4.414  0.00  0.00    -0.251 OA
ATOM      8  N   UNL     1       1.131   8.072   2.246  0.00  0.00    -0.290 N 
ATOM      9  H   UNL     1       1.177   5.233   3.745  0.00  0.00    +0.174 HD
ATOM     10  H   UNL     1       1.126   7.754   1.329  0.00  0.00    +0.151 HD
BRANCH   8  11
ATOM     11  C   UNL     1       1.118   9.511   2.522  0.00  0.00    +0.219 C 
BRANCH  11  12
ATOM     12  C   UNL     1       1.097  10.284   1.201  0.00  0.00    +0.405 C 
ATOM     13  F   UNL     1      -0.049   9.937   0.477  0.00  0.00    -0.169 F 
ATOM     14  F   UNL     1       1.084  11.657   1.465  0.00  0.00    -0.169 F 
ATOM     15  F   UNL     1       2.236   9.962   0.455  0.00  0.00    -0.169 F 
ENDBRANCH  11  12
ENDBRANCH   8  11
ENDBRANCH   3   5
BRANCH   1  16
ATOM     16  C   UNL     1       1.159   3.590   0.011  0.00  0.00    +0.132 C 
BRANCH  16  18
ATOM     17  C   UNL     1      -0.017   1.380   0.010  0.00  0.00    +0.053 A 
ATOM     18  C   UNL     1       1.175   2.083   0.002  0.00  0.00    -0.034 A 
ATOM     19  C   UNL     1       2.381   1.407  -0.014  0.00  0.00    +0.028 A 
ATOM     20  C   UNL     1       2.404   0.023  -0.022  0.00  0.00    +0.086 A 
ATOM     21  C   UNL     1       1.212  -0.683  -0.013  0.00  0.00    +0.180 A 
ATOM     22  C   UNL     1       0.002  -0.004   0.002  0.00  0.00    +0.164 A 
ATOM     23  O   UNL     1      -1.167  -0.709   0.010  0.00  0.00    -0.488 OA
ATOM     24  C   UNL     1      -1.468  -1.433  -1.184  0.00  0.00    +0.232 C 
ATOM     25  C   UNL     1      -0.780  -2.789  -1.181  0.00  0.00    +0.082 C 
ATOM     26  C   UNL     1       0.736  -2.670  -1.212  0.00  0.00    +0.232 C 
ATOM     27  O   UNL     1       1.220  -2.048  -0.020  0.00  0.00    -0.487 OA
ATOM     28 CL   UNL     1       3.919  -0.824  -0.042  0.00  0.00    -0.080 Cl
ENDBRANCH  16  18
ENDBRANCH   1  16
TORSDOF 5
