REMARK  Name = ZINC44599920
REMARK  4 active torsions:
REMARK  status: ('A' for Active; 'I' for Inactive)
REMARK    1  A    between atoms: C_1  and  C_2
REMARK    2  A    between atoms: C_5  and  N_23
REMARK    3  A    between atoms: C_7  and  N_8
REMARK    4  A    between atoms: C_9  and  C_11
REMARK                            x       y       z     vdW  Elec       q    Type
REMARK                         _______ _______ _______ _____ _____    ______ ____
ROOT
ATOM      1  N   UNL     1       0.025  -0.011   2.417  0.00  0.00    -0.285 N 
ATOM      2  C   UNL     1      -0.057  -0.689   3.579  0.00  0.00    +0.225 C 
ATOM      3  O   UNL     1      -0.040  -1.902   3.576  0.00  0.00    -0.275 OA
ATOM      4  H   UNL     1       0.077   0.957   2.423  0.00  0.00    +0.155 HD
ENDROOT
BRANCH   2   5
ATOM      5  C   UNL     1      -0.169   0.060   4.882  0.00  0.00    +0.116 C 
ATOM      6  C   UNL     1      -1.432   0.922   4.867  0.00  0.00    +0.113 C 
ATOM      7  C   UNL     1      -2.651   0.046   4.972  0.00  0.00    +0.218 C 
ATOM      8  O   UNL     1      -3.662   0.353   4.377  0.00  0.00    -0.275 OA
ATOM      9  N   UNL     1      -2.633  -1.074   5.718  0.00  0.00    -0.285 N 
ATOM     10  C   UNL     1      -1.471  -1.454   6.397  0.00  0.00    +0.037 A 
ATOM     11  C   UNL     1      -0.244  -0.923   6.021  0.00  0.00    -0.014 A 
ATOM     12  C   UNL     1       0.903  -1.297   6.692  0.00  0.00    +0.006 A 
ATOM     13  C   UNL     1       0.831  -2.200   7.737  0.00  0.00    +0.000 A 
ATOM     14  C   UNL     1      -0.390  -2.730   8.113  0.00  0.00    +0.002 A 
ATOM     15  C   UNL     1      -1.541  -2.360   7.447  0.00  0.00    +0.023 A 
ATOM     16  H   UNL     1      -3.431  -1.621   5.785  0.00  0.00    +0.155 HD
ENDBRANCH   2   5
BRANCH   1  23
ATOM     17  C   UNL     1      -1.265   1.183   0.182  0.00  0.00    +0.045 C 
ATOM     18  C   UNL     1      -0.585  -0.158   0.085  0.00  0.00    -0.029 A 
ATOM     19  C   UNL     1      -0.572  -0.840  -1.117  0.00  0.00    +0.007 A 
ATOM     20  C   UNL     1       0.051  -2.070  -1.210  0.00  0.00    +0.028 A 
ATOM     21  C   UNL     1       0.666  -2.624  -0.095  0.00  0.00    +0.071 A 
ATOM     22  C   UNL     1       0.655  -1.942   1.113  0.00  0.00    +0.051 A 
ATOM     23  C   UNL     1       0.033  -0.705   1.202  0.00  0.00    +0.038 A 
BRANCH  21  24
ATOM     24  N   UNL     1       1.298  -3.873  -0.190  0.00  0.00    -0.200 N 
ATOM     25  C   UNL     1       1.483  -4.615  -1.303  0.00  0.00    +0.250 A 
ATOM     26  N   UNL     1       2.114  -5.703  -0.944  0.00  0.00    -0.116 NA
ATOM     27  N   UNL     1       2.340  -5.699   0.320  0.00  0.00    -0.023 NA
ATOM     28  N   UNL     1       1.879  -4.617   0.851  0.00  0.00    -0.039 NA
ENDBRANCH  21  24
ENDBRANCH   1  23
TORSDOF 3
