REMARK  Name = ZINC49339938
REMARK  6 active torsions:
REMARK  status: ('A' for Active; 'I' for Inactive)
REMARK    1  A    between atoms: C_1  and  C_2
REMARK    2  A    between atoms: C_3  and  C_8
REMARK    3  A    between atoms: C_5  and  C_7
REMARK    4  A    between atoms: C_8  and  C_10
REMARK    5  A    between atoms: C_8  and  N_11
REMARK    6  A    between atoms: C_19  and  C_21
REMARK                            x       y       z     vdW  Elec       q    Type
REMARK                         _______ _______ _______ _____ _____    ______ ____
ROOT
ATOM      1  N   UNL     1      -0.428  -1.356  -3.837  0.00  0.00    -0.292 N 
ATOM      2  C   UNL     1      -1.169  -0.699  -4.750  0.00  0.00    +0.303 C 
ATOM      3  O   UNL     1      -0.952   0.476  -4.979  0.00  0.00    -0.253 OA
ATOM      4  N   UNL     1      -2.152  -1.343  -5.410  0.00  0.00    -0.283 N 
ATOM      5  C   UNL     1      -2.514  -2.721  -5.055  0.00  0.00    +0.109 C 
ATOM      6  C   UNL     1      -2.459  -3.587  -6.318  0.00  0.00    +0.019 C 
ATOM      7  C   UNL     1      -3.347  -2.963  -7.398  0.00  0.00    +0.003 C 
ATOM      8  C   UNL     1      -2.825  -1.567  -7.745  0.00  0.00    +0.022 C 
ATOM      9  C   UNL     1      -2.887  -0.677  -6.495  0.00  0.00    +0.074 C 
ATOM     10  C   UNL     1      -2.243   0.678  -6.794  0.00  0.00    +0.028 C 
ATOM     11  H   UNL     1      -0.648  -2.271  -3.602  0.00  0.00    +0.151 HD
ENDROOT
BRANCH   1  12
ATOM     12  C   UNL     1       0.711  -0.689  -3.201  0.00  0.00    +0.110 C 
ATOM     13  C   UNL     1       1.947  -0.830  -4.091  0.00  0.00    +0.033 C 
BRANCH  12  16
ATOM     14  C   UNL     1       1.290   0.754  -0.507  0.00  0.00    +0.066 C 
ATOM     15  C   UNL     1       1.238  -0.744  -0.662  0.00  0.00    +0.051 A 
ATOM     16  C   UNL     1       0.981  -1.325  -1.862  0.00  0.00    +0.032 A 
ATOM     17  S   UNL     1       1.052  -3.052  -1.413  0.00  0.00    -0.075 S 
ATOM     18  C   UNL     1       1.395  -2.851   0.223  0.00  0.00    +0.076 A 
ATOM     19  N   UNL     1       1.446  -1.550   0.360  0.00  0.00    -0.249 NA
ATOM     20  C   UNL     1       1.599  -3.912   1.274  0.00  0.00    +0.073 C 
ENDBRANCH  12  16
ENDBRANCH   1  12
TORSDOF 2
