REMARK  Name = ZINC66331417
REMARK  7 active torsions:
REMARK  status: ('A' for Active; 'I' for Inactive)
REMARK    1  A    between atoms: C_1  and  C_2
REMARK    2  A    between atoms: C_4  and  C_7
REMARK    3  A    between atoms: C_14  and  C_16
REMARK    4  A    between atoms: C_16  and  C_17
REMARK    5  A    between atoms: C_17  and  C_19
REMARK    6  A    between atoms: C_17  and  N_20
REMARK    7  A    between atoms: C_21  and  C_23
REMARK                            x       y       z     vdW  Elec       q    Type
REMARK                         _______ _______ _______ _____ _____    ______ ____
ROOT
ATOM      1  C   UNL     1       0.038  -3.206  -1.697  0.00  0.00    +0.095 C 
ATOM      2  C   UNL     1       1.299  -4.041  -1.462  0.00  0.00    +0.016 C 
ATOM      3  C   UNL     1       1.328  -5.213  -2.446  0.00  0.00    +0.020 C 
ATOM      4  C   UNL     1       0.106  -6.105  -2.208  0.00  0.00    +0.108 C 
ATOM      5  N   UNL     1      -1.106  -5.279  -2.289  0.00  0.00    -0.301 N 
ATOM      6  C   UNL     1      -1.199  -4.075  -1.451  0.00  0.00    +0.120 C 
ATOM      7  C   UNL     1      -2.114  -5.618  -3.117  0.00  0.00    +0.217 C 
ATOM      8  O   UNL     1      -3.110  -4.927  -3.175  0.00  0.00    -0.276 OA
ENDROOT
BRANCH   1  12
ATOM      9  C   UNL     1      -0.018   1.503   0.010  0.00  0.00    +0.091 C 
ATOM     10  C   UNL     1       0.002  -0.004   0.002  0.00  0.00    +0.169 A 
ATOM     11  N   UNL     1       0.008  -0.776  -1.091  0.00  0.00    -0.196 NA
ATOM     12  C   UNL     1       0.026  -2.034  -0.750  0.00  0.00    +0.232 A 
ATOM     13  O   UNL     1       0.033  -2.107   0.587  0.00  0.00    -0.338 OA
ATOM     14  N   UNL     1       0.023  -0.767   1.057  0.00  0.00    -0.062 NA
ENDBRANCH   1  12
BRANCH   7  15
ATOM     15  C   UNL     1      -2.004  -6.855  -3.971  0.00  0.00    +0.118 C 
BRANCH  15  16
ATOM     16  C   UNL     1      -3.273  -7.009  -4.811  0.00  0.00    +0.079 C 
ATOM     17  C   UNL     1      -3.216  -8.328  -5.584  0.00  0.00    +0.028 C 
BRANCH  16  18
ATOM     18  N   UNL     1      -3.372  -5.893  -5.756  0.00  0.00    -0.312 N 
ATOM     19  C   UNL     1      -4.576  -5.517  -6.231  0.00  0.00    +0.216 C 
ATOM     20  O   UNL     1      -5.577  -6.102  -5.877  0.00  0.00    -0.276 OA
ATOM     21  H   UNL     1      -2.571  -5.425  -6.039  0.00  0.00    +0.149 HD
BRANCH  19  22
ATOM     22  C   UNL     1      -4.677  -4.370  -7.203  0.00  0.00    +0.075 C 
ATOM     23  C   UNL     1      -3.868  -4.693  -8.460  0.00  0.00    +0.013 C 
ATOM     24  C   UNL     1      -3.970  -3.528  -9.447  0.00  0.00    +0.001 C 
ATOM     25  C   UNL     1      -5.436  -3.309  -9.826  0.00  0.00    +0.000 C 
ATOM     26  C   UNL     1      -6.246  -2.986  -8.569  0.00  0.00    +0.001 C 
ATOM     27  C   UNL     1      -6.143  -4.151  -7.582  0.00  0.00    +0.013 C 
ENDBRANCH  19  22
ENDBRANCH  16  18
ENDBRANCH  15  16
ENDBRANCH   7  15
TORSDOF 5
