REMARK  Name = ZINC39754915
REMARK  7 active torsions:
REMARK  status: ('A' for Active; 'I' for Inactive)
REMARK    1  A    between atoms: C_1  and  C_2
REMARK    2  A    between atoms: C_2  and  C_4
REMARK    3  A    between atoms: C_2  and  O_25
REMARK    4  A    between atoms: C_8  and  S_11
REMARK    5  A    between atoms: N_9  and  C_10
REMARK    6  A    between atoms: S_11  and  C_12
REMARK    7  A    between atoms: C_12  and  C_13
REMARK                            x       y       z     vdW  Elec       q    Type
REMARK                         _______ _______ _______ _____ _____    ______ ____
ROOT
ATOM      1  C   UNL     1       4.589  -3.749   1.142  0.00  0.00    +0.151 C 
ENDROOT
BRANCH   1   2
ATOM      2  C   UNL     1       5.249  -5.103   1.121  0.00  0.00    +0.121 A 
ATOM      3  N   UNL     1       6.607  -5.157   1.098  0.00  0.00    -0.310 N 
ATOM      4  H   UNL     1       7.121  -4.335   1.096  0.00  0.00    +0.170 HD
ATOM      5  C   UNL     1       7.248  -6.349   1.078  0.00  0.00    +0.259 A 
ATOM      6  O   UNL     1       8.464  -6.412   1.058  0.00  0.00    -0.267 OA
ATOM      7  C   UNL     1       6.420  -7.564   1.082  0.00  0.00    +0.065 A 
ATOM      8  C   UNL     1       6.981  -8.839   1.063  0.00  0.00    +0.015 A 
ATOM      9  C   UNL     1       6.158  -9.943   1.067  0.00  0.00    +0.001 A 
ATOM     10  C   UNL     1       4.777  -9.795   1.091  0.00  0.00    +0.002 A 
ATOM     11  C   UNL     1       4.202  -8.544   1.109  0.00  0.00    +0.028 A 
ATOM     12  C   UNL     1       5.016  -7.409   1.106  0.00  0.00    +0.078 A 
ATOM     13  N   UNL     1       4.492  -6.158   1.130  0.00  0.00    -0.233 NA
ENDBRANCH   1   2
BRANCH   1  14
ATOM     14  S   UNL     1       2.787  -3.955   1.178  0.00  0.00    -0.081 S 
BRANCH  14  18
ATOM     15  C   UNL     1       0.742  -0.511   1.242  0.00  0.00    +0.205 C 
ATOM     16  N   UNL     1       2.151  -0.081   1.214  0.00  0.00    -0.244 N 
ATOM     17  N   UNL     1       2.916  -1.254   1.191  0.00  0.00    -0.163 NA
ATOM     18  C   UNL     1       2.169  -2.306   1.201  0.00  0.00    +0.175 C 
ATOM     19  N   UNL     1       0.817  -1.982   1.233  0.00  0.00    -0.290 N 
ATOM     20  C   UNL     1      -0.311  -2.916   1.254  0.00  0.00    +0.133 C 
ATOM     21  H   UNL     1       2.482   0.831   1.212  0.00  0.00    +0.170 HD
BRANCH  15  23
ATOM     22  C   UNL     1      -0.019   1.526   0.010  0.00  0.00    +0.041 C 
ATOM     23  C   UNL     1       0.002  -0.004   0.002  0.00  0.00    +0.151 C 
BRANCH  23  24
ATOM     24  O   UNL     1       0.671  -0.465  -1.174  0.00  0.00    -0.389 OA
ATOM     25  H   UNL     1       1.588  -0.167  -1.247  0.00  0.00    +0.210 HD
ENDBRANCH  23  24
ENDBRANCH  15  23
ENDBRANCH  14  18
ENDBRANCH   1  14
TORSDOF 5
