REMARK  Name = ZINC12856578
REMARK  1 active torsions:
REMARK  status: ('A' for Active; 'I' for Inactive)
REMARK    1  A    between atoms: N_16  and  C_17
REMARK                            x       y       z     vdW  Elec       q    Type
REMARK                         _______ _______ _______ _____ _____    ______ ____
ROOT
ATOM      1  C   UNL     1       7.079   8.612   2.011  0.00  0.00    +0.000 A 
ATOM      2  C   UNL     1       7.680   7.440   1.589  0.00  0.00    +0.000 A 
ATOM      3  C   UNL     1       6.938   6.502   0.904  0.00  0.00    +0.005 A 
ATOM      4  C   UNL     1       5.595   6.725   0.633  0.00  0.00    -0.027 A 
ATOM      5  C   UNL     1       4.989   7.884   1.061  0.00  0.00    -0.040 A 
ATOM      6  C   UNL     1       5.744   8.830   1.749  0.00  0.00    +0.004 A 
ATOM      7  C   UNL     1       3.534   8.206   0.835  0.00  0.00    +0.067 C 
ATOM      8  C   UNL     1       2.975   7.419  -0.350  0.00  0.00    +0.168 C 
ATOM      9  C   UNL     1       1.472   7.279  -0.218  0.00  0.00    +0.260 C 
ATOM     10  O   UNL     1       0.652   8.177  -0.228  0.00  0.00    -0.272 OA
ATOM     11  N   UNL     1       1.230   5.977  -0.088  0.00  0.00    -0.149 NA
ATOM     12  C   UNL     1       2.334   5.254  -0.095  0.00  0.00    +0.180 C 
ATOM     13  N   UNL     1       3.440   6.019  -0.201  0.00  0.00    -0.289 N 
ATOM     14  C   UNL     1       4.856   5.665  -0.154  0.00  0.00    +0.143 C 
ATOM     15  N   UNL     1       2.356   3.893   0.001  0.00  0.00    -0.287 N 
ATOM     16  H   UNL     1       3.192   3.413  -0.101  0.00  0.00    +0.155 HD
ENDROOT
BRANCH  15  17
ATOM     17  C   UNL     1       1.170   3.191   0.246  0.00  0.00    +0.069 A 
ATOM     18  C   UNL     1       0.011   3.877   0.581  0.00  0.00    +0.026 A 
ATOM     19  C   UNL     1      -1.158   3.180   0.822  0.00  0.00    +0.002 A 
ATOM     20  C   UNL     1      -1.176   1.801   0.726  0.00  0.00    +0.003 A 
ATOM     21  C   UNL     1      -0.022   1.112   0.399  0.00  0.00    +0.040 A 
ATOM     22  C   UNL     1       1.151   1.803   0.155  0.00  0.00    +0.144 A 
ATOM     23  F   UNL     1       2.277   1.131  -0.170  0.00  0.00    -0.204 F 
ENDBRANCH  15  17
TORSDOF 1
