REMARK  Name = ZINC61847415
REMARK  5 active torsions:
REMARK  status: ('A' for Active; 'I' for Inactive)
REMARK    1  A    between atoms: C_1  and  C_2
REMARK    2  A    between atoms: C_3  and  N_17
REMARK    3  A    between atoms: C_4  and  C_16
REMARK    4  A    between atoms: N_5  and  C_7
REMARK    5  A    between atoms: C_10  and  C_14
REMARK                            x       y       z     vdW  Elec       q    Type
REMARK                         _______ _______ _______ _____ _____    ______ ____
ROOT
ATOM      1  C   UNL     1      -0.368   1.474   0.033  0.00  0.00    +0.069 C 
ATOM      2  C   UNL     1      -0.149  -0.016   0.012  0.00  0.00    +0.081 A 
ATOM      3  C   UNL     1      -0.147  -0.830  -1.132  0.00  0.00    +0.069 A 
ATOM      4  C   UNL     1       0.084  -2.106  -0.735  0.00  0.00    +0.063 A 
ATOM      5  N   UNL     1       0.224  -2.095   0.621  0.00  0.00    -0.235 N 
ATOM      6  N   UNL     1       0.078  -0.771   1.056  0.00  0.00    -0.170 NA
ATOM      7  C   UNL     1       0.171  -3.316  -1.629  0.00  0.00    +0.067 C 
ENDROOT
BRANCH   5   8
ATOM      8  C   UNL     1       0.474  -3.206   1.433  0.00  0.00    +0.067 A 
ATOM      9  C   UNL     1       1.399  -4.164   1.031  0.00  0.00    +0.029 A 
ATOM     10  C   UNL     1       1.649  -5.260   1.827  0.00  0.00    +0.022 A 
ATOM     11  C   UNL     1       0.971  -5.410   3.040  0.00  0.00    +0.070 A 
ATOM     12  C   UNL     1       0.041  -4.445   3.440  0.00  0.00    +0.060 A 
ATOM     13  C   UNL     1      -0.199  -3.348   2.640  0.00  0.00    +0.049 A 
ATOM     14 CL   UNL     1      -0.805  -4.625   4.946  0.00  0.00    -0.082 Cl
BRANCH  11  15
ATOM     15  C   UNL     1       1.227  -6.548   3.869  0.00  0.00    +0.101 C 
ATOM     16  N   UNL     1       1.431  -7.451   4.528  0.00  0.00    -0.191 NA
ENDBRANCH  11  15
ENDBRANCH   5   8
BRANCH   3  17
ATOM     17  N   UNL     1      -0.350  -0.398  -2.456  0.00  0.00    -0.355 N 
ATOM     18  H   UNL     1      -0.508   0.541  -2.641  0.00  0.00    +0.142 HD
ATOM     19  H   UNL     1      -0.331  -1.039  -3.184  0.00  0.00    +0.142 HD
ENDBRANCH   3  17
TORSDOF 3
