REMARK  Name = ZINC20095202
REMARK  3 active torsions:
REMARK  status: ('A' for Active; 'I' for Inactive)
REMARK    1  A    between atoms: C_1  and  C_2
REMARK    2  A    between atoms: C_7  and  N_8
REMARK    3  A    between atoms: N_8  and  C_9
REMARK                            x       y       z     vdW  Elec       q    Type
REMARK                         _______ _______ _______ _____ _____    ______ ____
ROOT
ATOM      1  N   UNL     1      -0.698   1.558   1.214  0.00  0.00    -0.341 N 
ATOM      2  H   UNL     1      -0.362   2.479   1.712  0.00  0.00    +0.146 HD
ENDROOT
BRANCH   1   3
ATOM      3  C   UNL     1      -0.013   1.086   0.008  0.00  0.00    +0.071 C 
ATOM      4  C   UNL     1      -0.753   1.593  -1.231  0.00  0.00    +0.027 C 
ATOM      5  C   UNL     1      -0.040   1.096  -2.490  0.00  0.00    +0.067 C 
ATOM      6  C   UNL     1       1.398   1.618  -2.501  0.00  0.00    +0.170 C 
ATOM      7  C   UNL     1       2.140   1.119  -1.260  0.00  0.00    +0.067 C 
ATOM      8  C   UNL     1       1.423   1.615  -0.003  0.00  0.00    +0.027 C 
ATOM      9  O   UNL     1       2.069   1.148  -3.681  0.00  0.00    -0.346 OA
ATOM     10  C   UNL     1       1.935   2.227  -4.637  0.00  0.00    +0.191 C 
ATOM     11  C   UNL     1       2.049   3.473  -3.724  0.00  0.00    +0.191 C 
ATOM     12  O   UNL     1       1.389   3.051  -2.513  0.00  0.00    -0.346 OA
ENDBRANCH   1   3
BRANCH   1  19
ATOM     13  C   UNL     1      -1.971   2.547   3.557  0.00  0.00    +0.046 C 
ATOM     14  C   UNL     1      -2.430   1.285   2.873  0.00  0.00    -0.028 A 
ATOM     15  C   UNL     1      -3.498   0.572   3.381  0.00  0.00    +0.025 A 
ATOM     16  C   UNL     1      -3.920  -0.586   2.752  0.00  0.00    +0.041 A 
ATOM     17  C   UNL     1      -3.273  -1.034   1.614  0.00  0.00    +0.022 A 
ATOM     18  C   UNL     1      -2.209  -0.321   1.098  0.00  0.00    +0.024 A 
ATOM     19  C   UNL     1      -1.779   0.839   1.730  0.00  0.00    +0.030 A 
ATOM     20 CL   UNL     1      -5.263  -1.480   3.394  0.00  0.00    -0.084 Cl
ENDBRANCH   1  19
TORSDOF 2
