REMARK  Name = ZINC16031500
REMARK  6 active torsions:
REMARK  status: ('A' for Active; 'I' for Inactive)
REMARK    1  A    between atoms: C_1  and  C_2
REMARK    2  A    between atoms: C_5  and  N_9
REMARK    3  A    between atoms: C_6  and  C_8
REMARK    4  A    between atoms: C_10  and  C_12
REMARK    5  A    between atoms: N_20  and  C_23
REMARK    6  A    between atoms: C_23  and  C_24
REMARK                            x       y       z     vdW  Elec       q    Type
REMARK                         _______ _______ _______ _____ _____    ______ ____
ROOT
ATOM      1  C   UNL     1       3.720  -0.949   0.175  0.00  0.00    +0.038 A 
ATOM      2  C   UNL     1       4.913  -0.228   0.161  0.00  0.00    +0.014 A 
ATOM      3  C   UNL     1       6.128  -0.886   0.255  0.00  0.00    +0.014 A 
ATOM      4  C   UNL     1       6.160  -2.268   0.352  0.00  0.00    +0.049 A 
ATOM      5  C   UNL     1       4.957  -3.003   0.361  0.00  0.00    +0.050 A 
ATOM      6  C   UNL     1       3.743  -2.343   0.273  0.00  0.00    +0.027 A 
ATOM      7  C   UNL     1       5.351  -4.423   0.473  0.00  0.00    +0.254 C 
ATOM      8  O   UNL     1       4.590  -5.369   0.513  0.00  0.00    -0.270 OA
ATOM      9  N   UNL     1       6.693  -4.494   0.525  0.00  0.00    -0.227 N 
ATOM     10  C   UNL     1       7.245  -3.269   0.460  0.00  0.00    +0.254 C 
ATOM     11  O   UNL     1       8.434  -3.025   0.484  0.00  0.00    -0.270 OA
ENDROOT
BRANCH   1  13
ATOM     12  N   UNL     1       2.402   1.107  -0.015  0.00  0.00    -0.281 N 
ATOM     13  C   UNL     1       2.426  -0.237   0.079  0.00  0.00    +0.248 C 
ATOM     14  O   UNL     1       1.385  -0.864   0.086  0.00  0.00    -0.270 OA
ATOM     15  H   UNL     1       3.232   1.603  -0.086  0.00  0.00    +0.155 HD
BRANCH  12  20
ATOM     16  C   UNL     1      -2.555   3.865   0.004  0.00  0.00    +0.044 C 
ATOM     17  C   UNL     1      -1.238   3.132  -0.001  0.00  0.00    -0.050 A 
ATOM     18  C   UNL     1      -1.140   1.892  -0.606  0.00  0.00    +0.005 A 
ATOM     19  C   UNL     1       0.064   1.216  -0.608  0.00  0.00    +0.024 A 
ATOM     20  C   UNL     1       1.180   1.787  -0.010  0.00  0.00    +0.037 A 
ATOM     21  C   UNL     1       1.080   3.034   0.593  0.00  0.00    -0.029 A 
ATOM     22  C   UNL     1      -0.129   3.703   0.595  0.00  0.00    +0.008 A 
ATOM     23  C   UNL     1       2.288   3.657   1.243  0.00  0.00    +0.045 C 
ENDBRANCH  12  20
ENDBRANCH   1  13
BRANCH   9  24
ATOM     24  C   UNL     1       7.454  -5.740   0.640  0.00  0.00    +0.191 C 
BRANCH  24  25
ATOM     25  C   UNL     1       7.664  -6.069   2.095  0.00  0.00    +0.123 A 
ATOM     26  C   UNL     1       6.840  -6.803   2.863  0.00  0.00    +0.046 A 
ATOM     27  C   UNL     1       7.421  -6.860   4.151  0.00  0.00    +0.041 A 
ATOM     28  C   UNL     1       8.562  -6.149   4.095  0.00  0.00    +0.195 A 
ATOM     29  O   UNL     1       8.704  -5.672   2.847  0.00  0.00    -0.466 OA
ENDBRANCH  24  25
ENDBRANCH   9  24
TORSDOF 4
