REMARK  Name = ZINC65505156
REMARK  10 active torsions:
REMARK  status: ('A' for Active; 'I' for Inactive)
REMARK    1  A    between atoms: C_1  and  C_2
REMARK    2  A    between atoms: C_2  and  C_3
REMARK    3  A    between atoms: C_5  and  C_10
REMARK    4  A    between atoms: C_7  and  C_9
REMARK    5  A    between atoms: C_12  and  C_27
REMARK    6  A    between atoms: N_16  and  C_17
REMARK    7  A    between atoms: C_17  and  C_18
REMARK    8  A    between atoms: C_18  and  C_19
REMARK    9  A    between atoms: C_20  and  C_26
REMARK   10  A    between atoms: C_23  and  C_25
REMARK                            x       y       z     vdW  Elec       q    Type
REMARK                         _______ _______ _______ _____ _____    ______ ____
ROOT
ATOM      1  C   UNL     1      -4.440  -1.648   1.637  0.00  0.00    +0.128 C 
ATOM      2  C   UNL     1      -5.456  -0.501   1.795  0.00  0.00    +0.108 C 
ATOM      3  N   UNL     1      -5.449  -0.157   3.237  0.00  0.00    -0.295 NA
ATOM      4  C   UNL     1      -4.962  -1.388   3.910  0.00  0.00    +0.169 C 
ATOM      5  N   UNL     1      -3.906  -1.900   2.997  0.00  0.00    -0.279 NA
ATOM      6  H   UNL     1      -4.834   0.623   3.419  0.00  0.00    +0.124 HD
ENDROOT
BRANCH   1   9
ATOM      7  C   UNL     1      -1.412  -0.526   0.013  0.00  0.00    +0.084 A 
ATOM      8  N   UNL     1      -2.117  -0.790   1.079  0.00  0.00    -0.346 N 
ATOM      9  C   UNL     1      -3.327  -1.234   0.709  0.00  0.00    +0.056 A 
ATOM     10  H   UNL     1      -1.889  -0.683  -2.004  0.00  0.00    +0.167 HD
ATOM     11  C   UNL     1      -3.374  -1.246  -0.637  0.00  0.00    +0.035 A 
ATOM     12  N   UNL     1      -2.161  -0.792  -1.079  0.00  0.00    -0.347 N 
ATOM     13  C   UNL     1      -4.539  -1.673  -1.492  0.00  0.00    +0.065 C 
ATOM     14  H   UNL     1      -1.814  -0.681   1.994  0.00  0.00    +0.167 HD
BRANCH   7  16
ATOM     15  C   UNL     1      -0.019   1.526   0.010  0.00  0.00    +0.012 C 
ATOM     16  C   UNL     1       0.002  -0.004   0.002  0.00  0.00    +0.069 C 
ENDBRANCH   7  16
ENDBRANCH   1   9
BRANCH   2  17
ATOM     17  C   UNL     1      -5.031   0.688   0.972  0.00  0.00    -0.029 A 
ATOM     18  C   UNL     1      -4.052   1.542   1.444  0.00  0.00    +0.005 A 
ATOM     19  C   UNL     1      -3.663   2.632   0.689  0.00  0.00    +0.000 A 
ATOM     20  C   UNL     1      -4.252   2.868  -0.539  0.00  0.00    +0.000 A 
ATOM     21  C   UNL     1      -5.230   2.014  -1.012  0.00  0.00    +0.000 A 
ATOM     22  C   UNL     1      -5.617   0.921  -0.259  0.00  0.00    +0.005 A 
ENDBRANCH   2  17
BRANCH   5  23
ATOM     23  C   UNL     1      -3.671  -3.334   3.213  0.00  0.00    +0.091 C 
BRANCH  23  24
ATOM     24  C   UNL     1      -2.895  -3.533   4.516  0.00  0.00    +0.050 C 
BRANCH  24  25
ATOM     25  C   UNL     1      -2.654  -5.004   4.738  0.00  0.00    -0.020 C 
ATOM     26  C   UNL     1      -1.573  -5.718   4.415  0.00  0.00    +0.061 C 
ATOM     27  N   UNL     1      -1.728  -7.012   4.773  0.00  0.00    -0.159 NA
ATOM     28  N   UNL     1      -2.807  -7.268   5.313  0.00  0.00    -0.180 NA
ATOM     29  C   UNL     1      -3.581  -6.017   5.386  0.00  0.00    +0.153 C 
ATOM     30  C   UNL     1      -4.884  -6.143   4.593  0.00  0.00    +0.039 C 
ATOM     31  C   UNL     1      -0.347  -5.158   3.742  0.00  0.00    +0.067 C 
ENDBRANCH  24  25
ENDBRANCH  23  24
ENDBRANCH   5  23
TORSDOF 6
