REMARK  Name = ZINC01018287
REMARK  6 active torsions:
REMARK  status: ('A' for Active; 'I' for Inactive)
REMARK    1  A    between atoms: C_1  and  C_2
REMARK    2  A    between atoms: C_2  and  C_3
REMARK    3  A    between atoms: C_2  and  C_4
REMARK    4  A    between atoms: C_2  and  O_5
REMARK    5  A    between atoms: O_5  and  C_6
REMARK    6  A    between atoms: C_6  and  C_8
REMARK                            x       y       z     vdW  Elec       q    Type
REMARK                         _______ _______ _______ _____ _____    ______ ____
ROOT
ATOM      1  C   UNL     1      -1.282  -0.515   0.011  0.00  0.00    +0.061 C 
ATOM      2  C   UNL     1       0.002  -0.004   0.039  0.00  0.00    +0.070 C 
ATOM      3  C   UNL     1       1.354  -0.625   0.070  0.00  0.00    +0.025 A 
ATOM      4  C   UNL     1       1.690  -1.991   0.082  0.00  0.00    +0.012 A 
ATOM      5  C   UNL     1       3.011  -2.378   0.113  0.00  0.00    +0.001 A 
ATOM      6  C   UNL     1       4.026  -1.438   0.133  0.00  0.00    +0.002 A 
ATOM      7  C   UNL     1       3.710  -0.087   0.122  0.00  0.00    +0.029 A 
ATOM      8  C   UNL     1       2.398   0.300   0.091  0.00  0.00    +0.118 A 
ATOM      9  S   UNL     1       1.576   1.867   0.069  0.00  0.00    +0.075 S 
ATOM     10  O   UNL     1       1.860   2.487  -1.178  0.00  0.00    -0.150 OA
ATOM     11  O   UNL     1       1.804   2.493   1.325  0.00  0.00    -0.150 OA
ATOM     12  N   UNL     1      -0.017   1.363   0.035  0.00  0.00    -0.202 N 
ATOM     13  C   UNL     1      -1.387   1.882  -0.002  0.00  0.00    +0.136 C 
ATOM     14  C   UNL     1      -2.270   0.623  -0.013  0.00  0.00    +0.065 C 
ENDROOT
BRANCH   1  15
ATOM     15  C   UNL     1      -1.615  -1.882   0.007  0.00  0.00    +0.338 C 
ATOM     16  O   UNL     1      -0.739  -2.721  -0.099  0.00  0.00    -0.245 OA
BRANCH  15  17
ATOM     17  O   UNL     1      -2.905  -2.263   0.119  0.00  0.00    -0.456 OA
BRANCH  17  19
ATOM     18  C   UNL     1      -2.442  -4.334   1.275  0.00  0.00    +0.055 C 
ATOM     19  C   UNL     1      -3.171  -3.667   0.107  0.00  0.00    +0.106 C 
ATOM     20  C   UNL     1      -4.676  -3.903   0.243  0.00  0.00    +0.055 C 
ATOM     21  C   UNL     1      -2.678  -4.268  -1.211  0.00  0.00    +0.055 C 
ENDBRANCH  17  19
ENDBRANCH  15  17
ENDBRANCH   1  15
TORSDOF 3
