REMARK  Name = ZINC40656442
REMARK  6 active torsions:
REMARK  status: ('A' for Active; 'I' for Inactive)
REMARK    1  A    between atoms: C_1  and  C_2
REMARK    2  A    between atoms: C_6  and  C_9
REMARK    3  A    between atoms: C_6  and  C_10
REMARK    4  A    between atoms: C_11  and  C_13
REMARK    5  A    between atoms: C_13  and  C_22
REMARK    6  A    between atoms: C_14  and  C_15
REMARK                            x       y       z     vdW  Elec       q    Type
REMARK                         _______ _______ _______ _____ _____    ______ ____
ROOT
ATOM      1  C   UNL     1       1.054   1.470  -0.479  0.00  0.00    +0.039 C 
ATOM      2  C   UNL     1       0.659   0.004  -0.292  0.00  0.00    +0.133 C 
ATOM      3  C   UNL     1       0.878  -0.757  -1.604  0.00  0.00    +0.140 C 
ATOM      4  N   UNL     1       0.671  -2.191  -1.349  0.00  0.00    -0.288 N 
ATOM      5  C   UNL     1       1.384  -2.802  -0.216  0.00  0.00    +0.055 C 
ATOM      6  C   UNL     1       1.141  -1.942   1.029  0.00  0.00    +0.185 C 
ATOM      7  O   UNL     1       1.466  -0.581   0.733  0.00  0.00    -0.373 OA
ATOM      8  C   UNL     1       0.855  -4.217   0.024  0.00  0.00    +0.034 C 
ATOM      9  C   UNL     1       2.883  -2.857  -0.519  0.00  0.00    +0.034 C 
ATOM     10  C   UNL     1      -0.146  -2.924  -2.130  0.00  0.00    +0.243 C 
ATOM     11  O   UNL     1      -0.308  -4.109  -1.900  0.00  0.00    -0.270 OA
ENDROOT
BRANCH  10  12
ATOM     12  C   UNL     1      -0.840  -2.297  -3.256  0.00  0.00    +0.012 C 
ATOM     13  C   UNL     1      -0.799  -2.869  -4.477  0.00  0.00    +0.019 C 
ATOM     14  C   UNL     1      -1.599  -1.011  -3.051  0.00  0.00    +0.049 C 
BRANCH  13  15
ATOM     15  C   UNL     1      -1.324  -2.146  -5.646  0.00  0.00    +0.011 A 
ATOM     16  C   UNL     1      -0.947  -0.818  -5.878  0.00  0.00    +0.011 A 
ATOM     17  C   UNL     1      -1.442  -0.148  -6.976  0.00  0.00    +0.001 A 
ATOM     18  C   UNL     1      -2.311  -0.782  -7.848  0.00  0.00    +0.003 A 
ATOM     19  C   UNL     1      -2.689  -2.094  -7.627  0.00  0.00    +0.039 A 
ATOM     20  C   UNL     1      -2.198  -2.784  -6.535  0.00  0.00    +0.131 A 
ATOM     21  F   UNL     1      -2.564  -4.067  -6.322  0.00  0.00    -0.205 F 
ENDBRANCH  13  15
ENDBRANCH  10  12
TORSDOF 2
