REMARK  Name = ZINC04166902
REMARK  12 active torsions:
REMARK  status: ('A' for Active; 'I' for Inactive)
REMARK    1  A    between atoms: C_1  and  C_2
REMARK    2  A    between atoms: C_2  and  C_3
REMARK    3  A    between atoms: C_3  and  C_5
REMARK    4  A    between atoms: C_3  and  N_26
REMARK    5  A    between atoms: C_8  and  S_10
REMARK    6  A    between atoms: S_10  and  C_11
REMARK    7  A    between atoms: C_11  and  C_12
REMARK    8  A    between atoms: C_16  and  C_25
REMARK    9  A    between atoms: C_21  and  C_23
REMARK   10  A    between atoms: C_21  and  C_24
REMARK   11  A    between atoms: N_26  and  C_27
REMARK   12  A    between atoms: N_26  and  C_28
REMARK                            x       y       z     vdW  Elec       q    Type
REMARK                         _______ _______ _______ _____ _____    ______ ____
ROOT
ATOM      1  C   UNL     1       0.600  -6.754   1.966  0.00  0.00    +0.174 C 
ENDROOT
BRANCH   1   2
ATOM      2  C   UNL     1       0.138  -8.061   2.555  0.00  0.00    +0.226 C 
ATOM      3  O   UNL     1      -0.697  -8.069   3.435  0.00  0.00    -0.275 OA
ATOM      4  N   UNL     1       0.653  -9.223   2.105  0.00  0.00    -0.297 N 
ATOM      5  C   UNL     1       1.677  -9.362   1.058  0.00  0.00    +0.114 C 
ATOM      6  C   UNL     1       1.896 -10.880   0.862  0.00  0.00    -0.014 C 
ATOM      7  C   UNL     1       1.536 -11.447   2.261  0.00  0.00    +0.030 C 
ATOM      8  C   UNL     1       0.298 -10.574   2.585  0.00  0.00    +0.077 C 
ATOM      9  C   UNL     1      -0.865 -11.112   1.756  0.00  0.00    +0.029 C 
ATOM     10  C   UNL     1      -0.583 -11.170   0.265  0.00  0.00    -0.033 C 
ATOM     11  C   UNL     1       0.861 -11.408  -0.130  0.00  0.00    +0.014 C 
ATOM     12  C   UNL     1      -1.415 -12.344  -0.311  0.00  0.00    +0.011 C 
ATOM     13  C   UNL     1      -1.109  -9.895  -0.411  0.00  0.00    +0.011 C 
ATOM     14  C   UNL     1       3.338 -11.212   0.449  0.00  0.00    +0.013 C 
ENDBRANCH   1   2
BRANCH   1  15
ATOM     15  S   UNL     1      -0.272  -5.384   2.775  0.00  0.00    -0.056 S 
BRANCH  15  19
ATOM     16  C   UNL     1       0.758  -1.902   1.417  0.00  0.00    +0.205 A 
ATOM     17  N   UNL     1       1.498  -2.695   0.700  0.00  0.00    -0.113 NA
ATOM     18  N   UNL     1       1.271  -3.916   1.034  0.00  0.00    -0.101 NA
ATOM     19  C   UNL     1       0.370  -3.945   1.986  0.00  0.00    +0.278 A 
ATOM     20  O   UNL     1       0.030  -2.670   2.252  0.00  0.00    -0.417 OA
BRANCH  16  21
ATOM     21  C   UNL     1       0.724  -0.398   1.334  0.00  0.00    +0.020 C 
BRANCH  21  22
ATOM     22  N   UNL     1       2.097   0.119   1.264  0.00  0.00    +0.384 N 
ATOM     23  C   UNL     1       2.068   1.588   1.267  0.00  0.00    -0.096 C 
ATOM     24  C   UNL     1       2.860  -0.358   2.425  0.00  0.00    -0.096 C 
ATOM     25  H   UNL     1       2.536  -0.206   0.416  0.00  0.00    -0.082 HD
ENDBRANCH  21  22
BRANCH  21  27
ATOM     26  C   UNL     1      -1.509  -0.399   0.214  0.00  0.00    +0.003 C 
ATOM     27  C   UNL     1      -0.045   0.027   0.082  0.00  0.00    -0.009 C 
ENDBRANCH  21  27
ENDBRANCH  16  21
ENDBRANCH  15  19
ENDBRANCH   1  15
TORSDOF 6
