REMARK  Name = ZINC05304210
REMARK  6 active torsions:
REMARK  status: ('A' for Active; 'I' for Inactive)
REMARK    1  A    between atoms: C_1  and  C_2
REMARK    2  A    between atoms: C_2  and  C_28
REMARK    3  A    between atoms: CA_3  and  C_26
REMARK    4  A    between atoms: CA_9  and  N_13
REMARK    5  A    between atoms: C_14  and  C_15
REMARK    6  A    between atoms: C_24  and  O_25
REMARK                            x       y       z     vdW  Elec       q    Type
REMARK                         _______ _______ _______ _____ _____    ______ ____
ROOT
ATOM      1  N   UNL     1       1.306   1.198   0.002  0.00  0.00    -0.275 NA
ATOM      2  C   UNL     1       2.257   0.341   0.208  0.00  0.00    +0.118 C 
ENDROOT
BRANCH   1   9
ATOM      3  C   UNL     1      -4.792   0.131   1.139  0.00  0.00    +0.025 C 
ATOM      4  C   UNL     1      -3.371   0.271   0.591  0.00  0.00    +0.042 C 
ATOM      5  CA  UNL     1      -3.133   1.678  -0.037  0.00  0.00    +0.206 C 
ATOM      6  N   UNL     1      -1.698   1.971  -0.072  0.00  0.00    -0.270 N 
ATOM      7  C   UNL     1      -0.924   1.485   1.096  0.00  0.00    +0.169 C 
ATOM      8  S   UNL     1      -2.123   0.377   1.951  0.00  0.00    -0.127 S 
ATOM      9  CA  UNL     1      -0.092   0.763   0.035  0.00  0.00    +0.221 C 
ATOM     10  C   UNL     1      -0.940   1.401  -1.038  0.00  0.00    +0.244 C 
ATOM     11  O   UNL     1      -0.941   1.402  -2.251  0.00  0.00    -0.273 OA
ATOM     12  C   UNL     1      -3.039  -0.850  -0.396  0.00  0.00    +0.025 C 
BRANCH   5  13
ATOM     13  C   UNL     1      -3.683   1.698  -1.440  0.00  0.00    +0.377 C 
ATOM     14  O   UNL     1      -3.118   1.092  -2.319  0.00  0.00    -0.244 OA
ATOM     15  OXT UNL     1      -4.800   2.390  -1.713  0.00  0.00    -0.244 OA
ENDBRANCH   5  13
ENDBRANCH   1   9
BRANCH   2  16
ATOM     16  C   UNL     1       3.659   0.777   0.175  0.00  0.00    +0.042 A 
ATOM     17  C   UNL     1       4.744  -0.175   0.412  0.00  0.00    -0.006 A 
ATOM     18  C   UNL     1       4.486  -1.528   0.666  0.00  0.00    +0.009 A 
ATOM     19  C   UNL     1       5.525  -2.384   0.875  0.00  0.00    +0.001 A 
ATOM     20  C   UNL     1       6.842  -1.933   0.835  0.00  0.00    +0.001 A 
ATOM     21  C   UNL     1       7.128  -0.625   0.586  0.00  0.00    +0.008 A 
ATOM     22  C   UNL     1       6.082   0.285   0.365  0.00  0.00    -0.017 A 
ATOM     23  C   UNL     1       6.339   1.644   0.105  0.00  0.00    +0.012 A 
ATOM     24  C   UNL     1       5.320   2.517  -0.107  0.00  0.00    +0.046 A 
ATOM     25  C   UNL     1       3.986   2.110  -0.077  0.00  0.00    +0.126 A 
BRANCH  25  26
ATOM     26  O   UNL     1       3.000   3.015  -0.294  0.00  0.00    -0.506 OA
ATOM     27  H   UNL     1       2.681   3.450   0.509  0.00  0.00    +0.292 HD
ENDBRANCH  25  26
ENDBRANCH   2  16
TORSDOF 4
