REMARK  Name = ZINC39260514
REMARK  3 active torsions:
REMARK  status: ('A' for Active; 'I' for Inactive)
REMARK    1  A    between atoms: C_1  and  C_2
REMARK    2  A    between atoms: C_4  and  C_16
REMARK    3  A    between atoms: C_10  and  N_13
REMARK                            x       y       z     vdW  Elec       q    Type
REMARK                         _______ _______ _______ _____ _____    ______ ____
ROOT
ATOM      1  C   UNL     1      -0.018   1.503   0.010  0.00  0.00    +0.069 C 
ATOM      2  C   UNL     1       0.002  -0.004   0.002  0.00  0.00    +0.075 A 
ATOM      3  C   UNL     1       0.008  -0.817  -1.138  0.00  0.00    +0.062 A 
ATOM      4  C   UNL     1       0.027  -2.107  -0.730  0.00  0.00    +0.058 A 
ATOM      5  N   UNL     1       0.034  -2.109   0.629  0.00  0.00    -0.218 N 
ATOM      6  N   UNL     1       0.023  -0.775   1.059  0.00  0.00    -0.169 NA
ATOM      7  C   UNL     1       0.053  -3.239   1.452  0.00  0.00    +0.154 A 
ATOM      8  C   UNL     1       0.562  -3.143   2.741  0.00  0.00    +0.050 A 
ATOM      9  C   UNL     1       0.575  -4.270   3.545  0.00  0.00    +0.038 A 
ATOM     10  C   UNL     1       0.076  -5.458   3.028  0.00  0.00    +0.144 A 
ATOM     11  C   UNL     1      -0.415  -5.480   1.738  0.00  0.00    +0.145 A 
ATOM     12  N   UNL     1      -0.420  -4.388   0.997  0.00  0.00    -0.234 NA
ATOM     13  C   UNL     1       0.040  -3.322  -1.621  0.00  0.00    +0.067 C 
ATOM     14 BR   UNL     1      -0.008  -0.218  -2.931  0.00  0.00    -0.047 Br
ENDROOT
BRANCH  10  15
ATOM     15  N   UNL     1       0.070  -6.688   3.852  0.00  0.00    +0.058 N 
ATOM     16  O   UNL     1       0.502  -6.661   4.981  0.00  0.00    -0.126 OA
ATOM     17  O   UNL     1      -0.366  -7.718   3.396  0.00  0.00    -0.126 OA
ENDBRANCH  10  15
TORSDOF 1
