REMARK  Name = ZINC22132598
REMARK  3 active torsions:
REMARK  status: ('A' for Active; 'I' for Inactive)
REMARK    1  A    between atoms: C_1  and  C_2
REMARK    2  A    between atoms: C_9  and  C_11
REMARK    3  A    between atoms: C_11  and  N_12
REMARK                            x       y       z     vdW  Elec       q    Type
REMARK                         _______ _______ _______ _____ _____    ______ ____
ROOT
ATOM      1  N   UNL     1       2.494   1.259  -0.014  0.00  0.00    -0.194 N 
ATOM      2  C   UNL     1       1.190   1.781   0.000  0.00  0.00    +0.061 A 
ATOM      3  C   UNL     1      -0.013   1.076   0.008  0.00  0.00    +0.025 A 
ATOM      4  C   UNL     1      -1.230   1.745   0.017  0.00  0.00    +0.002 A 
ATOM      5  C   UNL     1      -1.315   3.107   0.029  0.00  0.00    +0.009 A 
ATOM      6  C   UNL     1      -0.130   3.861   0.022  0.00  0.00    -0.014 A 
ATOM      7  C   UNL     1       1.101   3.171   0.008  0.00  0.00    +0.031 A 
ATOM      8  C   UNL     1       2.303   3.887  -0.000  0.00  0.00    +0.118 A 
ATOM      9  C   UNL     1       2.299   5.233   0.006  0.00  0.00    +0.029 A 
ATOM     10  C   UNL     1       1.082   5.926   0.020  0.00  0.00    +0.003 A 
ATOM     11  C   UNL     1      -0.111   5.265   0.029  0.00  0.00    +0.009 A 
ATOM     12  S   UNL     1       3.510   2.592  -0.017  0.00  0.00    +0.076 S 
ATOM     13  O   UNL     1       4.171   2.632  -1.275  0.00  0.00    -0.150 OA
ATOM     14  O   UNL     1       4.194   2.621   1.228  0.00  0.00    -0.150 OA
ENDROOT
BRANCH   1  15
ATOM     15  C   UNL     1       2.884  -0.153  -0.023  0.00  0.00    +0.227 C 
BRANCH  15  23
ATOM     16  C   UNL     1       4.529  -3.890  -4.662  0.00  0.00    +0.039 C 
ATOM     17  C   UNL     1       4.565  -3.171  -3.312  0.00  0.00    +0.132 C 
ATOM     18  C   UNL     1       3.224  -2.469  -3.070  0.00  0.00    +0.139 C 
ATOM     19  N   UNL     1       3.215  -1.947  -1.694  0.00  0.00    -0.295 N 
ATOM     20  C   UNL     1       3.583  -2.864  -0.604  0.00  0.00    +0.136 C 
ATOM     21  C   UNL     1       4.902  -3.548  -0.966  0.00  0.00    +0.179 C 
ATOM     22  O   UNL     1       4.793  -4.123  -2.270  0.00  0.00    -0.374 OA
ATOM     23  C   UNL     1       2.885  -0.665  -1.440  0.00  0.00    +0.235 C 
ATOM     24  O   UNL     1       2.590   0.077  -2.353  0.00  0.00    -0.274 OA
ENDBRANCH  15  23
ENDBRANCH   1  15
TORSDOF 2
