REMARK  Name = ZINC40221699
REMARK  4 active torsions:
REMARK  status: ('A' for Active; 'I' for Inactive)
REMARK    1  A    between atoms: C_1  and  C_2
REMARK    2  A    between atoms: C_3  and  C_7
REMARK    3  A    between atoms: N_9  and  C_10
REMARK    4  A    between atoms: C_10  and  C_17
REMARK                            x       y       z     vdW  Elec       q    Type
REMARK                         _______ _______ _______ _____ _____    ______ ____
ROOT
ATOM      1  C   UNL     1      -0.008  -0.248  -2.562  0.00  0.00    +0.254 C 
ATOM      2  O   UNL     1      -0.025   0.946  -2.797  0.00  0.00    -0.270 OA
ATOM      3  N   UNL     1      -0.001  -1.134  -3.577  0.00  0.00    -0.293 N 
ATOM      4  H   UNL     1       0.013  -2.086  -3.389  0.00  0.00    +0.151 HD
ENDROOT
BRANCH   3   5
ATOM      5  C   UNL     1      -0.014  -0.661  -4.963  0.00  0.00    +0.121 C 
ATOM      6  C   UNL     1      -1.253   0.234  -5.173  0.00  0.00    +0.041 C 
ATOM      7  C   UNL     1      -1.014   1.107  -6.375  0.00  0.00    +0.003 C 
ATOM      8  C   UNL     1      -1.588   0.500  -7.669  0.00  0.00    +0.000 C 
ATOM      9  C   UNL     1      -1.335  -1.016  -7.781  0.00  0.00    +0.000 C 
ATOM     10  C   UNL     1       0.051  -1.403  -7.341  0.00  0.00    +0.003 C 
ATOM     11  C   UNL     1      -0.003  -1.811  -5.854  0.00  0.00    +0.041 C 
BRANCH   5  12
ATOM     12  C   UNL     1       1.196   0.141  -5.204  0.00  0.00    +0.088 C 
ATOM     13  N   UNL     1       2.131   0.760  -5.391  0.00  0.00    -0.194 NA
ENDBRANCH   5  12
ENDBRANCH   3   5
BRANCH   1  16
ATOM     14  C   UNL     1      -0.018   1.503   0.010  0.00  0.00    +0.067 C 
ATOM     15  C   UNL     1       0.002  -0.004   0.002  0.00  0.00    +0.058 A 
ATOM     16  C   UNL     1       0.006  -0.722  -1.174  0.00  0.00    +0.096 A 
ATOM     17  S   UNL     1       0.032  -2.390  -0.537  0.00  0.00    -0.071 S 
ATOM     18  C   UNL     1       0.035  -2.012   1.103  0.00  0.00    +0.156 A 
ATOM     19  N   UNL     1       0.022  -0.699   1.113  0.00  0.00    -0.252 NA
ENDBRANCH   1  16
TORSDOF 3
