REMARK  Name = ZINC65196381
REMARK  2 active torsions:
REMARK  status: ('A' for Active; 'I' for Inactive)
REMARK    1  A    between atoms: C_4  and  C_8
REMARK    2  A    between atoms: C_11  and  C_14
REMARK                            x       y       z     vdW  Elec       q    Type
REMARK                         _______ _______ _______ _____ _____    ______ ____
ROOT
ATOM      1  C   UNL     1       3.713  -0.707  -0.037  0.00  0.00    +0.325 C 
ATOM      2  N   UNL     1       3.504  -2.127  -0.360  0.00  0.00    -0.286 N 
ATOM      3  C   UNL     1       3.954  -2.854   0.726  0.00  0.00    +0.169 C 
ATOM      4  N   UNL     1       4.404  -2.077   1.655  0.00  0.00    -0.066 NA
ATOM      5  O   UNL     1       4.298  -0.716   1.274  0.00  0.00    -0.364 OA
ATOM      6  H   UNL     1       3.123  -2.484  -1.178  0.00  0.00    +0.151 HD
ENDROOT
BRANCH   1  10
ATOM      7  C   UNL     1      -0.017   1.380   0.010  0.00  0.00    +0.040 A 
ATOM      8  C   UNL     1       1.171   2.087   0.002  0.00  0.00    +0.023 A 
ATOM      9  C   UNL     1       2.378   1.412  -0.013  0.00  0.00    +0.050 A 
ATOM     10  C   UNL     1       2.397   0.028  -0.021  0.00  0.00    +0.035 A 
ATOM     11  C   UNL     1       1.211  -0.679  -0.014  0.00  0.00    +0.048 A 
ATOM     12  C   UNL     1       0.002  -0.004   0.002  0.00  0.00    +0.124 A 
ATOM     13  F   UNL     1      -1.158  -0.696   0.010  0.00  0.00    -0.205 F 
ATOM     14 CL   UNL     1       3.869   2.301  -0.023  0.00  0.00    -0.083 Cl
ENDBRANCH   1  10
BRANCH   3  15
ATOM     15  C   UNL     1       3.925  -4.332   0.813  0.00  0.00    +0.030 C 
ATOM     16  C   UNL     1       4.387  -4.952   1.927  0.00  0.00    -0.005 C 
ATOM     17  C   UNL     1       4.330  -6.467   1.955  0.00  0.00    +0.125 C 
ATOM     18  C   UNL     1       3.761  -7.160   0.736  0.00  0.00    +0.240 C 
ATOM     19  O   UNL     1       3.687  -8.371   0.695  0.00  0.00    -0.273 OA
ATOM     20  N   UNL     1       3.341  -6.419  -0.296  0.00  0.00    -0.188 NA
ATOM     21  C   UNL     1       3.393  -5.116  -0.299  0.00  0.00    +0.111 C 
ENDBRANCH   3  15
TORSDOF 2
