REMARK  Name = ZINC02584801
REMARK  6 active torsions:
REMARK  status: ('A' for Active; 'I' for Inactive)
REMARK    1  A    between atoms: C_3  and  C_17
REMARK    2  A    between atoms: C_5  and  O_7
REMARK    3  A    between atoms: O_7  and  C_8
REMARK    4  A    between atoms: C_8  and  C_10
REMARK    5  A    between atoms: N_18  and  N_19
REMARK    6  A    between atoms: C_20  and  C_22
REMARK                            x       y       z     vdW  Elec       q    Type
REMARK                         _______ _______ _______ _____ _____    ______ ____
ROOT
ATOM      1  C   UNL     1      -0.044   1.104   0.084  0.00  0.00    +0.004 A 
ATOM      2  C   UNL     1      -1.241   1.786  -0.002  0.00  0.00    +0.010 A 
ATOM      3  C   UNL     1      -1.245   3.181  -0.078  0.00  0.00    -0.002 A 
ATOM      4  C   UNL     1      -0.035   3.878  -0.080  0.00  0.00    +0.055 A 
ATOM      5  C   UNL     1       1.159   3.183   0.001  0.00  0.00    +0.133 A 
ATOM      6  C   UNL     1       1.153   1.796   0.083  0.00  0.00    +0.046 A 
ENDROOT
BRANCH   3   7
ATOM      7  C   UNL     1      -2.522   3.914  -0.163  0.00  0.00    +0.138 C 
ATOM      8  N   UNL     1      -3.645   3.263  -0.162  0.00  0.00    -0.187 NA
BRANCH   8   9
ATOM      9  N   UNL     1      -4.858   3.959  -0.243  0.00  0.00    -0.203 N 
ATOM     10  C   UNL     1      -6.024   3.284  -0.241  0.00  0.00    +0.263 C 
ATOM     11  O   UNL     1      -6.023   2.070  -0.169  0.00  0.00    -0.268 OA
ATOM     12  H   UNL     1      -4.858   4.928  -0.300  0.00  0.00    +0.178 HD
BRANCH  10  13
ATOM     13  C   UNL     1      -7.303   4.018  -0.326  0.00  0.00    +0.038 A 
ATOM     14  C   UNL     1      -7.307   5.412  -0.403  0.00  0.00    +0.014 A 
ATOM     15  C   UNL     1      -8.504   6.092  -0.488  0.00  0.00    +0.021 A 
ATOM     16  C   UNL     1      -9.701   5.394  -0.485  0.00  0.00    +0.041 A 
ATOM     17  C   UNL     1      -9.704   4.012  -0.404  0.00  0.00    +0.021 A 
ATOM     18  C   UNL     1      -8.513   3.321  -0.325  0.00  0.00    +0.014 A 
ATOM     19 CL   UNL     1     -11.204   6.257  -0.585  0.00  0.00    -0.084 Cl
ENDBRANCH  10  13
ENDBRANCH   8   9
ENDBRANCH   3   7
BRANCH   5  20
ATOM     20  O   UNL     1       2.339   3.857   0.000  0.00  0.00    -0.422 OA
BRANCH  20  21
ATOM     21  C   UNL     1       2.620   4.599   1.089  0.00  0.00    +0.344 C 
ATOM     22  O   UNL     1       1.886   4.560   2.056  0.00  0.00    -0.245 OA
BRANCH  21  23
ATOM     23  C   UNL     1       3.821   5.459   1.107  0.00  0.00    +0.059 A 
ATOM     24  C   UNL     1       4.670   5.501  -0.001  0.00  0.00    +0.016 A 
ATOM     25  C   UNL     1       5.786   6.310   0.020  0.00  0.00    +0.021 A 
ATOM     26  C   UNL     1       6.072   7.071   1.141  0.00  0.00    +0.041 A 
ATOM     27  C   UNL     1       5.237   7.029   2.245  0.00  0.00    +0.021 A 
ATOM     28  C   UNL     1       4.115   6.229   2.235  0.00  0.00    +0.016 A 
ATOM     29 CL   UNL     1       7.483   8.082   1.162  0.00  0.00    -0.084 Cl
ENDBRANCH  21  23
ENDBRANCH  20  21
ENDBRANCH   5  20
TORSDOF 6
