REMARK  Name = ZINC21354761
REMARK  8 active torsions:
REMARK  status: ('A' for Active; 'I' for Inactive)
REMARK    1  A    between atoms: C_1  and  C_2
REMARK    2  A    between atoms: C_4  and  C_31
REMARK    3  A    between atoms: N_5  and  C_11
REMARK    4  A    between atoms: C_8  and  C_9
REMARK    5  A    between atoms: C_11  and  C_12
REMARK    6  A    between atoms: N_14  and  C_15
REMARK    7  A    between atoms: C_18  and  C_21
REMARK    8  A    between atoms: C_27  and  C_30
REMARK                            x       y       z     vdW  Elec       q    Type
REMARK                         _______ _______ _______ _____ _____    ______ ____
ROOT
ATOM      1  C   UNL     1       2.435   4.971  -0.613  0.00  0.00    +0.237 C 
ATOM      2  O   UNL     1       1.438   5.357  -1.185  0.00  0.00    -0.274 OA
ATOM      3  N   UNL     1       2.474   3.730  -0.089  0.00  0.00    -0.284 N 
ATOM      4  H   UNL     1       3.406   3.349   0.353  0.00  0.00    +0.155 HD
ENDROOT
BRANCH   3   5
ATOM      5  C   UNL     1       1.332   2.929  -0.108  0.00  0.00    +0.033 A 
ATOM      6  C   UNL     1       1.454   1.551  -0.256  0.00  0.00    +0.024 A 
ATOM      7  C   UNL     1       0.329   0.758  -0.275  0.00  0.00    +0.015 A 
ATOM      8  C   UNL     1      -0.936   1.338  -0.151  0.00  0.00    +0.037 A 
ATOM      9  C   UNL     1      -1.054   2.722   0.002  0.00  0.00    +0.015 A 
ATOM     10  C   UNL     1       0.074   3.510   0.021  0.00  0.00    +0.024 A 
BRANCH   8  11
ATOM     11  C   UNL     1      -2.145   0.491  -0.177  0.00  0.00    +0.247 C 
ATOM     12  O   UNL     1      -2.155  -0.571   0.415  0.00  0.00    -0.270 OA
ATOM     13  N   UNL     1      -3.236   0.895  -0.857  0.00  0.00    -0.297 N 
ATOM     14  C   UNL     1      -3.203   2.119  -1.668  0.00  0.00    +0.108 C 
ATOM     15  C   UNL     1      -3.668   1.775  -3.091  0.00  0.00    +0.019 C 
ATOM     16  C   UNL     1      -5.041   1.104  -3.025  0.00  0.00    +0.006 C 
ATOM     17  C   UNL     1      -4.937  -0.197  -2.225  0.00  0.00    +0.003 C 
ATOM     18  C   UNL     1      -4.484   0.121  -0.797  0.00  0.00    +0.111 C 
ATOM     19  C   UNL     1      -6.303  -0.885  -2.186  0.00  0.00    +0.009 C 
ENDBRANCH   8  11
ENDBRANCH   3   5
BRANCH   1  20
ATOM     20  C   UNL     1       3.631   5.880  -0.487  0.00  0.00    +0.221 C 
BRANCH  20  25
ATOM     21  C   UNL     1       2.470  10.925  -2.949  0.00  0.00    +0.045 C 
ATOM     22  C   UNL     1       2.780   9.592  -2.317  0.00  0.00    -0.026 A 
ATOM     23  C   UNL     1       2.570   9.389  -0.953  0.00  0.00    +0.026 A 
ATOM     24  C   UNL     1       2.847   8.185  -0.392  0.00  0.00    +0.020 A 
ATOM     25  N   UNL     1       3.340   7.162  -1.133  0.00  0.00    -0.303 N 
ATOM     26  C   UNL     1       3.561   7.305  -2.454  0.00  0.00    +0.270 A 
ATOM     27  O   UNL     1       4.000   6.372  -3.104  0.00  0.00    -0.266 OA
ATOM     28  C   UNL     1       3.281   8.544  -3.086  0.00  0.00    +0.119 A 
ATOM     29  C   UNL     1       2.608   7.982   1.082  0.00  0.00    +0.063 C 
BRANCH  28  30
ATOM     30  C   UNL     1       3.509   8.714  -4.489  0.00  0.00    +0.105 C 
ATOM     31  N   UNL     1       3.690   8.849  -5.603  0.00  0.00    -0.191 NA
ENDBRANCH  28  30
ENDBRANCH  20  25
ENDBRANCH   1  20
TORSDOF 5
