REMARK  Name = ZINC49403938
REMARK  6 active torsions:
REMARK  status: ('A' for Active; 'I' for Inactive)
REMARK    1  A    between atoms: C_1  and  C_2
REMARK    2  A    between atoms: C_2  and  C_3
REMARK    3  A    between atoms: C_8  and  N_9
REMARK    4  A    between atoms: C_10  and  C_12
REMARK    5  A    between atoms: C_12  and  N_13
REMARK    6  A    between atoms: N_21  and  C_24
REMARK                            x       y       z     vdW  Elec       q    Type
REMARK                         _______ _______ _______ _____ _____    ______ ____
ROOT
ATOM      1  N   UNL     1      -2.261  -0.564  -6.065  0.00  0.00    -0.282 N 
ATOM      2  C   UNL     1      -2.353  -1.899  -6.508  0.00  0.00    +0.086 A 
ATOM      3  C   UNL     1      -1.602  -2.969  -6.111  0.00  0.00    +0.093 A 
ATOM      4  S   UNL     1      -2.212  -4.239  -7.012  0.00  0.00    +0.006 S 
ATOM      5  N   UNL     1      -3.359  -3.490  -7.859  0.00  0.00    -0.203 NA
ATOM      6  C   UNL     1      -3.322  -2.218  -7.481  0.00  0.00    +0.161 A 
ATOM      7  C   UNL     1      -4.184  -1.109  -7.972  0.00  0.00    +0.284 A 
ATOM      8  O   UNL     1      -5.039  -1.319  -8.810  0.00  0.00    -0.265 OA
ATOM      9  N   UNL     1      -4.007   0.129  -7.477  0.00  0.00    -0.256 N 
ATOM     10  C   UNL     1      -3.075   0.384  -6.547  0.00  0.00    +0.333 A 
ATOM     11  O   UNL     1      -2.962   1.520  -6.129  0.00  0.00    -0.246 OA
ENDROOT
BRANCH   9  12
ATOM     12  C   UNL     1      -4.856   1.221  -7.960  0.00  0.00    +0.095 C 
ATOM     13  C   UNL     1      -5.037   1.359  -9.472  0.00  0.00    +0.027 C 
ATOM     14  C   UNL     1      -4.174   2.366  -8.710  0.00  0.00    +0.027 C 
ENDBRANCH   9  12
BRANCH   1  15
ATOM     15  C   UNL     1      -1.261  -0.209  -5.054  0.00  0.00    +0.223 C 
BRANCH  15  17
ATOM     16  N   UNL     1      -1.116  -0.099  -2.587  0.00  0.00    -0.284 N 
ATOM     17  C   UNL     1      -1.857  -0.371  -3.680  0.00  0.00    +0.237 C 
ATOM     18  O   UNL     1      -3.004  -0.746  -3.556  0.00  0.00    -0.274 OA
ATOM     19  H   UNL     1      -0.222   0.266  -2.686  0.00  0.00    +0.155 HD
BRANCH  16  25
ATOM     20  C   UNL     1      -0.795  -0.761  -0.287  0.00  0.00    -0.026 A 
ATOM     21  C   UNL     1      -1.310  -0.995   0.973  0.00  0.00    +0.005 A 
ATOM     22  C   UNL     1      -2.660  -0.818   1.214  0.00  0.00    +0.000 A 
ATOM     23  C   UNL     1      -3.499  -0.406   0.196  0.00  0.00    +0.002 A 
ATOM     24  C   UNL     1      -2.991  -0.170  -1.067  0.00  0.00    +0.023 A 
ATOM     25  C   UNL     1      -1.635  -0.342  -1.311  0.00  0.00    +0.037 A 
BRANCH  20  27
ATOM     26  C   UNL     1       1.401   0.384  -0.397  0.00  0.00    +0.009 C 
ATOM     27  C   UNL     1       0.676  -0.955  -0.549  0.00  0.00    +0.033 C 
ENDBRANCH  20  27
ENDBRANCH  16  25
ENDBRANCH  15  17
ENDBRANCH   1  15
TORSDOF 5
