REMARK  Name = ZINC62503133
REMARK  7 active torsions:
REMARK  status: ('A' for Active; 'I' for Inactive)
REMARK    1  A    between atoms: C_1  and  C_2
REMARK    2  A    between atoms: N_5  and  C_8
REMARK    3  A    between atoms: C_8  and  C_9
REMARK    4  A    between atoms: C_8  and  C_10
REMARK    5  A    between atoms: C_10  and  N_11
REMARK    6  A    between atoms: C_17  and  N_20
REMARK    7  A    between atoms: C_21  and  C_23
REMARK                            x       y       z     vdW  Elec       q    Type
REMARK                         _______ _______ _______ _____ _____    ______ ____
ROOT
ATOM      1  N   UNL     1       3.471  -4.812  -3.981  0.00  0.00    -0.301 N 
ATOM      2  C   UNL     1       2.437  -3.948  -3.938  0.00  0.00    +0.302 C 
ATOM      3  O   UNL     1       1.979  -3.600  -2.867  0.00  0.00    -0.253 OA
ATOM      4  N   UNL     1       1.911  -3.469  -5.083  0.00  0.00    -0.286 N 
ATOM      5  C   UNL     1       0.863  -2.440  -5.053  0.00  0.00    +0.111 C 
ATOM      6  C   UNL     1       1.301  -1.263  -5.929  0.00  0.00    +0.041 C 
ATOM      7  C   UNL     1       1.640  -1.774  -7.331  0.00  0.00    +0.076 C 
ATOM      8  C   UNL     1       2.798  -2.771  -7.247  0.00  0.00    +0.041 C 
ATOM      9  C   UNL     1       2.380  -3.961  -6.386  0.00  0.00    +0.111 C 
ATOM     10  H   UNL     1       3.790  -5.145  -4.834  0.00  0.00    +0.150 HD
ENDROOT
BRANCH   7  11
ATOM     11  N   UNL     1       2.028  -0.646  -8.181  0.00  0.00    -0.312 N 
ATOM     12  C   UNL     1       1.885  -0.730  -9.519  0.00  0.00    +0.216 C 
ATOM     13  O   UNL     1       1.435  -1.739 -10.019  0.00  0.00    -0.276 OA
ATOM     14  H   UNL     1       2.388   0.161  -7.782  0.00  0.00    +0.149 HD
BRANCH  12  15
ATOM     15  C   UNL     1       2.284   0.431 -10.394  0.00  0.00    +0.075 C 
ATOM     16  C   UNL     1       1.463   1.664 -10.011  0.00  0.00    +0.013 C 
ATOM     17  C   UNL     1       1.869   2.842 -10.899  0.00  0.00    +0.001 C 
ATOM     18  C   UNL     1       1.607   2.490 -12.364  0.00  0.00    +0.000 C 
ATOM     19  C   UNL     1       2.427   1.257 -12.747  0.00  0.00    +0.001 C 
ATOM     20  C   UNL     1       2.022   0.079 -11.859  0.00  0.00    +0.013 C 
ENDBRANCH  12  15
ENDBRANCH   7  11
BRANCH   1  21
ATOM     21  C   UNL     1       4.113  -5.247  -2.738  0.00  0.00    +0.090 C 
BRANCH  21  22
ATOM     22  C   UNL     1       5.321  -6.126  -3.070  0.00  0.00    -0.054 C 
ATOM     23  C   UNL     1       5.941  -6.650  -1.773  0.00  0.00    -0.012 C 
BRANCH  22  28
ATOM     24  C   UNL     1       4.160 -11.172  -5.460  0.00  0.00    +0.007 C 
ATOM     25  C   UNL     1       4.662 -10.081  -4.511  0.00  0.00    -0.018 C 
ATOM     26  C   UNL     1       5.630  -9.159  -5.258  0.00  0.00    -0.016 C 
ATOM     27  C   UNL     1       6.066  -8.026  -4.327  0.00  0.00    -0.078 C 
ATOM     28  N   UNL     1       4.890  -7.259  -3.899  0.00  0.00    +0.382 N 
ATOM     29  C   UNL     1       3.991  -8.119  -3.121  0.00  0.00    -0.078 C 
ATOM     30  C   UNL     1       3.475  -9.256  -4.005  0.00  0.00    -0.016 C 
ATOM     31  H   UNL     1       4.402  -6.912  -4.712  0.00  0.00    -0.081 HD
ENDBRANCH  22  28
ENDBRANCH  21  22
ENDBRANCH   1  21
TORSDOF 5
