REMARK  Name = ZINC61578059
REMARK  3 active torsions:
REMARK  status: ('A' for Active; 'I' for Inactive)
REMARK    1  A    between atoms: C_3  and  N_13
REMARK    2  A    between atoms: C_4  and  N_8
REMARK    3  A    between atoms: N_13  and  C_14
REMARK                            x       y       z     vdW  Elec       q    Type
REMARK                         _______ _______ _______ _____ _____    ______ ____
ROOT
ATOM      1  C   UNL     1      -0.061   1.293  -0.011  0.00  0.00    +0.003 A 
ATOM      2  C   UNL     1       1.072   2.085   0.010  0.00  0.00    +0.025 A 
ATOM      3  C   UNL     1       2.329   1.498   0.015  0.00  0.00    +0.055 A 
ATOM      4  C   UNL     1       2.446   0.109   0.000  0.00  0.00    +0.106 A 
ATOM      5  C   UNL     1       1.304  -0.679  -0.021  0.00  0.00    +0.068 A 
ATOM      6  C   UNL     1       0.054  -0.085  -0.026  0.00  0.00    +0.022 A 
ATOM      7 CL   UNL     1       1.442  -2.409  -0.040  0.00  0.00    -0.081 Cl
ENDROOT
BRANCH   4   8
ATOM      8  N   UNL     1       3.714  -0.491   0.005  0.00  0.00    -0.217 N 
ATOM      9  C   UNL     1       4.151  -1.463  -0.818  0.00  0.00    +0.225 A 
ATOM     10  N   UNL     1       5.386  -1.748  -0.490  0.00  0.00    -0.222 NA
ATOM     11  C   UNL     1       5.770  -0.984   0.531  0.00  0.00    +0.245 A 
ATOM     12  N   UNL     1       4.783  -0.193   0.866  0.00  0.00    -0.153 NA
ENDBRANCH   4   8
BRANCH   3  13
ATOM     13  N   UNL     1       3.475   2.298   0.036  0.00  0.00    -0.339 N 
ATOM     14  H   UNL     1       4.352   1.887   0.099  0.00  0.00    +0.146 HD
BRANCH  13  15
ATOM     15  C   UNL     1       3.353   3.756  -0.038  0.00  0.00    +0.080 C 
ATOM     16  C   UNL     1       4.577   4.400   0.607  0.00  0.00    +0.024 C 
ATOM     17  C   UNL     1       4.360   5.898   0.803  0.00  0.00    +0.012 C 
ATOM     18  C   UNL     1       4.392   6.611  -0.552  0.00  0.00    +0.069 C 
ATOM     19  S   UNL     1       3.023   5.986  -1.572  0.00  0.00    -0.159 S 
ATOM     20  C   UNL     1       3.253   4.184  -1.506  0.00  0.00    +0.091 C 
ENDBRANCH  13  15
ENDBRANCH   3  13
TORSDOF 3
