REMARK  Name = ZINC02879229
REMARK  6 active torsions:
REMARK  status: ('A' for Active; 'I' for Inactive)
REMARK    1  A    between atoms: C_1  and  O_2
REMARK    2  A    between atoms: O_2  and  C_3
REMARK    3  A    between atoms: C_7  and  O_9
REMARK    4  A    between atoms: O_9  and  C_10
REMARK    5  A    between atoms: C_12  and  C_21
REMARK    6  A    between atoms: C_24  and  N_27
REMARK                            x       y       z     vdW  Elec       q    Type
REMARK                         _______ _______ _______ _____ _____    ______ ____
ROOT
ATOM      1  C   UNL     1       2.377   1.430  -0.014  0.00  0.00    +0.124 A 
ATOM      2  C   UNL     1       2.394   0.046  -0.021  0.00  0.00    +0.052 A 
ATOM      3  C   UNL     1       1.207  -0.677  -0.013  0.00  0.00    -0.012 A 
ATOM      4  C   UNL     1       0.002  -0.004   0.002  0.00  0.00    +0.074 A 
ATOM      5  C   UNL     1      -0.017   1.394   0.010  0.00  0.00    +0.145 A 
ATOM      6  C   UNL     1       1.167   2.108   0.002  0.00  0.00    +0.093 A 
ATOM      7  N   UNL     1      -1.227  -0.677   0.009  0.00  0.00    -0.334 N 
ATOM      8  C   UNL     1      -1.102  -2.004   0.690  0.00  0.00    +0.105 C 
ATOM      9  C   UNL     1      -0.087  -2.836  -0.078  0.00  0.00    +0.029 C 
ATOM     10  C   UNL     1       1.307  -2.180  -0.019  0.00  0.00    +0.049 C 
ATOM     11  C   UNL     1       1.963  -2.601  -1.324  0.00  0.00    -0.023 C 
ATOM     12  C   UNL     1       1.026  -2.933  -2.204  0.00  0.00    -0.030 C 
ATOM     13  C   UNL     1      -0.358  -2.781  -1.601  0.00  0.00    +0.033 C 
ATOM     14  H   UNL     1      -1.941  -0.121   0.456  0.00  0.00    +0.147 HD
ENDROOT
BRANCH   8  15
ATOM     15  C   UNL     1      -2.441  -2.696   0.660  0.00  0.00    -0.027 A 
ATOM     16  C   UNL     1      -3.252  -2.586  -0.454  0.00  0.00    +0.008 A 
ATOM     17  C   UNL     1      -4.477  -3.224  -0.482  0.00  0.00    +0.033 A 
ATOM     18  C   UNL     1      -4.896  -3.965   0.607  0.00  0.00    +0.126 A 
ATOM     19  C   UNL     1      -4.088  -4.071   1.723  0.00  0.00    +0.033 A 
ATOM     20  C   UNL     1      -2.861  -3.436   1.750  0.00  0.00    +0.008 A 
BRANCH  18  21
ATOM     21  N   UNL     1      -6.211  -4.646   0.578  0.00  0.00    +0.056 N 
ATOM     22  O   UNL     1      -6.580  -5.298   1.538  0.00  0.00    -0.126 OA
ATOM     23  O   UNL     1      -6.923  -4.553  -0.406  0.00  0.00    -0.126 OA
ENDBRANCH  18  21
ENDBRANCH   8  15
BRANCH   1  25
ATOM     24  C   UNL     1       3.454   3.550  -0.015  0.00  0.00    +0.277 C 
ATOM     25  O   UNL     1       3.546   2.124  -0.024  0.00  0.00    -0.495 OA
ENDBRANCH   1  25
BRANCH   5  26
ATOM     26  O   UNL     1      -1.206   2.055   0.019  0.00  0.00    -0.493 OA
ATOM     27  C   UNL     1      -1.154   3.483   0.026  0.00  0.00    +0.277 C 
ENDBRANCH   5  26
TORSDOF 4
