REMARK  Name = ZINC33151373
REMARK  5 active torsions:
REMARK  status: ('A' for Active; 'I' for Inactive)
REMARK    1  A    between atoms: C_1  and  C_2
REMARK    2  A    between atoms: C_7  and  C_13
REMARK    3  A    between atoms: C_8  and  C_12
REMARK    4  A    between atoms: N_15  and  C_16
REMARK    5  A    between atoms: C_17  and  C_21
REMARK                            x       y       z     vdW  Elec       q    Type
REMARK                         _______ _______ _______ _____ _____    ______ ____
ROOT
ATOM      1  C   UNL     1       4.876  -2.703  -0.734  0.00  0.00    +0.044 C 
ATOM      2  C   UNL     1       3.589  -1.966  -0.467  0.00  0.00    -0.048 A 
ATOM      3  C   UNL     1       2.429  -2.688  -0.194  0.00  0.00    +0.004 A 
ATOM      4  C   UNL     1       1.252  -2.050   0.050  0.00  0.00    +0.010 A 
ATOM      5  C   UNL     1       1.204  -0.646   0.029  0.00  0.00    +0.001 A 
ATOM      6  C   UNL     1       0.007   0.046   0.276  0.00  0.00    +0.025 A 
ATOM      7  C   UNL     1       0.038   1.436   0.238  0.00  0.00    +0.059 A 
ATOM      8  C   UNL     1       1.248   2.094  -0.044  0.00  0.00    +0.051 A 
ATOM      9  N   UNL     1       2.351   1.428  -0.272  0.00  0.00    -0.251 NA
ATOM     10  C   UNL     1       2.384   0.091  -0.248  0.00  0.00    +0.072 A 
ATOM     11  C   UNL     1       3.579  -0.605  -0.496  0.00  0.00    +0.031 A 
ATOM     12  C   UNL     1       1.276   3.600  -0.085  0.00  0.00    +0.066 C 
ENDROOT
BRANCH   7  13
ATOM     13  C   UNL     1      -1.193   2.215   0.485  0.00  0.00    +0.250 C 
ATOM     14  O   UNL     1      -1.139   3.427   0.564  0.00  0.00    -0.270 OA
ATOM     15  N   UNL     1      -2.375   1.582   0.623  0.00  0.00    -0.275 N 
ATOM     16  H   UNL     1      -2.423   0.485   0.551  0.00  0.00    +0.156 HD
BRANCH  15  17
ATOM     17  C   UNL     1      -3.530   2.313   0.854  0.00  0.00    +0.089 A 
ATOM     18  C   UNL     1      -4.829   1.847   1.016  0.00  0.00    +0.080 A 
ATOM     19  C   UNL     1      -5.851   2.838   1.251  0.00  0.00    +0.028 A 
ATOM     20  C   UNL     1      -5.461   4.126   1.283  0.00  0.00    +0.048 A 
ATOM     21  S   UNL     1      -3.705   4.029   1.005  0.00  0.00    -0.081 S 
BRANCH  18  22
ATOM     22  C   UNL     1      -5.138   0.450   0.957  0.00  0.00    +0.102 C 
ATOM     23  N   UNL     1      -5.383  -0.658   0.910  0.00  0.00    -0.191 NA
ENDBRANCH  18  22
ENDBRANCH  15  17
ENDBRANCH   7  13
TORSDOF 3
