REMARK  Name = ZINC38677458
REMARK  4 active torsions:
REMARK  status: ('A' for Active; 'I' for Inactive)
REMARK    1  A    between atoms: C_1  and  O_2
REMARK    2  A    between atoms: O_2  and  C_3
REMARK    3  A    between atoms: C_6  and  C_12
REMARK    4  A    between atoms: C_8  and  N_9
REMARK                            x       y       z     vdW  Elec       q    Type
REMARK                         _______ _______ _______ _____ _____    ______ ____
ROOT
ATOM      1  C   UNL     1      -4.958  -2.617   0.036  0.00  0.00    +0.154 C 
ATOM      2  N   UNL     1      -4.973  -3.939   0.040  0.00  0.00    -0.157 NA
ATOM      3  C   UNL     1      -6.104  -4.646   0.052  0.00  0.00    +0.272 C 
ATOM      4  O   UNL     1      -6.081  -5.865   0.052  0.00  0.00    -0.268 OA
ATOM      5  C   UNL     1      -7.402  -3.898   0.068  0.00  0.00    +0.071 C 
ATOM      6  C   UNL     1      -8.645  -4.406   0.146  0.00  0.00    -0.042 C 
ATOM      7  C   UNL     1      -8.946  -5.880   0.406  0.00  0.00    +0.033 C 
ATOM      8  C   UNL     1      -9.868  -5.933   1.632  0.00  0.00    +0.004 C 
ATOM      9  C   UNL     1     -11.078  -5.025   1.423  0.00  0.00    +0.002 C 
ATOM     10  C   UNL     1     -10.646  -3.562   1.294  0.00  0.00    +0.019 C 
ATOM     11  C   UNL     1      -9.796  -3.413   0.029  0.00  0.00    +0.079 C 
ATOM     12  S   UNL     1      -8.916  -1.806   0.051  0.00  0.00    -0.097 S 
ATOM     13  C   UNL     1      -7.254  -2.427   0.051  0.00  0.00    +0.112 C 
ATOM     14  N   UNL     1      -6.066  -1.876   0.045  0.00  0.00    -0.223 NA
ENDROOT
BRANCH   1  18
ATOM     15  C   UNL     1      -1.199  -0.637   0.010  0.00  0.00    +0.150 A 
ATOM     16  C   UNL     1      -2.374   0.106   0.020  0.00  0.00    +0.048 A 
ATOM     17  C   UNL     1      -3.594  -0.532   0.028  0.00  0.00    +0.015 A 
ATOM     18  C   UNL     1      -3.650  -1.928   0.027  0.00  0.00    +0.019 A 
ATOM     19  C   UNL     1      -2.468  -2.671   0.017  0.00  0.00    +0.047 A 
ATOM     20  C   UNL     1      -1.251  -2.025   0.003  0.00  0.00    +0.168 A 
BRANCH  20  21
ATOM     21  N   UNL     1       0.003  -2.812  -0.014  0.00  0.00    +0.060 N 
ATOM     22  O   UNL     1      -0.041  -4.020  -0.020  0.00  0.00    -0.126 OA
ATOM     23  O   UNL     1       1.071  -2.246  -0.021  0.00  0.00    -0.126 OA
ENDBRANCH  20  21
BRANCH  15  25
ATOM     24  C   UNL     1      -0.017   1.425   0.010  0.00  0.00    +0.277 C 
ATOM     25  O   UNL     1       0.002  -0.004   0.002  0.00  0.00    -0.493 OA
ENDBRANCH  15  25
ENDBRANCH   1  18
TORSDOF 3
