REMARK  Name = ZINC61578646
REMARK  4 active torsions:
REMARK  status: ('A' for Active; 'I' for Inactive)
REMARK    1  A    between atoms: C_1  and  C_2
REMARK    2  A    between atoms: C_4  and  N_13
REMARK    3  A    between atoms: C_7  and  N_8
REMARK    4  A    between atoms: N_13  and  C_14
REMARK                            x       y       z     vdW  Elec       q    Type
REMARK                         _______ _______ _______ _____ _____    ______ ____
ROOT
ATOM      1  C   UNL     1      -0.326   1.482   0.050  0.00  0.00    +0.046 C 
ATOM      2  C   UNL     1      -0.145  -0.014   0.021  0.00  0.00    -0.023 A 
ATOM      3  C   UNL     1      -0.246  -0.699  -1.174  0.00  0.00    +0.028 A 
ATOM      4  C   UNL     1      -0.079  -2.077  -1.200  0.00  0.00    +0.028 A 
ATOM      5  C   UNL     1       0.189  -2.767  -0.024  0.00  0.00    +0.025 A 
ATOM      6  C   UNL     1       0.289  -2.082   1.170  0.00  0.00    +0.030 A 
ATOM      7  C   UNL     1       0.128  -0.703   1.195  0.00  0.00    +0.072 A 
ENDROOT
BRANCH   7   8
ATOM      8  N   UNL     1       0.236  -0.006   2.408  0.00  0.00    -0.200 N 
ATOM      9  C   UNL     1      -0.334  -0.325   3.591  0.00  0.00    +0.250 A 
ATOM     10  N   UNL     1       0.026   0.588   4.454  0.00  0.00    -0.116 NA
ATOM     11  N   UNL     1       0.784   1.463   3.898  0.00  0.00    -0.023 NA
ATOM     12  N   UNL     1       0.965   1.171   2.655  0.00  0.00    -0.039 NA
ENDBRANCH   7   8
BRANCH   4  13
ATOM     13  N   UNL     1      -0.181  -2.771  -2.409  0.00  0.00    -0.340 N 
ATOM     14  H   UNL     1      -0.369  -2.289  -3.230  0.00  0.00    +0.146 HD
BRANCH  13  15
ATOM     15  C   UNL     1      -0.005  -4.225  -2.437  0.00  0.00    +0.080 C 
ATOM     16  C   UNL     1      -0.746  -4.802  -3.640  0.00  0.00    +0.024 C 
ATOM     17  C   UNL     1      -0.824  -6.323  -3.549  0.00  0.00    +0.012 C 
ATOM     18  C   UNL     1       0.559  -6.933  -3.796  0.00  0.00    +0.069 C 
ATOM     19  S   UNL     1       1.689  -6.361  -2.490  0.00  0.00    -0.159 S 
ATOM     20  C   UNL     1       1.487  -4.555  -2.537  0.00  0.00    +0.091 C 
ENDBRANCH  13  15
ENDBRANCH   4  13
TORSDOF 3
