REMARK  Name = ZINC23619669
REMARK  5 active torsions:
REMARK  status: ('A' for Active; 'I' for Inactive)
REMARK    1  A    between atoms: C_1  and  C_2
REMARK    2  A    between atoms: C_3  and  C_24
REMARK    3  A    between atoms: C_7  and  S_11
REMARK    4  A    between atoms: S_11  and  C_12
REMARK    5  A    between atoms: N_17  and  C_18
REMARK                            x       y       z     vdW  Elec       q    Type
REMARK                         _______ _______ _______ _____ _____    ______ ____
ROOT
ATOM      1  C   UNL     1       0.430   1.562   4.662  0.00  0.00    +0.166 A 
ATOM      2  N   UNL     1       0.535   0.590   5.547  0.00  0.00    -0.133 NA
ATOM      3  N   UNL     1       0.658   0.892   6.883  0.00  0.00    -0.125 NA
ATOM      4  C   UNL     1       0.671   2.152   7.273  0.00  0.00    +0.183 A 
ATOM      5  S   UNL     1       0.511   3.005   5.712  0.00  0.00    -0.024 S 
ATOM      6  N   UNL     1       0.785   2.676   8.555  0.00  0.00    -0.319 N 
ATOM      7  H   UNL     1       0.778   3.637   8.689  0.00  0.00    +0.148 HD
ENDROOT
BRANCH   6   8
ATOM      8  C   UNL     1       0.914   1.778   9.705  0.00  0.00    +0.072 C 
ATOM      9  C   UNL     1      -0.476   1.337  10.167  0.00  0.00    +0.022 C 
ATOM     10  C   UNL     1      -0.341   0.398  11.368  0.00  0.00    +0.002 C 
ATOM     11  C   UNL     1       0.367   1.130  12.509  0.00  0.00    +0.000 C 
ATOM     12  C   UNL     1       1.758   1.571  12.048  0.00  0.00    +0.002 C 
ATOM     13  C   UNL     1       1.623   2.509  10.847  0.00  0.00    +0.022 C 
ENDBRANCH   6   8
BRANCH   1  14
ATOM     14  S   UNL     1       0.263   1.464   2.910  0.00  0.00    -0.041 S 
BRANCH  14  21
ATOM     15  C   UNL     1      -0.018   1.503   0.010  0.00  0.00    +0.045 C 
ATOM     16  C   UNL     1       0.002  -0.004   0.002  0.00  0.00    -0.029 A 
ATOM     17  C   UNL     1      -0.095  -0.678  -1.154  0.00  0.00    -0.008 A 
ATOM     18  S   UNL     1      -0.024  -2.386  -0.648  0.00  0.00    -0.074 S 
ATOM     19  C   UNL     1       0.135  -2.149   1.102  0.00  0.00    +0.113 A 
ATOM     20  C   UNL     1       0.133  -0.744   1.245  0.00  0.00    +0.043 A 
ATOM     21  C   UNL     1       0.255  -0.266   2.579  0.00  0.00    +0.115 A 
ATOM     22  N   UNL     1       0.363  -1.139   3.569  0.00  0.00    -0.228 NA
ATOM     23  C   UNL     1       0.362  -2.443   3.361  0.00  0.00    +0.223 A 
ATOM     24  N   UNL     1       0.242  -2.946   2.147  0.00  0.00    -0.228 NA
ATOM     25  C   UNL     1      -0.232  -0.123  -2.548  0.00  0.00    +0.052 C 
ENDBRANCH  14  21
ENDBRANCH   1  14
TORSDOF 3
