REMARK  Name = ZINC37326549
REMARK  2 active torsions:
REMARK  status: ('A' for Active; 'I' for Inactive)
REMARK    1  A    between atoms: C_4  and  C_7
REMARK    2  A    between atoms: C_9  and  C_12
REMARK                            x       y       z     vdW  Elec       q    Type
REMARK                         _______ _______ _______ _____ _____    ______ ____
ROOT
ATOM      1  C   UNL     1       2.849  -0.468  -2.508  0.00  0.00    +0.175 A 
ATOM      2  N   UNL     1       3.940  -1.236  -2.526  0.00  0.00    -0.191 NA
ATOM      3  C   UNL     1       4.312  -1.458  -3.768  0.00  0.00    +0.261 A 
ATOM      4  O   UNL     1       3.448  -0.824  -4.580  0.00  0.00    -0.333 OA
ATOM      5  N   UNL     1       2.501  -0.191  -3.732  0.00  0.00    -0.061 NA
ENDROOT
BRANCH   3   6
ATOM      6  C   UNL     1       5.475  -2.262  -4.196  0.00  0.00    +0.071 C 
ATOM      7  C   UNL     1       5.666  -2.513  -5.477  0.00  0.00    -0.041 C 
ATOM      8  C   UNL     1       6.935  -3.293  -5.823  0.00  0.00    +0.079 C 
ATOM      9  S   UNL     1       7.601  -3.700  -4.168  0.00  0.00    -0.098 S 
ATOM     10  C   UNL     1       6.426  -2.779  -3.186  0.00  0.00    +0.101 C 
ATOM     11  N   UNL     1       6.409  -2.607  -1.893  0.00  0.00    -0.292 NA
ATOM     12  C   UNL     1       6.479  -4.559  -6.551  0.00  0.00    +0.019 C 
ATOM     13  C   UNL     1       5.659  -4.137  -7.776  0.00  0.00    +0.002 C 
ATOM     14  C   UNL     1       4.383  -3.409  -7.363  0.00  0.00    +0.004 C 
ATOM     15  C   UNL     1       4.720  -2.115  -6.607  0.00  0.00    +0.033 C 
ATOM     16  H   UNL     1       5.705  -2.080  -1.484  0.00  0.00    +0.187 HD
ENDBRANCH   3   6
BRANCH   1  20
ATOM     17  C   UNL     1      -0.049   1.482   0.010  0.00  0.00    +0.000 C 
ATOM     18  C   UNL     1       1.390   2.001   0.029  0.00  0.00    +0.001 C 
ATOM     19  C   UNL     1       2.120   1.528  -1.229  0.00  0.00    +0.011 C 
ATOM     20  C   UNL     1       2.130  -0.002  -1.268  0.00  0.00    +0.060 C 
ATOM     21  C   UNL     1       0.691  -0.521  -1.288  0.00  0.00    +0.011 C 
ATOM     22  C   UNL     1      -0.039  -0.047  -0.029  0.00  0.00    +0.001 C 
ENDBRANCH   1  20
TORSDOF 2
