REMARK  Name = ZINC61623114
REMARK  7 active torsions:
REMARK  status: ('A' for Active; 'I' for Inactive)
REMARK    1  A    between atoms: C_1  and  C_2
REMARK    2  A    between atoms: C_5  and  C_22
REMARK    3  A    between atoms: C_8  and  C_21
REMARK    4  A    between atoms: C_9  and  C_11
REMARK    5  A    between atoms: N_13  and  C_14
REMARK    6  A    between atoms: C_14  and  C_15
REMARK    7  A    between atoms: C_17  and  C_20
REMARK                            x       y       z     vdW  Elec       q    Type
REMARK                         _______ _______ _______ _____ _____    ______ ____
ROOT
ATOM      1  C   UNL     1      -0.018   1.503   0.010  0.00  0.00    +0.044 C 
ATOM      2  C   UNL     1       0.002  -0.004   0.002  0.00  0.00    -0.039 A 
ATOM      3  C   UNL     1       0.006  -0.684  -1.183  0.00  0.00    +0.004 A 
ATOM      4  C   UNL     1       0.025  -2.072  -1.198  0.00  0.00    +0.007 A 
ATOM      5  C   UNL     1       0.041  -2.789  -0.021  0.00  0.00    -0.008 A 
ATOM      6  C   UNL     1       0.037  -2.119   1.197  0.00  0.00    +0.139 A 
ATOM      7  C   UNL     1       0.023  -0.712   1.206  0.00  0.00    +0.027 A 
ATOM      8  C   UNL     1       0.030  -0.325   2.616  0.00  0.00    +0.008 A 
ATOM      9  C   UNL     1       0.053  -1.483   3.324  0.00  0.00    +0.193 A 
ATOM     10  O   UNL     1       0.049  -2.535   2.478  0.00  0.00    -0.450 OA
ATOM     11  C   UNL     1       0.016   1.076   3.171  0.00  0.00    +0.048 C 
ATOM     12  C   UNL     1       0.061  -4.295  -0.055  0.00  0.00    +0.047 C 
ENDROOT
BRANCH   9  13
ATOM     13  C   UNL     1       0.068  -1.578   4.791  0.00  0.00    +0.280 C 
ATOM     14  O   UNL     1       0.061  -0.566   5.466  0.00  0.00    -0.267 OA
ATOM     15  N   UNL     1       0.090  -2.786   5.388  0.00  0.00    -0.302 N 
ATOM     16  H   UNL     1       0.096  -3.593   4.850  0.00  0.00    +0.150 HD
BRANCH  15  17
ATOM     17  C   UNL     1       0.105  -2.880   6.850  0.00  0.00    +0.182 C 
BRANCH  17  18
ATOM     18  C   UNL     1       0.129  -4.330   7.260  0.00  0.00    +0.154 A 
ATOM     19  C   UNL     1       1.231  -5.076   7.470  0.00  0.00    +0.072 A 
ATOM     20  C   UNL     1       0.820  -6.370   7.836  0.00  0.00    +0.081 A 
ATOM     21  N   UNL     1      -0.483  -6.394   7.843  0.00  0.00    -0.083 NA
ATOM     22  O   UNL     1      -0.944  -5.104   7.484  0.00  0.00    -0.358 OA
ATOM     23  C   UNL     1       1.728  -7.528   8.162  0.00  0.00    +0.069 C 
ENDBRANCH  17  18
ENDBRANCH  15  17
ENDBRANCH   9  13
TORSDOF 3
