REMARK  Name = ZINC14097342
REMARK  7 active torsions:
REMARK  status: ('A' for Active; 'I' for Inactive)
REMARK    1  A    between atoms: C_1  and  C_2
REMARK    2  A    between atoms: C_4  and  C_23
REMARK    3  A    between atoms: C_7  and  N_8
REMARK    4  A    between atoms: N_8  and  S_9
REMARK    5  A    between atoms: S_9  and  C_12
REMARK    6  A    between atoms: C_15  and  O_18
REMARK    7  A    between atoms: O_18  and  C_19
REMARK                            x       y       z     vdW  Elec       q    Type
REMARK                         _______ _______ _______ _____ _____    ______ ____
ROOT
ATOM      1  S   UNL     1       1.410   1.807  -0.112  0.00  0.00    +0.072 S 
ATOM      2  O   UNL     1       2.458   0.859   0.044  0.00  0.00    -0.150 OA
ATOM      3  O   UNL     1       1.297   2.635  -1.261  0.00  0.00    -0.150 OA
ENDROOT
BRANCH   1   4
ATOM      4  C   UNL     1       1.496   2.885   1.280  0.00  0.00    +0.109 A 
ATOM      5  C   UNL     1       0.976   4.163   1.195  0.00  0.00    +0.032 A 
ATOM      6  C   UNL     1       1.037   5.009   2.286  0.00  0.00    +0.048 A 
ATOM      7  C   UNL     1       1.630   4.578   3.464  0.00  0.00    +0.130 A 
ATOM      8  C   UNL     1       2.156   3.296   3.544  0.00  0.00    +0.048 A 
ATOM      9  C   UNL     1       2.087   2.453   2.452  0.00  0.00    +0.032 A 
BRANCH   7  10
ATOM     10  O   UNL     1       1.695   5.409   4.537  0.00  0.00    -0.406 OA
BRANCH  10  11
ATOM     11  C   UNL     1       1.134   6.714   4.382  0.00  0.00    +0.575 C 
ATOM     12  F   UNL     1      -0.227   6.602   4.075  0.00  0.00    -0.133 F 
ATOM     13  F   UNL     1       1.286   7.431   5.573  0.00  0.00    -0.133 F 
ATOM     14  F   UNL     1       1.792   7.385   3.346  0.00  0.00    -0.133 F 
ENDBRANCH  10  11
ENDBRANCH   7  10
ENDBRANCH   1   4
BRANCH   1  15
ATOM     15  N   UNL     1      -0.011   0.966   0.007  0.00  0.00    -0.216 N 
ATOM     16  H   UNL     1       0.002  -0.002   0.068  0.00  0.00    +0.174 HD
BRANCH  15  23
ATOM     17  C   UNL     1      -2.107  -0.066   1.625  0.00  0.00    +0.046 C 
ATOM     18  C   UNL     1      -2.279   1.178   0.792  0.00  0.00    -0.027 A 
ATOM     19  C   UNL     1      -3.477   1.855   0.803  0.00  0.00    +0.020 A 
ATOM     20  C   UNL     1      -3.633   3.005   0.023  0.00  0.00    +0.064 A 
ATOM     21  C   UNL     1      -2.569   3.465  -0.759  0.00  0.00    +0.017 A 
ATOM     22  C   UNL     1      -1.381   2.792  -0.761  0.00  0.00    +0.025 A 
ATOM     23  C   UNL     1      -1.223   1.647   0.014  0.00  0.00    +0.051 A 
BRANCH  20  24
ATOM     24  C   UNL     1      -4.916   3.731   0.026  0.00  0.00    +0.387 C 
ATOM     25  O   UNL     1      -5.839   3.330   0.707  0.00  0.00    -0.241 OA
ATOM     26  O   UNL     1      -5.064   4.840  -0.725  0.00  0.00    -0.241 OA
ENDBRANCH  20  24
ENDBRANCH  15  23
ENDBRANCH   1  15
TORSDOF 6
