REMARK  Name = ZINC13341296
REMARK  6 active torsions:
REMARK  status: ('A' for Active; 'I' for Inactive)
REMARK    1  A    between atoms: C_1  and  C_2
REMARK    2  A    between atoms: C_7  and  N_12
REMARK    3  A    between atoms: C_9  and  C_11
REMARK    4  A    between atoms: N_12  and  S_13
REMARK    5  A    between atoms: S_13  and  C_16
REMARK    6  A    between atoms: C_18  and  C_23
REMARK                            x       y       z     vdW  Elec       q    Type
REMARK                         _______ _______ _______ _____ _____    ______ ____
ROOT
ATOM      1  S   UNL     1       3.164   4.975  -0.923  0.00  0.00    +0.060 S 
ATOM      2  O   UNL     1       4.563   5.223  -0.916  0.00  0.00    -0.153 OA
ATOM      3  O   UNL     1       2.443   4.712  -2.119  0.00  0.00    -0.153 OA
ENDROOT
BRANCH   1   4
ATOM      4  C   UNL     1       2.400   6.373  -0.172  0.00  0.00    +0.124 A 
ATOM      5  C   UNL     1       1.339   6.995  -0.795  0.00  0.00    +0.045 A 
ATOM      6  C   UNL     1       0.734   8.103  -0.198  0.00  0.00    +0.065 A 
ATOM      7  C   UNL     1       1.209   8.575   1.028  0.00  0.00    +0.016 A 
ATOM      8  C   UNL     1       2.270   7.944   1.641  0.00  0.00    +0.023 A 
ATOM      9  C   UNL     1       2.863   6.842   1.046  0.00  0.00    +0.067 A 
ATOM     10 CL   UNL     1       4.195   6.049   1.828  0.00  0.00    -0.082 Cl
BRANCH   6  11
ATOM     11  C   UNL     1      -0.403   8.774  -0.860  0.00  0.00    +0.387 C 
ATOM     12  O   UNL     1      -0.814   8.361  -1.926  0.00  0.00    -0.241 OA
ATOM     13  O   UNL     1      -0.984   9.842  -0.281  0.00  0.00    -0.241 OA
ENDBRANCH   6  11
ENDBRANCH   1   4
BRANCH   1  14
ATOM     14  N   UNL     1       2.909   3.680   0.078  0.00  0.00    -0.187 NA
ATOM     15  H   UNL     1       3.661   3.242   0.505  0.00  0.00    +0.148 HD
BRANCH  14  21
ATOM     16  C   UNL     1      -0.930   1.966  -0.649  0.00  0.00    +0.008 C 
ATOM     17  C   UNL     1       0.047   1.200   0.246  0.00  0.00    -0.010 C 
ATOM     18  C   UNL     1      -0.322   1.425   1.714  0.00  0.00    +0.003 C 
ATOM     19  C   UNL     1      -0.246   2.918   2.036  0.00  0.00    +0.002 C 
ATOM     20  C   UNL     1       1.177   3.422   1.785  0.00  0.00    +0.020 C 
ATOM     21  C   UNL     1       1.546   3.198   0.318  0.00  0.00    +0.080 C 
ATOM     22  C   UNL     1       1.470   1.704  -0.005  0.00  0.00    +0.007 C 
ATOM     23  C   UNL     1       1.839   1.480  -1.473  0.00  0.00    +0.009 C 
ENDBRANCH  14  21
ENDBRANCH   1  14
TORSDOF 4
