REMARK  Name = ZINC16914615
REMARK  6 active torsions:
REMARK  status: ('A' for Active; 'I' for Inactive)
REMARK    1  A    between atoms: C_1  and  C_2
REMARK    2  A    between atoms: C_7  and  C_18
REMARK    3  A    between atoms: C_11  and  C_12
REMARK    4  A    between atoms: C_11  and  N_59
REMARK    5  A    between atoms: C_19  and  C_21
REMARK    6  A    between atoms: C_25  and  N_27
REMARK                            x       y       z     vdW  Elec       q    Type
REMARK                         _______ _______ _______ _____ _____    ______ ____
ROOT
ATOM      1  C   UNL     1      -2.625   2.956  -3.655  0.00  0.00    +0.009 C 
ATOM      2  C   UNL     1      -2.764   2.741  -2.147  0.00  0.00    -0.045 C 
ATOM      3  C   UNL     1      -3.840   1.694  -2.023  0.00  0.00    +0.024 C 
ATOM      4  C   UNL     1      -4.705   1.824  -0.787  0.00  0.00    +0.108 C 
ATOM      5  N   UNL     1      -4.027   2.306   0.378  0.00  0.00    -0.297 N 
ATOM      6  C   UNL     1      -3.826   3.706   0.721  0.00  0.00    +0.113 C 
ATOM      7  C   UNL     1      -2.712   4.282  -0.151  0.00  0.00    -0.031 C 
ATOM      8  C   UNL     1      -3.120   4.104  -1.610  0.00  0.00    +0.011 C 
ATOM      9  C   UNL     1      -1.365   3.675   0.166  0.00  0.00    -0.070 C 
ATOM     10  C   UNL     1      -1.401   2.235  -1.722  0.00  0.00    -0.072 C 
ATOM     11  C   UNL     1      -2.628   5.783   0.136  0.00  0.00    +0.011 C 
ATOM     12  C   UNL     1      -3.535   1.385   1.230  0.00  0.00    +0.247 C 
ATOM     13  O   UNL     1      -2.711   1.707   2.063  0.00  0.00    -0.270 OA
ATOM     14  N   UNL     1      -1.307   2.286  -0.255  0.00  0.00    +0.383 N 
ATOM     15  H   UNL     1      -2.099   1.775   0.153  0.00  0.00    -0.081 HD
ENDROOT
BRANCH  12  16
ATOM     16  C   UNL     1      -3.996  -0.018   1.151  0.00  0.00    +0.039 A 
ATOM     17  C   UNL     1      -4.025  -0.678  -0.079  0.00  0.00    +0.013 A 
ATOM     18  C   UNL     1      -4.452  -1.988  -0.145  0.00  0.00    +0.003 A 
ATOM     19  C   UNL     1      -4.862  -2.644   1.002  0.00  0.00    +0.033 A 
ATOM     20  C   UNL     1      -4.841  -1.994   2.223  0.00  0.00    +0.127 A 
ATOM     21  C   UNL     1      -4.411  -0.685   2.304  0.00  0.00    +0.045 A 
BRANCH  20  22
ATOM     22  N   UNL     1      -5.281  -2.704   3.445  0.00  0.00    +0.056 N 
ATOM     23  O   UNL     1      -5.263  -2.132   4.521  0.00  0.00    -0.126 OA
ATOM     24  O   UNL     1      -5.661  -3.859   3.375  0.00  0.00    -0.126 OA
ENDBRANCH  20  22
ENDBRANCH  12  16
BRANCH  14  25
ATOM     25  C   UNL     1      -0.041   1.661   0.201  0.00  0.00    -0.043 C 
BRANCH  25  26
ATOM     26  C   UNL     1       0.159   1.947   1.666  0.00  0.00    -0.064 A 
ATOM     27  C   UNL     1       0.859   3.072   2.061  0.00  0.00    +0.002 A 
ATOM     28  C   UNL     1       1.038   3.338   3.406  0.00  0.00    +0.000 A 
ATOM     29  C   UNL     1       0.527   2.473   4.356  0.00  0.00    +0.000 A 
ATOM     30  C   UNL     1      -0.168   1.345   3.961  0.00  0.00    +0.000 A 
ATOM     31  C   UNL     1      -0.352   1.082   2.616  0.00  0.00    +0.002 A 
ENDBRANCH  25  26
ENDBRANCH  14  25
TORSDOF 4
