REMARK  Name = ZINC07983893
REMARK  5 active torsions:
REMARK  status: ('A' for Active; 'I' for Inactive)
REMARK    1  A    between atoms: C_1  and  C_2
REMARK    2  A    between atoms: C_11  and  S_15
REMARK    3  A    between atoms: S_15  and  C_16
REMARK    4  A    between atoms: C_19  and  C_22
REMARK    5  A    between atoms: N_20  and  C_21
REMARK                            x       y       z     vdW  Elec       q    Type
REMARK                         _______ _______ _______ _____ _____    ______ ____
ROOT
ATOM      1  C   UNL     1       6.797   5.060  -0.113  0.00  0.00    +0.008 C 
ATOM      2  C   UNL     1       5.686   4.048  -0.402  0.00  0.00    -0.009 C 
ATOM      3  C   UNL     1       5.917   2.781   0.427  0.00  0.00    +0.008 C 
ATOM      4  C   UNL     1       4.963   1.679  -0.033  0.00  0.00    +0.037 C 
ATOM      5  C   UNL     1       3.537   2.224  -0.018  0.00  0.00    -0.025 A 
ATOM      6  C   UNL     1       3.307   3.553  -0.009  0.00  0.00    -0.004 A 
ATOM      7  S   UNL     1       1.542   3.717   0.007  0.00  0.00    -0.073 S 
ATOM      8  C   UNL     1       1.113   1.996   0.002  0.00  0.00    +0.113 A 
ATOM      9  C   UNL     1       2.365   1.347  -0.013  0.00  0.00    +0.043 A 
ATOM     10  C   UNL     1       2.316  -0.074  -0.021  0.00  0.00    +0.116 A 
ATOM     11  N   UNL     1       1.137  -0.678  -0.013  0.00  0.00    -0.228 NA
ATOM     12  C   UNL     1       0.002  -0.004   0.002  0.00  0.00    +0.223 A 
ATOM     13  N   UNL     1      -0.016   1.315   0.009  0.00  0.00    -0.228 NA
ATOM     14  C   UNL     1       4.328   4.650  -0.013  0.00  0.00    +0.046 C 
ENDROOT
BRANCH  10  15
ATOM     15  S   UNL     1       3.803  -1.019  -0.040  0.00  0.00    -0.030 S 
BRANCH  15  16
ATOM     16  C   UNL     1       3.131  -2.648  -0.043  0.00  0.00    +0.198 A 
ATOM     17  N   UNL     1       1.858  -2.967  -0.026  0.00  0.00    -0.122 NA
ATOM     18  N   UNL     1       1.728  -4.245  -0.036  0.00  0.00    -0.124 NA
ATOM     19  C   UNL     1       2.901  -4.814  -0.051  0.00  0.00    +0.238 A 
ATOM     20  N   UNL     1       3.836  -3.817  -0.056  0.00  0.00    -0.302 N 
ATOM     21  C   UNL     1       5.293  -3.971  -0.071  0.00  0.00    +0.153 C 
BRANCH  19  22
ATOM     22  C   UNL     1       3.175  -6.295  -0.061  0.00  0.00    +0.452 C 
ATOM     23  F   UNL     1       2.004  -6.984  -0.394  0.00  0.00    -0.163 F 
ATOM     24  F   UNL     1       4.168  -6.579  -1.005  0.00  0.00    -0.163 F 
ATOM     25  F   UNL     1       3.609  -6.698   1.206  0.00  0.00    -0.163 F 
ENDBRANCH  19  22
ENDBRANCH  15  16
ENDBRANCH  10  15
TORSDOF 3
