REMARK  Name = ZINC40284293
REMARK  3 active torsions:
REMARK  status: ('A' for Active; 'I' for Inactive)
REMARK    1  A    between atoms: C_3  and  N_7
REMARK    2  A    between atoms: C_13  and  O_24
REMARK    3  A    between atoms: C_15  and  C_17
REMARK                            x       y       z     vdW  Elec       q    Type
REMARK                         _______ _______ _______ _____ _____    ______ ____
ROOT
ATOM      1  N   UNL     1       3.607   1.997  -0.022  0.00  0.00    -0.282 N 
ATOM      2  C   UNL     1       3.988   3.009  -0.857  0.00  0.00    +0.206 A 
ATOM      3  N   UNL     1       5.215   3.363  -0.565  0.00  0.00    -0.237 NA
ATOM      4  C   UNL     1       5.663   2.617   0.436  0.00  0.00    +0.094 A 
ATOM      5  C   UNL     1       4.664   1.752   0.805  0.00  0.00    +0.165 A 
ATOM      6  N   UNL     1       4.821   0.862   1.827  0.00  0.00    -0.197 NA
ATOM      7  C   UNL     1       6.021   0.602   2.256  0.00  0.00    +0.190 C 
ATOM      8  C   UNL     1       7.258   1.205   1.659  0.00  0.00    +0.110 C 
ATOM      9  C   UNL     1       7.000   2.618   1.134  0.00  0.00    +0.080 C 
ENDROOT
BRANCH   9  10
ATOM     10  C   UNL     1       6.970   3.581   2.293  0.00  0.00    -0.038 A 
ATOM     11  C   UNL     1       6.066   3.394   3.323  0.00  0.00    +0.006 A 
ATOM     12  C   UNL     1       6.038   4.277   4.386  0.00  0.00    +0.020 A 
ATOM     13  C   UNL     1       6.914   5.347   4.420  0.00  0.00    +0.041 A 
ATOM     14  C   UNL     1       7.818   5.533   3.389  0.00  0.00    +0.020 A 
ATOM     15  C   UNL     1       7.849   4.647   2.329  0.00  0.00    +0.006 A 
ATOM     16 CL   UNL     1       6.879   6.456   5.755  0.00  0.00    -0.084 Cl
ENDBRANCH   9  10
BRANCH   1  19
ATOM     17  C   UNL     1      -0.017   1.378   0.010  0.00  0.00    +0.022 A 
ATOM     18  C   UNL     1       1.183   2.071   0.002  0.00  0.00    +0.029 A 
ATOM     19  C   UNL     1       2.368   1.341  -0.013  0.00  0.00    +0.067 A 
ATOM     20  C   UNL     1       2.305  -0.046  -0.020  0.00  0.00    +0.137 A 
ATOM     21  N   UNL     1       1.143  -0.666  -0.012  0.00  0.00    -0.261 NA
ATOM     22  C   UNL     1       0.002  -0.004   0.002  0.00  0.00    +0.111 A 
ENDBRANCH   1  19
BRANCH   7  23
ATOM     23  O   UNL     1       6.160  -0.254   3.291  0.00  0.00    -0.495 OA
ATOM     24  H   UNL     1       5.324  -0.605   3.626  0.00  0.00    +0.293 HD
ENDBRANCH   7  23
TORSDOF 3
