REMARK  Name = ZINC60479196
REMARK  6 active torsions:
REMARK  status: ('A' for Active; 'I' for Inactive)
REMARK    1  A    between atoms: C_1  and  C_2
REMARK    2  A    between atoms: C_6  and  C_27
REMARK    3  A    between atoms: C_7  and  N_8
REMARK    4  A    between atoms: C_9  and  C_13
REMARK    5  A    between atoms: C_13  and  N_14
REMARK    6  A    between atoms: C_18  and  C_20
REMARK                            x       y       z     vdW  Elec       q    Type
REMARK                         _______ _______ _______ _____ _____    ______ ____
ROOT
ATOM      1  C   UNL     1       0.228  -2.206   3.964  0.00  0.00    +0.162 C 
ENDROOT
BRANCH   1   2
ATOM      2  N   UNL     1       1.669  -2.484   3.904  0.00  0.00    -0.290 NA
ATOM      3  C   UNL     1       2.365  -1.916   5.068  0.00  0.00    +0.113 C 
ATOM      4  C   UNL     1       3.868  -2.176   4.935  0.00  0.00    +0.176 C 
ATOM      5  O   UNL     1       4.093  -3.582   4.803  0.00  0.00    -0.369 OA
ATOM      6  C   UNL     1       3.431  -4.169   3.680  0.00  0.00    +0.162 C 
ATOM      7  C   UNL     1       1.924  -3.928   3.800  0.00  0.00    +0.121 C 
BRANCH   6   8
ATOM      8  C   UNL     1       3.704  -5.650   3.652  0.00  0.00    -0.018 A 
ATOM      9  C   UNL     1       3.708  -6.374   4.830  0.00  0.00    +0.007 A 
ATOM     10  C   UNL     1       3.958  -7.733   4.805  0.00  0.00    +0.020 A 
ATOM     11  C   UNL     1       4.204  -8.369   3.601  0.00  0.00    +0.041 A 
ATOM     12  C   UNL     1       4.200  -7.644   2.423  0.00  0.00    +0.020 A 
ATOM     13  C   UNL     1       3.944  -6.286   2.448  0.00  0.00    +0.007 A 
ATOM     14 CL   UNL     1       4.519 -10.076   3.569  0.00  0.00    -0.084 Cl
ENDBRANCH   6   8
ENDBRANCH   1   2
BRANCH   1  16
ATOM     15  N   UNL     1      -0.537  -0.075   2.789  0.00  0.00    -0.195 N 
ATOM     16  C   UNL     1      -0.002  -0.722   3.848  0.00  0.00    +0.171 A 
ATOM     17  N   UNL     1       0.278   0.180   4.752  0.00  0.00    -0.112 NA
ATOM     18  N   UNL     1      -0.043   1.352   4.338  0.00  0.00    -0.023 NA
ATOM     19  N   UNL     1      -0.540   1.284   3.150  0.00  0.00    -0.039 NA
BRANCH  15  26
ATOM     20  C   UNL     1       1.340  -1.475   1.172  0.00  0.00    +0.046 C 
ATOM     21  C   UNL     1      -0.104  -1.329   0.768  0.00  0.00    -0.025 A 
ATOM     22  C   UNL     1      -0.552  -1.887  -0.413  0.00  0.00    +0.005 A 
ATOM     23  C   UNL     1      -1.877  -1.754  -0.784  0.00  0.00    +0.001 A 
ATOM     24  C   UNL     1      -2.758  -1.061   0.026  0.00  0.00    +0.005 A 
ATOM     25  C   UNL     1      -2.316  -0.500   1.208  0.00  0.00    -0.025 A 
ATOM     26  C   UNL     1      -0.988  -0.638   1.586  0.00  0.00    +0.075 A 
ATOM     27  C   UNL     1      -3.277   0.255   2.090  0.00  0.00    +0.046 C 
ENDBRANCH  15  26
ENDBRANCH   1  16
TORSDOF 4
