REMARK  Name = ZINC39536941
REMARK  10 active torsions:
REMARK  status: ('A' for Active; 'I' for Inactive)
REMARK    1  A    between atoms: C_1  and  O_2
REMARK    2  A    between atoms: O_2  and  C_3
REMARK    3  A    between atoms: C_6  and  C_13
REMARK    4  A    between atoms: C_7  and  O_11
REMARK    5  A    between atoms: C_8  and  O_9
REMARK    6  A    between atoms: O_9  and  C_10
REMARK    7  A    between atoms: O_11  and  C_12
REMARK    8  A    between atoms: C_13  and  N_14
REMARK    9  A    between atoms: C_18  and  C_21
REMARK   10  A    between atoms: C_23  and  C_27
REMARK                            x       y       z     vdW  Elec       q    Type
REMARK                         _______ _______ _______ _____ _____    ______ ____
ROOT
ATOM      1  N   UNL     1      -5.306  -3.061   1.404  0.00  0.00    +0.383 N 
ATOM      2  C   UNL     1      -4.329  -4.072   1.826  0.00  0.00    -0.078 C 
ATOM      3  C   UNL     1      -4.601  -4.475   3.276  0.00  0.00    -0.018 C 
ATOM      4  C   UNL     1      -6.015  -5.053   3.383  0.00  0.00    +0.002 C 
ATOM      5  C   UNL     1      -7.020  -4.017   2.871  0.00  0.00    +0.003 C 
ATOM      6  C   UNL     1      -6.658  -3.631   1.435  0.00  0.00    -0.072 C 
ATOM      7  H   UNL     1      -5.261  -2.270   2.030  0.00  0.00    -0.081 HD
ENDROOT
BRANCH   5   8
ATOM      8  C   UNL     1      -8.428  -4.613   2.901  0.00  0.00    +0.161 C 
ATOM      9  C   UNL     1      -8.838  -4.955   4.324  0.00  0.00    +0.006 C 
ATOM     10  C   UNL     1      -9.028  -6.294   4.288  0.00  0.00    +0.140 C 
ATOM     11  N   UNL     1      -8.790  -6.771   3.060  0.00  0.00    -0.162 NA
ATOM     12  N   UNL     1      -8.456  -5.922   2.225  0.00  0.00    -0.179 NA
BRANCH   9  13
ATOM     13  C   UNL     1      -8.990  -4.044   5.470  0.00  0.00    -0.018 A 
ATOM     14  C   UNL     1      -9.984  -3.061   5.459  0.00  0.00    +0.010 A 
ATOM     15  C   UNL     1     -10.121  -2.212   6.537  0.00  0.00    +0.020 A 
ATOM     16  C   UNL     1      -9.277  -2.331   7.628  0.00  0.00    +0.041 A 
ATOM     17  C   UNL     1      -8.289  -3.302   7.646  0.00  0.00    +0.020 A 
ATOM     18  C   UNL     1      -8.144  -4.162   6.578  0.00  0.00    +0.010 A 
ATOM     19 CL   UNL     1      -9.456  -1.257   8.980  0.00  0.00    -0.084 Cl
ENDBRANCH   9  13
ENDBRANCH   5   8
BRANCH   1  20
ATOM     20  C   UNL     1      -4.994  -2.620   0.038  0.00  0.00    -0.039 C 
BRANCH  20  24
ATOM     21  C   UNL     1      -1.201  -0.638   0.010  0.00  0.00    +0.165 A 
ATOM     22  C   UNL     1      -2.375   0.101   0.019  0.00  0.00    +0.050 A 
ATOM     23  C   UNL     1      -3.598  -0.543   0.028  0.00  0.00    +0.009 A 
ATOM     24  C   UNL     1      -3.657  -1.924   0.028  0.00  0.00    -0.018 A 
ATOM     25  C   UNL     1      -2.488  -2.670   0.018  0.00  0.00    +0.167 A 
ATOM     26  C   UNL     1      -1.256  -2.026   0.003  0.00  0.00    +0.204 A 
BRANCH  21  28
ATOM     27  C   UNL     1      -0.017   1.425   0.010  0.00  0.00    +0.277 C 
ATOM     28  O   UNL     1       0.002  -0.004   0.002  0.00  0.00    -0.491 OA
ENDBRANCH  21  28
BRANCH  26  29
ATOM     29  O   UNL     1      -0.106  -2.755  -0.012  0.00  0.00    -0.488 OA
ATOM     30  C   UNL     1       0.454  -3.109   1.254  0.00  0.00    +0.277 C 
ENDBRANCH  26  29
BRANCH  25  31
ATOM     31  O   UNL     1      -2.547  -4.028   0.018  0.00  0.00    -0.491 OA
ATOM     32  C   UNL     1      -2.586  -4.676  -1.255  0.00  0.00    +0.277 C 
ENDBRANCH  25  31
ENDBRANCH  20  24
ENDBRANCH   1  20
TORSDOF 7
