REMARK  Name = ZINC29321855
REMARK  8 active torsions:
REMARK  status: ('A' for Active; 'I' for Inactive)
REMARK    1  A    between atoms: C_1  and  C_2
REMARK    2  A    between atoms: C_5  and  N_8
REMARK    3  A    between atoms: C_9  and  C_32
REMARK    4  A    between atoms: C_10  and  C_13
REMARK    5  A    between atoms: C_13  and  C_15
REMARK    6  A    between atoms: C_13  and  N_16
REMARK    7  A    between atoms: N_19  and  C_20
REMARK    8  A    between atoms: C_20  and  C_21
REMARK                            x       y       z     vdW  Elec       q    Type
REMARK                         _______ _______ _______ _____ _____    ______ ____
ROOT
ATOM      1  N   UNL     1      -6.404  -0.944   0.974  0.00  0.00    -0.293 N 
ATOM      2  C   UNL     1      -7.393  -1.275   1.827  0.00  0.00    +0.300 C 
ATOM      3  O   UNL     1      -7.878  -0.428   2.553  0.00  0.00    -0.253 OA
ATOM      4  N   UNL     1      -7.844  -2.544   1.877  0.00  0.00    -0.296 N 
ATOM      5  H   UNL     1      -5.964  -1.710   0.317  0.00  0.00    +0.151 HD
ATOM      6  H   UNL     1      -7.405  -3.309   1.220  0.00  0.00    +0.150 HD
ENDROOT
BRANCH   1   7
ATOM      7  C   UNL     1      -5.913   0.436   0.920  0.00  0.00    +0.105 C 
ATOM      8  C   UNL     1      -6.799   1.256  -0.020  0.00  0.00    +0.033 C 
BRANCH   7  11
ATOM      9  N   UNL     1      -2.429   1.039   0.019  0.00  0.00    -0.237 N 
ATOM     10  C   UNL     1      -3.566   1.397   0.658  0.00  0.00    +0.047 A 
ATOM     11  C   UNL     1      -4.495   0.445   0.409  0.00  0.00    +0.013 A 
ATOM     12  C   UNL     1      -3.906  -0.531  -0.401  0.00  0.00    +0.140 A 
ATOM     13  N   UNL     1      -2.668  -0.176  -0.635  0.00  0.00    -0.174 NA
ATOM     14  C   UNL     1      -3.764   2.635   1.494  0.00  0.00    +0.066 C 
BRANCH   9  19
ATOM     15  C   UNL     1       2.452   3.935  -0.001  0.00  0.00    +0.044 C 
ATOM     16  C   UNL     1       1.156   3.166   0.007  0.00  0.00    -0.050 A 
ATOM     17  C   UNL     1       1.174   1.783   0.000  0.00  0.00    +0.005 A 
ATOM     18  C   UNL     1      -0.013   1.076   0.008  0.00  0.00    +0.028 A 
ATOM     19  C   UNL     1      -1.224   1.754   0.017  0.00  0.00    +0.066 A 
ATOM     20  C   UNL     1      -1.239   3.143   0.030  0.00  0.00    +0.028 A 
ATOM     21  C   UNL     1      -0.049   3.845   0.022  0.00  0.00    +0.005 A 
ENDBRANCH   9  19
ENDBRANCH   7  11
ENDBRANCH   1   7
BRANCH   4  22
ATOM     22  C   UNL     1      -8.919  -2.903   2.804  0.00  0.00    +0.153 C 
BRANCH  22  23
ATOM     23  C   UNL     1      -9.240  -4.393   2.661  0.00  0.00    +0.228 C 
ATOM     24  C   UNL     1     -10.428  -4.755   3.561  0.00  0.00    +0.275 C 
ATOM     25  O   UNL     1     -10.693  -6.154   3.413  0.00  0.00    -0.485 OA
ATOM     26  C   UNL     1      -9.617  -6.988   3.462  0.00  0.00    +0.162 A 
ATOM     27  C   UNL     1      -9.816  -8.342   3.685  0.00  0.00    +0.049 A 
ATOM     28  C   UNL     1      -8.735  -9.202   3.734  0.00  0.00    +0.004 A 
ATOM     29  C   UNL     1      -7.453  -8.714   3.560  0.00  0.00    +0.004 A 
ATOM     30  C   UNL     1      -7.248  -7.365   3.338  0.00  0.00    +0.049 A 
ATOM     31  C   UNL     1      -8.329  -6.497   3.289  0.00  0.00    +0.163 A 
ATOM     32  O   UNL     1      -8.111  -5.171   3.073  0.00  0.00    -0.480 OA
ENDBRANCH  22  23
ENDBRANCH   4  22
TORSDOF 5
