REMARK  Name = ZINC04758166
REMARK  5 active torsions:
REMARK  status: ('A' for Active; 'I' for Inactive)
REMARK    1  A    between atoms: C_1  and  C_2
REMARK    2  A    between atoms: C_2  and  C_3
REMARK    3  A    between atoms: C_10  and  S_15
REMARK    4  A    between atoms: S_15  and  N_18
REMARK    5  A    between atoms: C_21  and  N_59
REMARK                            x       y       z     vdW  Elec       q    Type
REMARK                         _______ _______ _______ _____ _____    ______ ____
ROOT
ATOM      1  S   UNL     1      -2.624  -0.155  -0.048  0.00  0.00    +0.063 S 
ATOM      2  O   UNL     1      -2.953   0.633  -1.183  0.00  0.00    -0.153 OA
ATOM      3  O   UNL     1      -3.326  -1.345   0.283  0.00  0.00    -0.153 OA
ENDROOT
BRANCH   1  11
ATOM      4  C   UNL     1      -2.607  -1.726  -2.511  0.00  0.00    +0.220 C 
ATOM      5  O   UNL     1      -3.262  -1.237  -1.615  0.00  0.00    -0.275 OA
ATOM      6  N   UNL     1      -1.278  -1.890  -2.362  0.00  0.00    -0.269 N 
ATOM      7  C   UNL     1      -0.417  -2.642  -3.279  0.00  0.00    +0.118 C 
ATOM      8  C   UNL     1       0.995  -2.543  -2.678  0.00  0.00    +0.056 C 
ATOM      9  C   UNL     1       0.819  -1.714  -1.426  0.00  0.00    -0.022 A 
ATOM     10  C   UNL     1      -0.519  -1.373  -1.307  0.00  0.00    +0.066 A 
ATOM     11  C   UNL     1      -0.928  -0.601  -0.218  0.00  0.00    +0.128 A 
ATOM     12  C   UNL     1      -0.011  -0.187   0.724  0.00  0.00    +0.045 A 
ATOM     13  C   UNL     1       1.322  -0.533   0.597  0.00  0.00    +0.020 A 
ATOM     14  C   UNL     1       1.735  -1.298  -0.479  0.00  0.00    +0.021 A 
ATOM     15 BR   UNL     1       2.577   0.036   1.892  0.00  0.00    -0.050 Br
BRANCH   4  17
ATOM     16  C   UNL     1      -4.779  -1.856  -3.700  0.00  0.00    +0.013 C 
ATOM     17  C   UNL     1      -3.281  -2.150  -3.791  0.00  0.00    +0.093 C 
ENDBRANCH   4  17
ENDBRANCH   1  11
BRANCH   1  18
ATOM     18  N   UNL     1      -2.738   0.843   1.270  0.00  0.00    -0.177 NA
ATOM     19  C   UNL     1      -3.059   0.298   2.595  0.00  0.00    +0.108 C 
ATOM     20  C   UNL     1      -1.980   0.758   3.588  0.00  0.00    +0.002 C 
ATOM     21  C   UNL     1      -1.873   2.284   3.545  0.00  0.00    -0.066 C 
ATOM     22  C   UNL     1      -1.457   2.728   2.140  0.00  0.00    +0.002 C 
ATOM     23  C   UNL     1      -2.524   2.290   1.133  0.00  0.00    +0.108 C 
BRANCH  21  29
ATOM     24  C   UNL     1       0.446   2.144   4.225  0.00  0.00    -0.078 C 
ATOM     25  C   UNL     1       1.495   2.743   5.165  0.00  0.00    -0.019 C 
ATOM     26  C   UNL     1       1.097   2.454   6.615  0.00  0.00    -0.004 C 
ATOM     27  C   UNL     1      -0.295   3.034   6.880  0.00  0.00    -0.019 C 
ATOM     28  C   UNL     1      -1.292   2.426   5.890  0.00  0.00    -0.078 C 
ATOM     29  N   UNL     1      -0.866   2.761   4.514  0.00  0.00    +0.382 N 
ATOM     30  H   UNL     1      -0.780   3.781   4.431  0.00  0.00    -0.081 HD
ENDBRANCH  21  29
ENDBRANCH   1  18
TORSDOF 4
