REMARK  Name = ZINC35919131
REMARK  6 active torsions:
REMARK  status: ('A' for Active; 'I' for Inactive)
REMARK    1  A    between atoms: C_1  and  C_2
REMARK    2  A    between atoms: C_2  and  N_3
REMARK    3  A    between atoms: N_3  and  C_4
REMARK    4  A    between atoms: N_14  and  C_17
REMARK    5  A    between atoms: N_26  and  C_28
REMARK    6  A    between atoms: C_28  and  C_29
REMARK                            x       y       z     vdW  Elec       q    Type
REMARK                         _______ _______ _______ _____ _____    ______ ____
ROOT
ATOM      1  N   UNL     1       0.688  -0.476  -1.203  0.00  0.00    -0.318 N 
ATOM      2  C   UNL     1       1.386   0.798  -1.019  0.00  0.00    +0.130 C 
ATOM      3  C   UNL     1      -0.032  -0.711  -2.364  0.00  0.00    +0.128 A 
ATOM      4  C   UNL     1       0.592  -1.266  -3.486  0.00  0.00    -0.003 A 
ATOM      5  C   UNL     1      -0.160  -1.483  -4.616  0.00  0.00    +0.048 A 
ATOM      6  N   UNL     1      -1.448  -1.159  -4.611  0.00  0.00    -0.219 NA
ATOM      7  C   UNL     1      -2.014  -0.634  -3.536  0.00  0.00    +0.220 A 
ATOM      8  N   UNL     1      -1.326  -0.417  -2.425  0.00  0.00    -0.199 NA
ATOM      9  N   UNL     1      -3.359  -0.310  -3.571  0.00  0.00    -0.297 N 
ATOM     10  C   UNL     1      -4.154  -0.550  -4.784  0.00  0.00    +0.127 C 
ATOM     11  C   UNL     1      -5.363  -1.417  -4.413  0.00  0.00    +0.124 C 
ATOM     12  N   UNL     1      -6.022  -0.829  -3.239  0.00  0.00    -0.325 N 
ATOM     13  C   UNL     1      -5.227  -0.589  -2.026  0.00  0.00    +0.124 C 
ATOM     14  C   UNL     1      -4.019   0.274  -2.395  0.00  0.00    +0.127 C 
ATOM     15  C   UNL     1       0.445  -2.083  -5.858  0.00  0.00    +0.037 C 
ATOM     16  C   UNL     1       1.970  -1.996  -5.783  0.00  0.00    -0.072 C 
ATOM     17  N   UNL     1       2.411  -2.545  -4.492  0.00  0.00    +0.386 N 
ATOM     18  C   UNL     1       2.056  -1.604  -3.425  0.00  0.00    -0.037 C 
ATOM     19  H   UNL     1       1.954  -3.429  -4.328  0.00  0.00    -0.081 HD
ENDROOT
BRANCH  12  20
ATOM     20  C   UNL     1      -7.381  -0.501  -3.274  0.00  0.00    +0.065 A 
ATOM     21  C   UNL     1      -8.332  -1.436  -2.889  0.00  0.00    +0.026 A 
ATOM     22  C   UNL     1      -9.674  -1.110  -2.925  0.00  0.00    +0.002 A 
ATOM     23  C   UNL     1     -10.072   0.146  -3.344  0.00  0.00    +0.003 A 
ATOM     24  C   UNL     1      -9.128   1.081  -3.729  0.00  0.00    +0.040 A 
ATOM     25  C   UNL     1      -7.783   0.764  -3.690  0.00  0.00    +0.144 A 
ATOM     26  F   UNL     1      -6.861   1.679  -4.060  0.00  0.00    -0.204 F 
ENDBRANCH  12  20
BRANCH   1  28
ATOM     27  C   UNL     1      -0.406  -1.304   0.821  0.00  0.00    +0.024 C 
ATOM     28  C   UNL     1       0.750  -1.503  -0.160  0.00  0.00    +0.103 C 
ENDBRANCH   1  28
BRANCH  17  29
ATOM     29  C   UNL     1       3.867  -2.739  -4.512  0.00  0.00    -0.035 C 
BRANCH  29  30
ATOM     30  C   UNL     1       4.220  -3.790  -5.532  0.00  0.00    -0.027 A 
ATOM     31  C   UNL     1       4.514  -3.639  -6.847  0.00  0.00    +0.009 A 
ATOM     32  C   UNL     1       4.812  -4.758  -7.600  0.00  0.00    +0.008 A 
ATOM     33  C   UNL     1       4.801  -5.975  -7.003  0.00  0.00    +0.045 A 
ATOM     34  S   UNL     1       4.366  -5.557  -5.322  0.00  0.00    -0.103 S 
ENDBRANCH  29  30
ENDBRANCH  17  29
TORSDOF 4
