REMARK  Name = ZINC24961023
REMARK  3 active torsions:
REMARK  status: ('A' for Active; 'I' for Inactive)
REMARK    1  A    between atoms: C_13  and  C_15
REMARK    2  A    between atoms: C_15  and  C_16
REMARK    3  A    between atoms: C_25  and  O_28
REMARK                            x       y       z     vdW  Elec       q    Type
REMARK                         _______ _______ _______ _____ _____    ______ ____
ROOT
ATOM      1  C   UNL     1       3.456  -5.316   3.388  0.00  0.00    +0.054 C 
ATOM      2  C   UNL     1       2.343  -4.366   3.845  0.00  0.00    +0.110 C 
ATOM      3  N   UNL     1       1.635  -3.864   2.659  0.00  0.00    -0.301 N 
ATOM      4  C   UNL     1       1.080  -4.833   1.704  0.00  0.00    +0.110 C 
ATOM      5  C   UNL     1       2.207  -5.780   1.260  0.00  0.00    +0.054 C 
ATOM      6  C   UNL     1       2.863  -6.397   2.490  0.00  0.00    +0.115 C 
ATOM      7  C   UNL     1       3.932  -7.383   2.078  0.00  0.00    +0.244 C 
ATOM      8  O   UNL     1       4.936  -7.152   1.439  0.00  0.00    -0.273 OA
ATOM      9  N   UNL     1       3.534  -8.574   2.572  0.00  0.00    -0.238 N 
ATOM     10  C   UNL     1       2.373  -8.471   3.231  0.00  0.00    +0.307 C 
ATOM     11  O   UNL     1       1.813  -9.408   3.764  0.00  0.00    -0.252 OA
ATOM     12  N   UNL     1       1.895  -7.212   3.236  0.00  0.00    -0.285 N 
ATOM     13  C   UNL     1       1.492  -2.540   2.454  0.00  0.00    +0.216 C 
ATOM     14  O   UNL     1       1.950  -1.750   3.252  0.00  0.00    -0.276 OA
ATOM     15  H   UNL     1       4.148  -9.471   2.407  0.00  0.00    +0.159 HD
ATOM     16  H   UNL     1       0.995  -6.744   3.662  0.00  0.00    +0.151 HD
ENDROOT
BRANCH  13  17
ATOM     17  C   UNL     1       0.763  -2.041   1.233  0.00  0.00    +0.103 C 
BRANCH  17  18
ATOM     18  C   UNL     1       0.742  -0.511   1.242  0.00  0.00    -0.018 C 
ATOM     19  C   UNL     1       2.178   0.019   1.231  0.00  0.00    +0.011 C 
ATOM     20  C   UNL     1       2.157   1.548   1.239  0.00  0.00    -0.007 C 
ATOM     21  C   UNL     1       1.441   2.042   2.498  0.00  0.00    +0.007 C 
ATOM     22  C   UNL     1       0.005   1.512   2.509  0.00  0.00    -0.007 C 
ATOM     23  C   UNL     1       0.026  -0.018   2.500  0.00  0.00    +0.011 C 
ATOM     24  C   UNL     1      -0.735   2.019   1.269  0.00  0.00    +0.038 C 
ATOM     25  C   UNL     1      -0.019   1.526   0.010  0.00  0.00    +0.067 C 
ATOM     26  C   UNL     1       1.417   2.055  -0.000  0.00  0.00    +0.038 C 
ATOM     27  C   UNL     1       0.002  -0.004   0.002  0.00  0.00    +0.042 C 
BRANCH  25  28
ATOM     28  O   UNL     1      -0.710   1.999  -1.147  0.00  0.00    -0.389 OA
ATOM     29  H   UNL     1      -0.340   1.744  -2.151  0.00  0.00    +0.210 HD
ENDBRANCH  25  28
ENDBRANCH  17  18
ENDBRANCH  13  17
TORSDOF 3
