REMARK  Name = ZINC63003374
REMARK  2 active torsions:
REMARK  status: ('A' for Active; 'I' for Inactive)
REMARK    1  A    between atoms: C_4  and  C_7
REMARK    2  A    between atoms: C_11  and  C_15
REMARK                            x       y       z     vdW  Elec       q    Type
REMARK                         _______ _______ _______ _____ _____    ______ ____
ROOT
ATOM      1  C   UNL     1       3.736  -0.661  -0.185  0.00  0.00    +0.110 C 
ATOM      2  C   UNL     1       4.084  -1.187  -1.580  0.00  0.00    +0.184 C 
ATOM      3  O   UNL     1       5.280  -1.968  -1.505  0.00  0.00    -0.366 OA
ATOM      4  C   UNL     1       5.185  -3.081  -0.612  0.00  0.00    +0.198 C 
ATOM      5  C   UNL     1       4.848  -2.575   0.793  0.00  0.00    +0.121 C 
ATOM      6  N   UNL     1       3.603  -1.795   0.742  0.00  0.00    -0.305 NA
ATOM      7  H   UNL     1       3.336  -1.480   1.663  0.00  0.00    +0.123 HD
ENDROOT
BRANCH   4   8
ATOM      8  C   UNL     1       4.101  -4.015  -1.085  0.00  0.00    +0.136 A 
ATOM      9  C   UNL     1       4.200  -5.351  -1.121  0.00  0.00    +0.056 A 
ATOM     10  C   UNL     1       2.920  -5.842  -1.645  0.00  0.00    +0.020 A 
ATOM     11  C   UNL     1       2.399  -7.106  -1.917  0.00  0.00    +0.011 A 
ATOM     12  C   UNL     1       1.131  -7.224  -2.416  0.00  0.00    +0.001 A 
ATOM     13  C   UNL     1       0.361  -6.094  -2.652  0.00  0.00    +0.004 A 
ATOM     14  C   UNL     1       0.860  -4.836  -2.389  0.00  0.00    +0.047 A 
ATOM     15  C   UNL     1       2.145  -4.694  -1.881  0.00  0.00    +0.135 A 
ATOM     16  O   UNL     1       2.891  -3.628  -1.527  0.00  0.00    -0.457 OA
ENDBRANCH   4   8
BRANCH   1  20
ATOM     17  C   UNL     1       0.047   1.487  -0.351  0.00  0.00    +0.000 A 
ATOM     18  C   UNL     1       1.247   2.173  -0.345  0.00  0.00    +0.000 A 
ATOM     19  C   UNL     1       2.441   1.478  -0.291  0.00  0.00    +0.005 A 
ATOM     20  C   UNL     1       2.435   0.097  -0.243  0.00  0.00    -0.028 A 
ATOM     21  C   UNL     1       1.235  -0.590  -0.247  0.00  0.00    +0.005 A 
ATOM     22  C   UNL     1       0.041   0.105  -0.303  0.00  0.00    +0.000 A 
ENDBRANCH   1  20
TORSDOF 2
