REMARK  Name = ZINC66854798
REMARK  5 active torsions:
REMARK  status: ('A' for Active; 'I' for Inactive)
REMARK    1  A    between atoms: C_1  and  C_2
REMARK    2  A    between atoms: C_4  and  C_24
REMARK    3  A    between atoms: N_8  and  C_12
REMARK    4  A    between atoms: C_12  and  C_13
REMARK    5  A    between atoms: C_21  and  C_23
REMARK                            x       y       z     vdW  Elec       q    Type
REMARK                         _______ _______ _______ _____ _____    ______ ____
ROOT
ATOM      1  C   UNL     1      -0.018   1.503   0.010  0.00  0.00    +0.044 C 
ATOM      2  C   UNL     1       0.002  -0.004   0.002  0.00  0.00    -0.048 A 
ATOM      3  C   UNL     1       0.006  -0.690  -1.199  0.00  0.00    +0.007 A 
ATOM      4  C   UNL     1       0.022  -2.071  -1.209  0.00  0.00    -0.045 A 
ATOM      5  C   UNL     1       0.036  -2.779  -0.019  0.00  0.00    -0.023 A 
ATOM      6  C   UNL     1       0.036  -2.092   1.185  0.00  0.00    +0.034 A 
ATOM      7  C   UNL     1       0.023  -0.702   1.193  0.00  0.00    +0.026 A 
ATOM      8  N   UNL     1       0.058  -2.780   2.403  0.00  0.00    -0.324 N 
ATOM      9  C   UNL     1      -0.221  -4.223   2.410  0.00  0.00    +0.106 C 
ATOM     10  C   UNL     1       0.564  -4.857   1.254  0.00  0.00    +0.024 C 
ATOM     11  C   UNL     1       0.048  -4.284  -0.066  0.00  0.00    +0.039 C 
ATOM     12  C   UNL     1       0.025  -2.811  -2.522  0.00  0.00    +0.044 C 
ENDROOT
BRANCH   8  13
ATOM     13  C   UNL     1       0.356  -2.074   3.652  0.00  0.00    +0.160 C 
BRANCH  13  14
ATOM     14  C   UNL     1      -0.926  -1.563   4.257  0.00  0.00    +0.067 A 
ATOM     15  C   UNL     1      -1.369  -2.044   5.471  0.00  0.00    +0.097 A 
ATOM     16  C   UNL     1      -2.558  -1.558   6.015  0.00  0.00    +0.275 A 
ATOM     17  O   UNL     1      -2.956  -1.981   7.090  0.00  0.00    -0.266 OA
ATOM     18  N   UNL     1      -3.276  -0.610   5.345  0.00  0.00    -0.171 N 
ATOM     19  C   UNL     1      -2.764  -0.188   4.149  0.00  0.00    +0.199 A 
ATOM     20  N   UNL     1      -1.646  -0.634   3.634  0.00  0.00    -0.225 NA
ATOM     21  S   UNL     1      -3.966   1.012   3.618  0.00  0.00    -0.033 S 
ATOM     22  C   UNL     1      -5.067   0.875   5.017  0.00  0.00    +0.099 A 
ATOM     23  N   UNL     1      -4.473  -0.023   5.743  0.00  0.00    -0.159 NA
ATOM     24  C   UNL     1      -6.354   1.611   5.285  0.00  0.00    +0.075 C 
ENDBRANCH  13  14
ENDBRANCH   8  13
TORSDOF 2
