REMARK  Name = ZINC04615912
REMARK  3 active torsions:
REMARK  status: ('A' for Active; 'I' for Inactive)
REMARK    1  A    between atoms: C_1  and  C_2
REMARK    2  A    between atoms: C_5  and  N_8
REMARK    3  A    between atoms: C_11  and  C_28
REMARK                            x       y       z     vdW  Elec       q    Type
REMARK                         _______ _______ _______ _____ _____    ______ ____
ROOT
ATOM      1  N   UNL     1      -2.150   1.572   1.079  0.00  0.00    -0.209 N 
ATOM      2  C   UNL     1      -1.119   2.300   0.612  0.00  0.00    +0.230 C 
ATOM      3  O   UNL     1      -0.903   3.411   1.020  0.00  0.00    -0.275 OA
ATOM      4  C   UNL     1      -0.244   1.675  -0.443  0.00  0.00    +0.082 C 
ATOM      5  C   UNL     1      -1.131   0.965  -1.456  0.00  0.00    +0.057 C 
ATOM      6  C   UNL     1      -2.170   1.834  -2.100  0.00  0.00    +0.000 A 
ATOM      7  C   UNL     1      -1.820   3.033  -2.701  0.00  0.00    +0.007 A 
ATOM      8  C   UNL     1      -2.775   3.884  -3.225  0.00  0.00    +0.001 A 
ATOM      9  C   UNL     1      -4.108   3.525  -3.212  0.00  0.00    +0.004 A 
ATOM     10  C   UNL     1      -4.465   2.293  -2.708  0.00  0.00    +0.046 A 
ATOM     11  C   UNL     1      -3.501   1.441  -2.179  0.00  0.00    +0.135 A 
ATOM     12  O   UNL     1      -3.921   0.198  -1.808  0.00  0.00    -0.425 OA
ATOM     13  C   UNL     1      -2.936  -0.696  -1.574  0.00  0.00    +0.325 C 
ATOM     14  O   UNL     1      -2.944  -1.807  -2.033  0.00  0.00    -0.250 OA
ATOM     15  C   UNL     1      -1.820  -0.179  -0.685  0.00  0.00    +0.193 C 
ATOM     16  C   UNL     1      -2.459   0.377   0.562  0.00  0.00    +0.241 C 
ATOM     17  O   UNL     1      -3.297  -0.295   1.128  0.00  0.00    -0.274 OA
ATOM     18  C   UNL     1       0.723   2.670  -1.044  0.00  0.00    +0.018 C 
ENDROOT
BRANCH   1  23
ATOM     19  C   UNL     1      -5.257   3.640   5.356  0.00  0.00    +0.044 C 
ATOM     20  C   UNL     1      -4.432   3.091   4.221  0.00  0.00    -0.050 A 
ATOM     21  C   UNL     1      -3.369   2.247   4.485  0.00  0.00    +0.005 A 
ATOM     22  C   UNL     1      -2.611   1.742   3.446  0.00  0.00    +0.024 A 
ATOM     23  C   UNL     1      -2.918   2.083   2.136  0.00  0.00    +0.044 A 
ATOM     24  C   UNL     1      -3.982   2.935   1.874  0.00  0.00    +0.024 A 
ATOM     25  C   UNL     1      -4.739   3.432   2.916  0.00  0.00    +0.005 A 
ENDBRANCH   1  23
TORSDOF 1
