REMARK  Name = ZINC62778768
REMARK  5 active torsions:
REMARK  status: ('A' for Active; 'I' for Inactive)
REMARK    1  A    between atoms: C_1  and  C_2
REMARK    2  A    between atoms: C_2  and  C_20
REMARK    3  A    between atoms: C_6  and  C_11
REMARK    4  A    between atoms: C_11  and  C_13
REMARK    5  A    between atoms: C_11  and  O_19
REMARK                            x       y       z     vdW  Elec       q    Type
REMARK                         _______ _______ _______ _____ _____    ______ ____
ROOT
ATOM      1  C   UNL     1      -0.019   1.526   0.010  0.00  0.00    +0.056 C 
ATOM      2  C   UNL     1       0.002  -0.004   0.002  0.00  0.00    +0.109 C 
ATOM      3  C   UNL     1       0.832  -0.534  -1.191  0.00  0.00    +0.086 C 
ATOM      4  C   UNL     1       2.204  -0.704  -0.568  0.00  0.00    -0.002 A 
ATOM      5  C   UNL     1       3.455  -0.875  -1.119  0.00  0.00    +0.013 A 
ATOM      6  C   UNL     1       4.561  -1.000  -0.297  0.00  0.00    -0.014 A 
ATOM      7  C   UNL     1       4.404  -0.952   1.076  0.00  0.00    +0.010 A 
ATOM      8  C   UNL     1       3.152  -0.784   1.629  0.00  0.00    +0.046 A 
ATOM      9  C   UNL     1       2.033  -0.662   0.809  0.00  0.00    +0.125 A 
ATOM     10  O   UNL     1       0.721  -0.510   1.139  0.00  0.00    -0.486 OA
ATOM     11  C   UNL     1      -1.422  -0.563  -0.031  0.00  0.00    +0.056 C 
ENDROOT
BRANCH   6  12
ATOM     12  C   UNL     1       5.931  -1.187  -0.897  0.00  0.00    +0.178 C 
BRANCH  12  13
ATOM     13  C   UNL     1       6.663   0.130  -0.898  0.00  0.00    +0.022 A 
ATOM     14  C   UNL     1       6.719   1.008  -1.926  0.00  0.00    +0.111 A 
ATOM     15  N   UNL     1       7.469   2.058  -1.530  0.00  0.00    -0.284 N 
ATOM     16  H   UNL     1       7.681   2.841  -2.062  0.00  0.00    +0.188 HD
ATOM     17  N   UNL     1       7.888   1.816  -0.216  0.00  0.00    -0.182 NA
ATOM     18  C   UNL     1       7.400   0.663   0.164  0.00  0.00    +0.140 A 
ENDBRANCH  12  13
BRANCH  12  19
ATOM     19  O   UNL     1       6.663  -2.138  -0.122  0.00  0.00    -0.382 OA
ATOM     20  H   UNL     1       6.789  -1.880   0.802  0.00  0.00    +0.211 HD
ENDBRANCH  12  19
ENDBRANCH   6  12
TORSDOF 3
