REMARK  Name = ZINC51732536
REMARK  4 active torsions:
REMARK  status: ('A' for Active; 'I' for Inactive)
REMARK    1  A    between atoms: C_1  and  C_2
REMARK    2  A    between atoms: N_6  and  S_11
REMARK    3  A    between atoms: C_7  and  C_10
REMARK    4  A    between atoms: S_11  and  C_14
REMARK                            x       y       z     vdW  Elec       q    Type
REMARK                         _______ _______ _______ _____ _____    ______ ____
ROOT
ATOM      1  S   UNL     1      -0.971  -4.204   1.662  0.00  0.00    +0.080 S 
ATOM      2  O   UNL     1      -0.223  -4.043   2.859  0.00  0.00    -0.151 OA
ATOM      3  O   UNL     1      -2.383  -4.368   1.661  0.00  0.00    -0.151 OA
ENDROOT
BRANCH   1   4
ATOM      4  C   UNL     1      -0.301  -5.608   0.834  0.00  0.00    +0.218 A 
ATOM      5  C   UNL     1      -0.846  -6.243  -0.218  0.00  0.00    +0.176 A 
ATOM      6  N   UNL     1      -0.040  -7.260  -0.562  0.00  0.00    -0.208 NA
ATOM      7  C   UNL     1       0.985  -7.278   0.241  0.00  0.00    +0.180 A 
ATOM      8  N   UNL     1       0.891  -6.256   1.149  0.00  0.00    -0.276 N 
ATOM      9  C   UNL     1       1.913  -6.142   2.067  0.00  0.00    +0.102 A 
ATOM     10  C   UNL     1       2.938  -6.992   2.056  0.00  0.00    +0.067 A 
ATOM     11  S   UNL     1       2.511  -8.068   0.696  0.00  0.00    -0.058 S 
ATOM     12 CL   UNL     1      -2.337  -5.820  -1.000  0.00  0.00    -0.058 Cl
ENDBRANCH   1   4
BRANCH   1  17
ATOM     13  C   UNL     1      -0.644   1.352   0.284  0.00  0.00    +0.007 C 
ATOM     14  C   UNL     1      -0.478  -0.146   0.019  0.00  0.00    -0.011 C 
ATOM     15  C   UNL     1      -1.840  -0.836   0.126  0.00  0.00    +0.020 C 
ATOM     16  C   UNL     1      -1.676  -2.329  -0.174  0.00  0.00    +0.110 C 
ATOM     17  N   UNL     1      -0.648  -2.881   0.720  0.00  0.00    -0.172 NA
ATOM     18  C   UNL     1       0.671  -2.235   0.763  0.00  0.00    +0.077 C 
ATOM     19  C   UNL     1       0.480  -0.743   1.052  0.00  0.00    +0.023 C 
ATOM     20  C   UNL     1       1.517  -2.871   1.869  0.00  0.00    +0.026 C 
ENDBRANCH   1  17
TORSDOF 2
