REMARK  Name = ZINC09949370
REMARK  4 active torsions:
REMARK  status: ('A' for Active; 'I' for Inactive)
REMARK    1  A    between atoms: C_9  and  C_12
REMARK    2  A    between atoms: C_20  and  C_22
REMARK    3  A    between atoms: C_22  and  C_23
REMARK    4  A    between atoms: C_23  and  N_24
REMARK                            x       y       z     vdW  Elec       q    Type
REMARK                         _______ _______ _______ _____ _____    ______ ____
ROOT
ATOM      1  C   UNL     1       1.667  -3.367   5.214  0.00  0.00    +0.002 A 
ATOM      2  C   UNL     1       1.748  -4.236   6.286  0.00  0.00    +0.004 A 
ATOM      3  C   UNL     1       2.462  -5.415   6.176  0.00  0.00    +0.047 A 
ATOM      4  C   UNL     1       3.101  -5.730   4.986  0.00  0.00    +0.143 A 
ATOM      5  C   UNL     1       3.016  -4.854   3.908  0.00  0.00    +0.078 A 
ATOM      6  C   UNL     1       2.300  -3.674   4.024  0.00  0.00    +0.027 A 
ATOM      7  N   UNL     1       3.660  -5.172   2.699  0.00  0.00    -0.264 N 
ATOM      8  C   UNL     1       4.644  -6.268   2.716  0.00  0.00    +0.168 C 
ATOM      9  C   UNL     1       4.072  -7.397   3.579  0.00  0.00    +0.276 C 
ATOM     10  O   UNL     1       3.805  -6.889   4.888  0.00  0.00    -0.476 OA
ATOM     11  C   UNL     1       3.382  -4.501   1.564  0.00  0.00    +0.222 C 
ATOM     12  O   UNL     1       2.623  -3.555   1.588  0.00  0.00    -0.275 OA
ENDROOT
BRANCH   9  13
ATOM     13  C   UNL     1       5.069  -8.524   3.668  0.00  0.00    +0.258 C 
ATOM     14  O   UNL     1       5.614  -8.769   4.723  0.00  0.00    -0.271 OA
ATOM     15  N   UNL     1       5.354  -9.260   2.575  0.00  0.00    -0.298 N 
ATOM     16  C   UNL     1       4.628  -9.043   1.317  0.00  0.00    +0.108 C 
ATOM     17  C   UNL     1       5.652  -8.802   0.197  0.00  0.00    +0.019 C 
ATOM     18  C   UNL     1       6.641  -9.969   0.159  0.00  0.00    +0.003 C 
ATOM     19  C   UNL     1       7.392 -10.048   1.490  0.00  0.00    +0.019 C 
ATOM     20  C   UNL     1       6.391 -10.299   2.622  0.00  0.00    +0.108 C 
ENDBRANCH   9  13
BRANCH  11  21
ATOM     21  C   UNL     1       4.014  -4.926   0.263  0.00  0.00    +0.118 C 
BRANCH  21  22
ATOM     22  C   UNL     1       3.443  -4.086  -0.880  0.00  0.00    +0.138 C 
BRANCH  22  23
ATOM     23  N   UNL     1       4.057  -4.500  -2.144  0.00  0.00    -0.274 N 
ATOM     24  C   UNL     1       3.586  -5.491  -3.006  0.00  0.00    +0.090 A 
ATOM     25  C   UNL     1       2.491  -6.340  -2.970  0.00  0.00    +0.031 A 
ATOM     26  C   UNL     1       2.286  -7.239  -3.998  0.00  0.00    +0.022 A 
ATOM     27  C   UNL     1       3.171  -7.294  -5.063  0.00  0.00    +0.045 A 
ATOM     28  C   UNL     1       4.265  -6.450  -5.104  0.00  0.00    +0.068 A 
ATOM     29  C   UNL     1       4.478  -5.545  -4.076  0.00  0.00    +0.158 A 
ATOM     30  O   UNL     1       5.438  -4.615  -3.848  0.00  0.00    -0.407 OA
ATOM     31  C   UNL     1       5.181  -3.991  -2.688  0.00  0.00    +0.421 A 
ATOM     32  O   UNL     1       5.857  -3.104  -2.203  0.00  0.00    -0.223 OA
ATOM     33 CL   UNL     1       2.904  -8.427  -6.351  0.00  0.00    -0.083 Cl
ENDBRANCH  22  23
ENDBRANCH  21  22
ENDBRANCH  11  21
TORSDOF 4
