REMARK  Name = ZINC04885169
REMARK  10 active torsions:
REMARK  status: ('A' for Active; 'I' for Inactive)
REMARK    1  A    between atoms: C_1  and  C_2
REMARK    2  A    between atoms: C_2  and  N_3
REMARK    3  A    between atoms: C_8  and  C_27
REMARK    4  A    between atoms: C_10  and  C_15
REMARK    5  A    between atoms: C_10  and  C_23
REMARK    6  A    between atoms: C_15  and  C_16
REMARK    7  A    between atoms: C_19  and  O_22
REMARK    8  A    between atoms: C_23  and  O_25
REMARK    9  A    between atoms: O_25  and  C_26
REMARK   10  A    between atoms: C_32  and  C_33
REMARK                            x       y       z     vdW  Elec       q    Type
REMARK                         _______ _______ _______ _____ _____    ______ ____
ROOT
ATOM      1  N   UNL     1      -2.606   0.320   2.214  0.00  0.00    -0.242 N 
ATOM      2  C   UNL     1      -3.439   1.141   1.502  0.00  0.00    +0.224 C 
ATOM      3  O   UNL     1      -3.123   2.068   0.787  0.00  0.00    -0.275 OA
ATOM      4  C   UNL     1      -4.806   0.657   1.786  0.00  0.00    +0.077 C 
ATOM      5  C   UNL     1      -5.959   0.565   0.816  0.00  0.00    -0.026 C 
ATOM      6  C   UNL     1      -5.816  -1.457   2.129  0.00  0.00    +0.048 C 
ATOM      7  C   UNL     1      -4.470  -0.885   1.869  0.00  0.00    +0.086 C 
ATOM      8  C   UNL     1      -3.235  -0.821   2.647  0.00  0.00    +0.225 C 
ATOM      9  O   UNL     1      -2.849  -1.604   3.488  0.00  0.00    -0.275 OA
ATOM     10  N   UNL     1      -6.744  -0.578   1.373  0.00  0.00    +0.396 N 
ATOM     11  H   UNL     1      -7.176  -1.108   0.607  0.00  0.00    -0.083 HD
ATOM     12  H   UNL     1      -7.475  -0.224   2.000  0.00  0.00    -0.083 HD
ENDROOT
BRANCH   5  13
ATOM     13  C   UNL     1      -6.769   1.836   0.825  0.00  0.00    -0.058 A 
ATOM     14  C   UNL     1      -6.607   2.752   1.848  0.00  0.00    +0.002 A 
ATOM     15  C   UNL     1      -7.346   3.919   1.854  0.00  0.00    +0.000 A 
ATOM     16  C   UNL     1      -8.254   4.168   0.841  0.00  0.00    +0.000 A 
ATOM     17  C   UNL     1      -8.420   3.250  -0.179  0.00  0.00    +0.003 A 
ATOM     18  C   UNL     1      -7.677   2.084  -0.187  0.00  0.00    -0.049 A 
ATOM     19  C   UNL     1      -7.857   1.083  -1.300  0.00  0.00    +0.044 C 
ENDBRANCH   5  13
BRANCH   1  21
ATOM     20  C   UNL     1      -0.325   0.061   1.370  0.00  0.00    +0.025 C 
ATOM     21  C   UNL     1      -1.200   0.628   2.490  0.00  0.00    +0.113 C 
ENDBRANCH   1  21
BRANCH   6  22
ATOM     22  C   UNL     1      -5.889  -2.877   1.629  0.00  0.00    +0.297 C 
ATOM     23  O   UNL     1      -4.881  -3.535   1.528  0.00  0.00    -0.252 OA
BRANCH  22  24
ATOM     24  O   UNL     1      -7.075  -3.410   1.295  0.00  0.00    -0.469 OA
ATOM     25  C   UNL     1      -7.070  -4.783   0.821  0.00  0.00    +0.280 C 
ENDBRANCH  22  24
ENDBRANCH   6  22
BRANCH   6  26
ATOM     26  C   UNL     1      -6.141  -1.399   3.623  0.00  0.00    +0.034 C 
BRANCH  26  27
ATOM     27  C   UNL     1      -7.509  -1.983   3.862  0.00  0.00    -0.048 A 
ATOM     28  C   UNL     1      -8.624  -1.167   3.829  0.00  0.00    +0.007 A 
ATOM     29  C   UNL     1      -9.880  -1.701   4.042  0.00  0.00    +0.045 A 
ATOM     30  C   UNL     1     -10.021  -3.057   4.302  0.00  0.00    +0.117 A 
ATOM     31  C   UNL     1      -8.900  -3.873   4.341  0.00  0.00    +0.045 A 
ATOM     32  C   UNL     1      -7.647  -3.335   4.121  0.00  0.00    +0.007 A 
BRANCH  30  33
ATOM     33  O   UNL     1     -11.255  -3.584   4.519  0.00  0.00    -0.507 OA
ATOM     34  H   UNL     1     -11.527  -3.579   5.447  0.00  0.00    +0.292 HD
ENDBRANCH  30  33
ENDBRANCH  26  27
ENDBRANCH   6  26
TORSDOF 7
