REMARK  Name = ZINC66786097
REMARK  5 active torsions:
REMARK  status: ('A' for Active; 'I' for Inactive)
REMARK    1  A    between atoms: C_1  and  C_2
REMARK    2  A    between atoms: C_12  and  C_14
REMARK    3  A    between atoms: C_16  and  N_24
REMARK    4  A    between atoms: C_18  and  S_20
REMARK    5  A    between atoms: S_20  and  C_23
REMARK                            x       y       z     vdW  Elec       q    Type
REMARK                         _______ _______ _______ _____ _____    ______ ____
ROOT
ATOM      1  C   UNL     1       1.754   1.753   0.339  0.00  0.00    +0.046 C 
ATOM      2  C   UNL     1       2.235   0.330   0.462  0.00  0.00    -0.026 A 
ATOM      3  C   UNL     1       3.207  -0.146  -0.396  0.00  0.00    +0.043 A 
ATOM      4  C   UNL     1       3.647  -1.454  -0.281  0.00  0.00    +0.124 A 
ATOM      5  C   UNL     1       3.114  -2.283   0.689  0.00  0.00    +0.043 A 
ATOM      6  C   UNL     1       2.139  -1.811   1.552  0.00  0.00    -0.023 A 
ATOM      7  C   UNL     1       1.704  -0.499   1.442  0.00  0.00    +0.043 A 
ATOM      8  N   UNL     1       0.729   0.009   2.312  0.00  0.00    -0.267 N 
ATOM      9  C   UNL     1      -0.040  -0.929   3.142  0.00  0.00    +0.114 C 
ATOM     10  C   UNL     1       0.946  -1.942   3.739  0.00  0.00    +0.024 C 
ATOM     11  C   UNL     1       1.576  -2.742   2.594  0.00  0.00    +0.038 C 
ATOM     12  C   UNL     1       0.500   1.335   2.385  0.00  0.00    +0.251 C 
ATOM     13  O   UNL     1       0.106   1.938   1.406  0.00  0.00    -0.270 OA
ATOM     14  F   UNL     1       4.599  -1.921  -1.119  0.00  0.00    -0.205 F 
ENDROOT
BRANCH  12  15
ATOM     15  C   UNL     1       0.728   2.056   3.655  0.00  0.00    +0.041 A 
ATOM     16  C   UNL     1       0.787   1.352   4.859  0.00  0.00    +0.046 A 
ATOM     17  C   UNL     1       1.001   2.031   6.041  0.00  0.00    +0.129 A 
ATOM     18  C   UNL     1       1.156   3.406   6.035  0.00  0.00    +0.059 A 
ATOM     19  C   UNL     1       1.099   4.109   4.845  0.00  0.00    +0.091 A 
ATOM     20  C   UNL     1       0.891   3.442   3.655  0.00  0.00    +0.040 A 
BRANCH  19  21
ATOM     21  S   UNL     1       1.298   5.860   4.848  0.00  0.00    -0.006 S 
ATOM     22  O   UNL     1       0.604   6.305   3.690  0.00  0.00    -0.170 OA
ATOM     23  O   UNL     1       0.883   6.269   6.143  0.00  0.00    -0.170 OA
ATOM     24  C   UNL     1       3.081   6.127   4.649  0.00  0.00    +0.200 C 
ENDBRANCH  19  21
BRANCH  17  25
ATOM     25  N   UNL     1       1.063   1.286   7.319  0.00  0.00    +0.057 N 
ATOM     26  O   UNL     1       0.927   0.085   7.326  0.00  0.00    -0.126 OA
ATOM     27  O   UNL     1       1.250   1.880   8.355  0.00  0.00    -0.126 OA
ENDBRANCH  17  25
ENDBRANCH  12  15
TORSDOF 3
