REMARK  Name = ZINC20026607
REMARK  7 active torsions:
REMARK  status: ('A' for Active; 'I' for Inactive)
REMARK    1  A    between atoms: C_1  and  C_2
REMARK    2  A    between atoms: C_5  and  C_7
REMARK    3  A    between atoms: N_12  and  C_26
REMARK    4  A    between atoms: C_16  and  C_24
REMARK    5  A    between atoms: C_17  and  N_23
REMARK    6  A    between atoms: C_18  and  C_19
REMARK    7  A    between atoms: C_18  and  C_21
REMARK                            x       y       z     vdW  Elec       q    Type
REMARK                         _______ _______ _______ _____ _____    ______ ____
ROOT
ATOM      1  C   UNL     1       0.002   4.259   0.455  0.00  0.00    +0.074 C 
ATOM      2  C   UNL     1       1.163   3.657  -0.338  0.00  0.00    +0.045 C 
ATOM      3  C   UNL     1       2.453   4.416  -0.124  0.00  0.00    +0.093 C 
ATOM      4  N   UNL     1       3.340   3.740   0.826  0.00  0.00    -0.301 NA
ATOM      5  C   UNL     1       3.672   2.389   0.339  0.00  0.00    +0.111 C 
ATOM      6  C   UNL     1       2.391   1.594   0.288  0.00  0.00    -0.007 C 
ATOM      7  C   UNL     1       1.252   2.197   0.002  0.00  0.00    -0.026 C 
ATOM      8  C   UNL     1      -0.017   1.428   0.010  0.00  0.00    +0.074 C 
ATOM      9  C   UNL     1      -1.197   2.099   0.019  0.00  0.00    +0.054 C 
ATOM     10  C   UNL     1      -1.300   3.594   0.007  0.00  0.00    +0.189 C 
ATOM     11  C   UNL     1       4.556   4.529   1.064  0.00  0.00    +0.105 C 
ENDROOT
BRANCH   1  16
ATOM     12  C   UNL     1      -0.406   9.571  -1.471  0.00  0.00    +0.051 C 
ATOM     13  C   UNL     1      -0.266   8.271  -0.723  0.00  0.00    -0.013 A 
ATOM     14  C   UNL     1      -0.070   8.065   0.602  0.00  0.00    +0.011 A 
ATOM     15  C   UNL     1       0.030   6.769   1.072  0.00  0.00    +0.012 A 
ATOM     16  C   UNL     1      -0.072   5.742   0.194  0.00  0.00    -0.003 A 
ATOM     17  S   UNL     1      -0.310   6.601  -1.353  0.00  0.00    -0.098 S 
ENDBRANCH   1  16
BRANCH   9  18
ATOM     18  N   UNL     1      -2.354   1.373   0.046  0.00  0.00    -0.358 N 
ATOM     19  H   UNL     1      -3.327   1.887   0.054  0.00  0.00    +0.142 HD
ATOM     20  H   UNL     1      -2.313   0.273   0.060  0.00  0.00    +0.142 HD
ENDBRANCH   9  18
BRANCH  10  21
ATOM     21  C   UNL     1      -2.386   4.011   0.909  0.00  0.00    +0.091 C 
ATOM     22  N   UNL     1      -3.224   4.332   1.605  0.00  0.00    -0.194 NA
ENDBRANCH  10  21
BRANCH  10  23
ATOM     23  C   UNL     1      -1.619   4.037  -1.360  0.00  0.00    +0.091 C 
ATOM     24  N   UNL     1      -1.865   4.379  -2.416  0.00  0.00    -0.194 NA
ENDBRANCH  10  23
BRANCH   8  25
ATOM     25  C   UNL     1       0.002  -0.004   0.002  0.00  0.00    +0.101 C 
ATOM     26  N   UNL     1       0.018  -1.140  -0.004  0.00  0.00    -0.191 NA
ENDBRANCH   8  25
TORSDOF 5
