REMARK  Name = ZINC43632305
REMARK  11 active torsions:
REMARK  status: ('A' for Active; 'I' for Inactive)
REMARK    1  A    between atoms: C_1  and  C_2
REMARK    2  A    between atoms: C_2  and  C_36
REMARK    3  A    between atoms: C_7  and  C_11
REMARK    4  A    between atoms: C_11  and  N_12
REMARK    5  A    between atoms: N_20  and  C_28
REMARK    6  A    between atoms: N_23  and  C_24
REMARK    7  A    between atoms: C_24  and  C_25
REMARK    8  A    between atoms: C_25  and  O_26
REMARK    9  A    between atoms: O_26  and  C_27
REMARK   10  A    between atoms: C_28  and  C_29
REMARK   11  A    between atoms: C_29  and  C_30
REMARK                            x       y       z     vdW  Elec       q    Type
REMARK                         _______ _______ _______ _____ _____    ______ ____
ROOT
ATOM      1  N   UNL     1       0.881  -3.143   3.507  0.00  0.00    +0.382 N 
ATOM      2  C   UNL     1       1.776  -3.960   2.678  0.00  0.00    -0.076 C 
ATOM      3  C   UNL     1       3.131  -4.103   3.376  0.00  0.00    +0.017 C 
ATOM      4  C   UNL     1       2.930  -4.757   4.739  0.00  0.00    +0.112 C 
ATOM      5  C   UNL     1       1.925  -3.962   5.567  0.00  0.00    +0.017 C 
ATOM      6  C   UNL     1       0.619  -3.824   4.781  0.00  0.00    -0.076 C 
ATOM      7  C   UNL     1       4.247  -4.871   5.471  0.00  0.00    +0.247 C 
ATOM      8  O   UNL     1       4.976  -3.966   5.815  0.00  0.00    -0.273 OA
ATOM      9  N   UNL     1       4.439  -6.193   5.662  0.00  0.00    -0.224 N 
ATOM     10  C   UNL     1       3.432  -6.916   5.155  0.00  0.00    +0.312 C 
ATOM     11  O   UNL     1       3.379  -8.129   5.204  0.00  0.00    -0.252 OA
ATOM     12  N   UNL     1       2.485  -6.147   4.584  0.00  0.00    -0.269 N 
ATOM     13  H   UNL     1       1.315  -2.251   3.688  0.00  0.00    -0.081 HD
ENDROOT
BRANCH   1  14
ATOM     14  C   UNL     1      -0.387  -2.933   2.796  0.00  0.00    -0.047 C 
BRANCH  14  20
ATOM     15  C   UNL     1      -1.105   1.512   0.517  0.00  0.00    +0.012 C 
ATOM     16  C   UNL     1      -0.873   0.004   0.412  0.00  0.00    -0.025 C 
ATOM     17  C   UNL     1       0.348  -0.382  -0.447  0.00  0.00    -0.000 C 
ATOM     18  C   UNL     1       0.291  -1.865  -0.842  0.00  0.00    +0.031 C 
ATOM     19  C   UNL     1       0.050  -2.709   0.385  0.00  0.00    -0.029 C 
ATOM     20  C   UNL     1      -0.136  -2.127   1.548  0.00  0.00    -0.086 C 
ATOM     21  C   UNL     1      -0.077  -0.589   1.590  0.00  0.00    +0.019 C 
ATOM     22  C   UNL     1       1.179  -0.113   0.819  0.00  0.00    +0.012 C 
ATOM     23  C   UNL     1      -2.146  -0.775   0.070  0.00  0.00    +0.012 C 
ENDBRANCH  14  20
ENDBRANCH   1  14
BRANCH  12  24
ATOM     24  C   UNL     1       1.254  -6.608   3.937  0.00  0.00    +0.138 C 
BRANCH  24  25
ATOM     25  C   UNL     1       0.365  -7.305   4.968  0.00  0.00    +0.178 C 
BRANCH  25  26
ATOM     26  O   UNL     1      -0.032  -6.364   5.969  0.00  0.00    -0.381 OA
ATOM     27  C   UNL     1      -0.869  -6.916   6.986  0.00  0.00    +0.194 C 
ENDBRANCH  25  26
ENDBRANCH  24  25
ENDBRANCH  12  24
BRANCH   9  28
ATOM     28  C   UNL     1       5.604  -6.766   6.340  0.00  0.00    +0.122 C 
BRANCH  28  29
ATOM     29  C   UNL     1       5.316  -6.884   7.838  0.00  0.00    +0.054 C 
BRANCH  29  30
ATOM     30  C   UNL     1       6.515  -7.474   8.535  0.00  0.00    -0.046 A 
ATOM     31  C   UNL     1       6.627  -8.845   8.678  0.00  0.00    +0.004 A 
ATOM     32  C   UNL     1       7.726  -9.385   9.317  0.00  0.00    +0.000 A 
ATOM     33  C   UNL     1       8.715  -8.556   9.813  0.00  0.00    +0.000 A 
ATOM     34  C   UNL     1       8.604  -7.186   9.669  0.00  0.00    +0.000 A 
ATOM     35  C   UNL     1       7.506  -6.645   9.026  0.00  0.00    +0.004 A 
ENDBRANCH  29  30
ENDBRANCH  28  29
ENDBRANCH   9  28
TORSDOF 8
