REMARK  Name = ZINC20573644
REMARK  4 active torsions:
REMARK  status: ('A' for Active; 'I' for Inactive)
REMARK    1  A    between atoms: C_5  and  C_7
REMARK    2  A    between atoms: N_9  and  C_10
REMARK    3  A    between atoms: C_10  and  C_11
REMARK    4  A    between atoms: C_11  and  C_12
REMARK                            x       y       z     vdW  Elec       q    Type
REMARK                         _______ _______ _______ _____ _____    ______ ____
ROOT
ATOM      1  C   UNL     1      -1.282  -6.364  -0.020  0.00  0.00    +0.217 C 
ATOM      2  O   UNL     1      -0.221  -6.950  -0.035  0.00  0.00    -0.276 OA
ATOM      3  N   UNL     1      -2.437  -7.059  -0.013  0.00  0.00    -0.301 N 
ATOM      4  C   UNL     1      -3.730  -6.362  -0.002  0.00  0.00    +0.110 C 
ATOM      5  C   UNL     1      -4.562  -6.887   1.173  0.00  0.00    +0.047 C 
ATOM      6  C   UNL     1      -4.667  -8.410   1.079  0.00  0.00    +0.064 C 
ATOM      7  C   UNL     1      -3.272  -9.030   1.159  0.00  0.00    +0.047 C 
ATOM      8  C   UNL     1      -2.425  -8.528  -0.021  0.00  0.00    +0.110 C 
ATOM      9  C   UNL     1      -5.521  -8.930   2.204  0.00  0.00    +0.057 A 
ATOM     10  C   UNL     1      -6.803  -9.332   2.048  0.00  0.00    +0.039 A 
ATOM     11  N   UNL     1      -7.258  -9.733   3.235  0.00  0.00    -0.349 N 
ATOM     12  C   UNL     1      -6.310  -9.595   4.126  0.00  0.00    +0.171 A 
ATOM     13  N   UNL     1      -5.209  -9.095   3.517  0.00  0.00    -0.348 N 
ATOM     14  H   UNL     1      -4.359  -8.892   3.938  0.00  0.00    +0.166 HD
ATOM     15  C   UNL     1      -7.520  -9.297   0.720  0.00  0.00    +0.070 C 
ATOM     16  C   UNL     1      -6.716  -8.394  -0.226  0.00  0.00    +0.088 C 
ATOM     17  N   UNL     1      -5.299  -8.781  -0.197  0.00  0.00    -0.305 NA
ATOM     18  H   UNL     1      -4.799  -8.383  -0.977  0.00  0.00    +0.123 HD
ATOM     19  H   UNL     1      -8.150 -10.072   3.410  0.00  0.00    +0.166 HD
ENDROOT
BRANCH   1  20
ATOM     20  C   UNL     1      -1.310  -4.857  -0.011  0.00  0.00    +0.114 C 
BRANCH  20  21
ATOM     21  C   UNL     1       0.123  -4.320  -0.023  0.00  0.00    +0.113 C 
BRANCH  21  24
ATOM     22  C   UNL     1       1.250  -2.160  -0.022  0.00  0.00    +0.247 C 
ATOM     23  O   UNL     1       2.314  -2.748  -0.036  0.00  0.00    -0.270 OA
ATOM     24  N   UNL     1       0.095  -2.855  -0.014  0.00  0.00    -0.311 N 
ATOM     25  H   UNL     1      -0.753  -2.386  -0.003  0.00  0.00    +0.149 HD
BRANCH  22  30
ATOM     26  C   UNL     1      -0.017   1.374   0.010  0.00  0.00    +0.001 A 
ATOM     27  C   UNL     1       1.170   2.087   0.002  0.00  0.00    +0.003 A 
ATOM     28  C   UNL     1       2.383   1.425  -0.013  0.00  0.00    +0.039 A 
ATOM     29  C   UNL     1       2.418   0.042  -0.021  0.00  0.00    +0.135 A 
ATOM     30  C   UNL     1       1.222  -0.683  -0.013  0.00  0.00    +0.072 A 
ATOM     31  C   UNL     1       0.002  -0.004   0.002  0.00  0.00    +0.016 A 
ATOM     32  F   UNL     1       3.603  -0.606  -0.037  0.00  0.00    -0.205 F 
ENDBRANCH  22  30
ENDBRANCH  21  24
ENDBRANCH  20  21
ENDBRANCH   1  20
TORSDOF 4
