REMARK  Name = ZINC48731025
REMARK  6 active torsions:
REMARK  status: ('A' for Active; 'I' for Inactive)
REMARK    1  A    between atoms: C_10  and  N_11
REMARK    2  A    between atoms: C_12  and  C_14
REMARK    3  A    between atoms: N_16  and  C_17
REMARK    4  A    between atoms: C_17  and  C_18
REMARK    5  A    between atoms: C_18  and  C_20
REMARK    6  A    between atoms: C_18  and  N_25
REMARK                            x       y       z     vdW  Elec       q    Type
REMARK                         _______ _______ _______ _____ _____    ______ ____
ROOT
ATOM      1  C   UNL     1       7.308   0.168   0.253  0.00  0.00    +0.299 C 
ATOM      2  O   UNL     1       7.273   1.379   0.183  0.00  0.00    -0.265 OA
ATOM      3  N   UNL     1       8.493  -0.468   0.330  0.00  0.00    -0.309 N 
ATOM      4  H   UNL     1       8.522  -1.436   0.386  0.00  0.00    +0.149 HD
ENDROOT
BRANCH   1   6
ATOM      5  N   UNL     1       4.852   0.020   0.177  0.00  0.00    -0.277 N 
ATOM      6  C   UNL     1       6.038  -0.617   0.254  0.00  0.00    +0.303 C 
ATOM      7  O   UNL     1       6.073  -1.828   0.324  0.00  0.00    -0.265 OA
ATOM      8  H   UNL     1       4.825   0.980   0.043  0.00  0.00    +0.155 HD
BRANCH   5  18
ATOM      9  C   UNL     1       0.103   0.732  -1.372  0.00  0.00    +0.001 A 
ATOM     10  C   UNL     1       1.278   1.470  -1.497  0.00  0.00    +0.001 A 
ATOM     11  C   UNL     1       2.447   1.020  -0.963  0.00  0.00    +0.010 A 
ATOM     12  C   UNL     1       2.472  -0.204  -0.276  0.00  0.00    +0.003 A 
ATOM     13  C   UNL     1       1.278  -0.955  -0.149  0.00  0.00    -0.016 A 
ATOM     14  C   UNL     1       0.090  -0.459  -0.714  0.00  0.00    +0.008 A 
ATOM     15  C   UNL     1       1.301  -2.180   0.538  0.00  0.00    +0.008 A 
ATOM     16  C   UNL     1       2.466  -2.637   1.076  0.00  0.00    +0.002 A 
ATOM     17  C   UNL     1       3.645  -1.908   0.959  0.00  0.00    +0.024 A 
ATOM     18  C   UNL     1       3.665  -0.702   0.291  0.00  0.00    +0.042 A 
ENDBRANCH   5  18
ENDBRANCH   1   6
BRANCH   3  19
ATOM     19  C   UNL     1       9.740   0.302   0.328  0.00  0.00    +0.097 C 
BRANCH  19  20
ATOM     20  C   UNL     1      10.932  -0.657   0.297  0.00  0.00    +0.016 C 
BRANCH  20  21
ATOM     21  N   UNL     1      10.833  -1.597   1.422  0.00  0.00    +0.387 N 
ATOM     22  C   UNL     1      10.724  -0.845   2.678  0.00  0.00    -0.078 C 
ATOM     23  C   UNL     1      10.540  -1.818   3.845  0.00  0.00    -0.019 C 
ATOM     24  C   UNL     1      11.747  -2.758   3.914  0.00  0.00    -0.004 C 
ATOM     25  C   UNL     1      11.895  -3.482   2.572  0.00  0.00    -0.019 C 
ATOM     26  C   UNL     1      12.029  -2.447   1.453  0.00  0.00    -0.078 C 
ATOM     27  H   UNL     1      10.014  -2.174   1.306  0.00  0.00    -0.081 HD
ENDBRANCH  20  21
BRANCH  20  28
ATOM     28  C   UNL     1      10.926  -1.423  -1.000  0.00  0.00    +0.093 A 
ATOM     29  C   UNL     1      11.687  -1.154  -2.076  0.00  0.00    +0.043 A 
ATOM     30  C   UNL     1      11.361  -2.116  -3.059  0.00  0.00    +0.041 A 
ATOM     31  C   UNL     1      10.420  -2.916  -2.526  0.00  0.00    +0.195 A 
ATOM     32  O   UNL     1      10.165  -2.495  -1.276  0.00  0.00    -0.469 OA
ENDBRANCH  20  28
ENDBRANCH  19  20
ENDBRANCH   3  19
TORSDOF 6
