REMARK  Name = ZINC22701443
REMARK  6 active torsions:
REMARK  status: ('A' for Active; 'I' for Inactive)
REMARK    1  A    between atoms: C_1  and  C_2
REMARK    2  A    between atoms: C_3  and  C_15
REMARK    3  A    between atoms: N_5  and  C_7
REMARK    4  A    between atoms: N_17  and  C_18
REMARK    5  A    between atoms: C_20  and  C_23
REMARK    6  A    between atoms: C_23  and  N_24
REMARK                            x       y       z     vdW  Elec       q    Type
REMARK                         _______ _______ _______ _____ _____    ______ ____
ROOT
ATOM      1  C   UNL     1      -0.904   5.204   6.742  0.00  0.00    +0.284 C 
ATOM      2  O   UNL     1      -1.804   4.557   7.244  0.00  0.00    -0.265 OA
ATOM      3  N   UNL     1      -0.270   4.739   5.647  0.00  0.00    -0.182 NA
ENDROOT
BRANCH   1   6
ATOM      4  C   UNL     1       1.300   5.620   8.986  0.00  0.00    +0.068 C 
ATOM      5  C   UNL     1       0.472   6.695   8.330  0.00  0.00    +0.074 A 
ATOM      6  C   UNL     1      -0.507   6.494   7.331  0.00  0.00    +0.101 A 
ATOM      7  C   UNL     1      -1.019   7.737   7.006  0.00  0.00    +0.145 A 
ATOM      8  N   UNL     1      -0.389   8.644   7.775  0.00  0.00    -0.220 N 
ATOM      9  N   UNL     1       0.534   7.973   8.585  0.00  0.00    -0.169 NA
ATOM     10 CL   UNL     1      -2.250   8.066   5.827  0.00  0.00    -0.061 Cl
BRANCH   8  11
ATOM     11  C   UNL     1      -0.614  10.028   7.762  0.00  0.00    +0.067 A 
ATOM     12  C   UNL     1      -0.923  10.671   6.571  0.00  0.00    +0.030 A 
ATOM     13  C   UNL     1      -1.150  12.033   6.562  0.00  0.00    +0.040 A 
ATOM     14  C   UNL     1      -1.058  12.759   7.737  0.00  0.00    +0.124 A 
ATOM     15  C   UNL     1      -0.743  12.121   8.925  0.00  0.00    +0.040 A 
ATOM     16  C   UNL     1      -0.521  10.758   8.940  0.00  0.00    +0.030 A 
ATOM     17  F   UNL     1      -1.275  14.093   7.725  0.00  0.00    -0.205 F 
ENDBRANCH   8  11
ENDBRANCH   1   6
BRANCH   3  18
ATOM     18  C   UNL     1      -0.643   3.522   5.092  0.00  0.00    +0.196 A 
ATOM     19  N   UNL     1      -0.145   2.904   4.039  0.00  0.00    -0.228 NA
ATOM     20  C   UNL     1      -0.625   1.742   3.638  0.00  0.00    +0.034 A 
ATOM     21  C   UNL     1      -1.641   1.185   4.342  0.00  0.00    +0.070 A 
ATOM     22  S   UNL     1      -1.882   2.421   5.610  0.00  0.00    -0.056 S 
BRANCH  20  23
ATOM     23  C   UNL     1      -0.053   1.047   2.430  0.00  0.00    -0.022 C 
BRANCH  23  24
ATOM     24  N   UNL     1      -0.703   1.561   1.216  0.00  0.00    +0.386 N 
ATOM     25  C   UNL     1      -0.013   1.086   0.008  0.00  0.00    -0.050 C 
ATOM     26  C   UNL     1      -0.755   1.594  -1.231  0.00  0.00    +0.141 C 
ATOM     27  O   UNL     1      -0.837   3.021  -1.180  0.00  0.00    -0.383 OA
ATOM     28  C   UNL     1      -1.504   3.518  -0.017  0.00  0.00    +0.141 C 
ATOM     29  C   UNL     1      -0.769   3.029   1.235  0.00  0.00    -0.050 C 
ATOM     30  H   UNL     1      -1.732   1.173   1.198  0.00  0.00    -0.081 HD
ENDBRANCH  23  24
ENDBRANCH  20  23
ENDBRANCH   3  18
TORSDOF 5
