REMARK  Name = ZINC53121338
REMARK  8 active torsions:
REMARK  status: ('A' for Active; 'I' for Inactive)
REMARK    1  A    between atoms: C_1  and  C_2
REMARK    2  A    between atoms: C_9  and  C_12
REMARK    3  A    between atoms: C_10  and  C_11
REMARK    4  A    between atoms: N_14  and  C_15
REMARK    5  A    between atoms: C_17  and  S_23
REMARK    6  A    between atoms: C_19  and  C_22
REMARK    7  A    between atoms: C_20  and  C_21
REMARK    8  A    between atoms: S_23  and  N_26
REMARK                            x       y       z     vdW  Elec       q    Type
REMARK                         _______ _______ _______ _____ _____    ______ ____
ROOT
ATOM      1  C   UNL     1       0.062  -1.347   4.778  0.00  0.00    +0.284 C 
ATOM      2  O   UNL     1       0.090  -2.378   5.424  0.00  0.00    -0.266 OA
ATOM      3  N   UNL     1       0.054  -0.156   5.409  0.00  0.00    -0.279 N 
ATOM      4  H   UNL     1       0.113   0.665   4.896  0.00  0.00    +0.155 HD
ENDROOT
BRANCH   1  13
ATOM      5  C   UNL     1      -0.064   1.503   0.011  0.00  0.00    +0.047 C 
ATOM      6  C   UNL     1      -0.041  -0.004   0.003  0.00  0.00    -0.008 A 
ATOM      7  C   UNL     1      -0.046  -0.688  -1.194  0.00  0.00    +0.007 A 
ATOM      8  C   UNL     1      -0.025  -2.075  -1.218  0.00  0.00    +0.001 A 
ATOM      9  C   UNL     1       0.001  -2.788  -0.052  0.00  0.00    +0.012 A 
ATOM     10  C   UNL     1       0.006  -2.114   1.171  0.00  0.00    +0.024 A 
ATOM     11  C   UNL     1      -0.009  -0.707   1.201  0.00  0.00    +0.139 A 
ATOM     12  O   UNL     1       0.007  -0.327   2.494  0.00  0.00    -0.450 OA
ATOM     13  C   UNL     1       0.038  -1.401   3.310  0.00  0.00    +0.194 A 
ATOM     14  C   UNL     1       0.031  -2.540   2.570  0.00  0.00    +0.008 A 
ATOM     15  C   UNL     1       0.058  -3.956   3.085  0.00  0.00    +0.048 C 
ENDBRANCH   1  13
BRANCH   3  16
ATOM     16  C   UNL     1      -0.040  -0.104   6.803  0.00  0.00    +0.039 A 
ATOM     17  C   UNL     1      -0.624  -1.153   7.501  0.00  0.00    +0.052 A 
ATOM     18  C   UNL     1      -0.715  -1.099   8.878  0.00  0.00    +0.107 A 
ATOM     19  C   UNL     1      -0.225  -0.001   9.562  0.00  0.00    +0.032 A 
ATOM     20  C   UNL     1       0.357   1.045   8.870  0.00  0.00    -0.044 A 
ATOM     21  C   UNL     1       0.457   0.994   7.493  0.00  0.00    -0.026 A 
ATOM     22  C   UNL     1       1.098   2.131   6.740  0.00  0.00    +0.046 C 
ATOM     23  C   UNL     1       0.890   2.239   9.619  0.00  0.00    +0.044 C 
BRANCH  18  24
ATOM     24  S   UNL     1      -1.457  -2.428   9.764  0.00  0.00    +0.056 S 
ATOM     25  O   UNL     1      -1.911  -1.890  10.999  0.00  0.00    -0.153 OA
ATOM     26  O   UNL     1      -2.327  -3.088   8.854  0.00  0.00    -0.153 OA
BRANCH  24  27
ATOM     27  N   UNL     1      -0.253  -3.504  10.132  0.00  0.00    -0.204 NA
ATOM     28  H   UNL     1       0.659  -3.325   9.854  0.00  0.00    +0.144 HD
ATOM     29  H   UNL     1      -0.459  -4.314  10.624  0.00  0.00    +0.144 HD
ENDBRANCH  24  27
ENDBRANCH  18  24
ENDBRANCH   3  16
TORSDOF 4
