REMARK  Name = ZINC09996056
REMARK  6 active torsions:
REMARK  status: ('A' for Active; 'I' for Inactive)
REMARK    1  A    between atoms: C_1  and  C_2
REMARK    2  A    between atoms: C_15  and  C_17
REMARK    3  A    between atoms: C_17  and  N_18
REMARK    4  A    between atoms: N_18  and  C_19
REMARK    5  A    between atoms: N_18  and  S_20
REMARK    6  A    between atoms: S_20  and  C_23
REMARK                            x       y       z     vdW  Elec       q    Type
REMARK                         _______ _______ _______ _____ _____    ______ ____
ROOT
ATOM      1  C   UNL     1       5.306   8.122  -1.666  0.00  0.00    +0.029 C 
ATOM      2  C   UNL     1       5.693   7.096  -2.733  0.00  0.00    +0.087 C 
ATOM      3  C   UNL     1       5.803   7.793  -4.091  0.00  0.00    +0.118 C 
ATOM      4  C   UNL     1       5.788   6.774  -5.199  0.00  0.00    +0.219 C 
ATOM      5  O   UNL     1       6.819   6.496  -5.774  0.00  0.00    -0.275 OA
ATOM      6  N   UNL     1       4.635   6.167  -5.559  0.00  0.00    -0.284 N 
ATOM      7  C   UNL     1       3.453   6.410  -4.850  0.00  0.00    +0.055 A 
ATOM      8  C   UNL     1       2.278   6.725  -5.511  0.00  0.00    +0.025 A 
ATOM      9  C   UNL     1       1.116   6.929  -4.789  0.00  0.00    +0.002 A 
ATOM     10  C   UNL     1       1.124   6.817  -3.410  0.00  0.00    +0.002 A 
ATOM     11  C   UNL     1       2.297   6.514  -2.742  0.00  0.00    +0.025 A 
ATOM     12  C   UNL     1       3.471   6.320  -3.461  0.00  0.00    +0.058 A 
ATOM     13  N   UNL     1       4.672   6.049  -2.794  0.00  0.00    -0.265 N 
ATOM     14  C   UNL     1       4.886   4.846  -2.224  0.00  0.00    +0.236 C 
ATOM     15  O   UNL     1       5.933   4.623  -1.654  0.00  0.00    -0.274 OA
ATOM     16  H   UNL     1       4.627   5.559  -6.314  0.00  0.00    +0.155 HD
ENDROOT
BRANCH  14  17
ATOM     17  C   UNL     1       3.825   3.779  -2.296  0.00  0.00    +0.205 C 
BRANCH  17  18
ATOM     18  N   UNL     1       4.296   2.575  -1.607  0.00  0.00    -0.171 NA
ATOM     19  C   UNL     1       5.125   1.600  -2.320  0.00  0.00    +0.132 C 
BRANCH  18  20
ATOM     20  S   UNL     1       3.891   2.316  -0.023  0.00  0.00    +0.061 S 
ATOM     21  O   UNL     1       3.606   3.590   0.538  0.00  0.00    -0.153 OA
ATOM     22  O   UNL     1       4.883   1.452   0.514  0.00  0.00    -0.153 OA
BRANCH  20  23
ATOM     23  C   UNL     1       2.378   1.412  -0.013  0.00  0.00    +0.107 A 
ATOM     24  C   UNL     1       1.171   2.087   0.002  0.00  0.00    +0.030 A 
ATOM     25  C   UNL     1      -0.017   1.379   0.010  0.00  0.00    +0.023 A 
ATOM     26  C   UNL     1       0.002  -0.004   0.002  0.00  0.00    +0.059 A 
ATOM     27  C   UNL     1       1.211  -0.679  -0.013  0.00  0.00    +0.061 A 
ATOM     28  C   UNL     1       2.398   0.030  -0.021  0.00  0.00    +0.050 A 
ATOM     29 CL   UNL     1       1.236  -2.415  -0.022  0.00  0.00    -0.082 Cl
ATOM     30 CL   UNL     1      -1.489  -0.893   0.011  0.00  0.00    -0.082 Cl
ENDBRANCH  20  23
ENDBRANCH  18  20
ENDBRANCH  17  18
ENDBRANCH  14  17
TORSDOF 4
