REMARK  Name = ZINC66599988
REMARK  5 active torsions:
REMARK  status: ('A' for Active; 'I' for Inactive)
REMARK    1  A    between atoms: C_1  and  C_2
REMARK    2  A    between atoms: C_7  and  C_10
REMARK    3  A    between atoms: N_13  and  C_14
REMARK    4  A    between atoms: C_14  and  C_15
REMARK    5  A    between atoms: C_15  and  C_20
REMARK                            x       y       z     vdW  Elec       q    Type
REMARK                         _______ _______ _______ _____ _____    ______ ____
ROOT
ATOM      1  C   UNL     1      -0.018   1.526   0.007  0.00  0.00    +0.039 C 
ATOM      2  C   UNL     1       0.003  -0.004  -0.001  0.00  0.00    +0.133 C 
ATOM      3  C   UNL     1      -1.435  -0.536   0.014  0.00  0.00    +0.140 C 
ATOM      4  N   UNL     1      -1.388  -1.995   0.195  0.00  0.00    -0.281 N 
ATOM      5  C   UNL     1      -0.575  -2.530   1.299  0.00  0.00    +0.140 C 
ATOM      6  C   UNL     1       0.821  -1.901   1.221  0.00  0.00    +0.133 C 
ATOM      7  O   UNL     1       0.694  -0.479   1.157  0.00  0.00    -0.371 OA
ATOM      8  C   UNL     1       1.626  -2.288   2.463  0.00  0.00    +0.039 C 
ATOM      9  C   UNL     1      -2.068  -2.818  -0.627  0.00  0.00    +0.302 C 
ATOM     10  O   UNL     1      -2.805  -2.356  -1.477  0.00  0.00    -0.253 OA
ATOM     11  N   UNL     1      -1.933  -4.154  -0.507  0.00  0.00    -0.299 N 
ATOM     12  H   UNL     1      -1.403  -4.525   0.216  0.00  0.00    +0.150 HD
ENDROOT
BRANCH  11  13
ATOM     13  C   UNL     1      -2.584  -5.046  -1.470  0.00  0.00    +0.112 C 
BRANCH  13  14
ATOM     14  C   UNL     1      -2.272  -6.500  -1.110  0.00  0.00    -0.016 C 
ATOM     15  C   UNL     1      -0.755  -6.757  -1.217  0.00  0.00    +0.008 C 
ATOM     16  C   UNL     1      -0.652  -8.196  -1.782  0.00  0.00    +0.001 C 
ATOM     17  C   UNL     1      -1.822  -8.249  -2.796  0.00  0.00    +0.001 C 
ATOM     18  C   UNL     1      -2.951  -7.448  -2.114  0.00  0.00    +0.008 C 
ATOM     19  C   UNL     1      -2.758  -6.804   0.308  0.00  0.00    +0.013 C 
ENDBRANCH  13  14
ENDBRANCH  11  13
TORSDOF 2
