REMARK  Name = ZINC16927607
REMARK  10 active torsions:
REMARK  status: ('A' for Active; 'I' for Inactive)
REMARK    1  A    between atoms: C_1  and  C_2
REMARK    2  A    between atoms: C_4  and  C_7
REMARK    3  A    between atoms: C_7  and  S_8
REMARK    4  A    between atoms: S_8  and  C_9
REMARK    5  A    between atoms: C_12  and  C_21
REMARK    6  A    between atoms: N_13  and  C_14
REMARK    7  A    between atoms: C_21  and  C_23
REMARK    8  A    between atoms: C_21  and  N_24
REMARK    9  A    between atoms: N_24  and  C_25
REMARK   10  A    between atoms: N_24  and  C_26
REMARK                            x       y       z     vdW  Elec       q    Type
REMARK                         _______ _______ _______ _____ _____    ______ ____
ROOT
ATOM      1  C   UNL     1      -2.873  -5.286  -1.556  0.00  0.00    +0.196 A 
ATOM      2  N   UNL     1      -3.264  -5.841  -0.432  0.00  0.00    -0.122 NA
ATOM      3  N   UNL     1      -3.994  -6.869  -0.681  0.00  0.00    -0.135 NA
ATOM      4  C   UNL     1      -4.113  -7.032  -1.969  0.00  0.00    +0.125 A 
ATOM      5  N   UNL     1      -3.408  -6.026  -2.574  0.00  0.00    -0.275 N 
ENDROOT
BRANCH   5   6
ATOM      6  C   UNL     1      -3.263  -5.803  -3.951  0.00  0.00    +0.050 A 
ATOM      7  C   UNL     1      -4.367  -5.462  -4.721  0.00  0.00    +0.028 A 
ATOM      8  C   UNL     1      -4.221  -5.242  -6.077  0.00  0.00    +0.022 A 
ATOM      9  C   UNL     1      -2.975  -5.362  -6.668  0.00  0.00    +0.041 A 
ATOM     10  C   UNL     1      -1.873  -5.702  -5.903  0.00  0.00    +0.022 A 
ATOM     11  C   UNL     1      -2.013  -5.917  -4.546  0.00  0.00    +0.028 A 
ATOM     12 CL   UNL     1      -2.795  -5.086  -8.373  0.00  0.00    -0.084 Cl
ENDBRANCH   5   6
BRANCH   4  13
ATOM     13  C   UNL     1      -4.888  -8.123  -2.663  0.00  0.00    -0.003 C 
ATOM     14  C   UNL     1      -6.386  -7.826  -2.563  0.00  0.00    -0.005 C 
BRANCH  13  15
ATOM     15  N   UNL     1      -4.601  -9.412  -2.020  0.00  0.00    +0.382 N 
ATOM     16  C   UNL     1      -5.356 -10.475  -2.697  0.00  0.00    -0.096 C 
ATOM     17  C   UNL     1      -3.162  -9.697  -2.115  0.00  0.00    -0.096 C 
ATOM     18  H   UNL     1      -4.872  -9.372  -1.049  0.00  0.00    -0.082 HD
ENDBRANCH  13  15
ENDBRANCH   4  13
BRANCH   1  19
ATOM     19  S   UNL     1      -1.858  -3.855  -1.721  0.00  0.00    -0.079 S 
BRANCH  19  20
ATOM     20  C   UNL     1      -1.500  -3.372  -0.010  0.00  0.00    +0.136 C 
BRANCH  20  24
ATOM     21  C   UNL     1      -0.018   1.503   0.010  0.00  0.00    +0.089 C 
ATOM     22  C   UNL     1       0.002  -0.004   0.002  0.00  0.00    +0.134 A 
ATOM     23  C   UNL     1      -1.077  -0.810   0.003  0.00  0.00    +0.071 A 
ATOM     24  C   UNL     1      -0.627  -2.143  -0.007  0.00  0.00    +0.094 A 
ATOM     25  N   UNL     1       0.676  -2.130  -0.013  0.00  0.00    -0.082 NA
ATOM     26  O   UNL     1       1.098  -0.778  -0.013  0.00  0.00    -0.360 OA
ENDBRANCH  20  24
ENDBRANCH  19  20
ENDBRANCH   1  19
TORSDOF 6
