REMARK  Name = ZINC12560412
REMARK  10 active torsions:
REMARK  status: ('A' for Active; 'I' for Inactive)
REMARK    1  A    between atoms: C_1  and  C_2
REMARK    2  A    between atoms: C_5  and  N_9
REMARK    3  A    between atoms: C_6  and  C_8
REMARK    4  A    between atoms: N_12  and  C_15
REMARK    5  A    between atoms: C_15  and  N_16
REMARK    6  A    between atoms: N_16  and  C_17
REMARK    7  A    between atoms: N_16  and  C_18
REMARK    8  A    between atoms: C_18  and  C_20
REMARK    9  A    between atoms: C_18  and  C_27
REMARK   10  A    between atoms: N_31  and  C_32
REMARK                            x       y       z     vdW  Elec       q    Type
REMARK                         _______ _______ _______ _____ _____    ______ ____
ROOT
ATOM      1  N   UNL     1       2.946   2.038  -1.419  0.00  0.00    -0.273 NA
ATOM      2  C   UNL     1       2.262   0.939  -2.112  0.00  0.00    +0.107 C 
ENDROOT
BRANCH   1   3
ATOM      3  C   UNL     1       2.421   2.209  -0.058  0.00  0.00    +0.233 C 
BRANCH   3   7
ATOM      4  N   UNL     1      -1.145   2.662  -0.221  0.00  0.00    -0.277 N 
ATOM      5  C   UNL     1      -0.714   3.968  -0.218  0.00  0.00    +0.228 A 
ATOM      6  N   UNL     1       0.579   3.981  -0.164  0.00  0.00    -0.158 NA
ATOM      7  N   UNL     1       1.027   2.653  -0.124  0.00  0.00    -0.226 N 
ATOM      8  C   UNL     1      -0.064   1.859  -0.157  0.00  0.00    +0.184 A 
ATOM      9  S   UNL     1      -0.073   0.148  -0.129  0.00  0.00    -0.011 S 
BRANCH   4  14
ATOM     10  C   UNL     1      -6.550   0.946  -0.451  0.00  0.00    +0.044 C 
ATOM     11  C   UNL     1      -5.114   1.402  -0.390  0.00  0.00    -0.050 A 
ATOM     12  C   UNL     1      -4.558   2.076  -1.461  0.00  0.00    +0.005 A 
ATOM     13  C   UNL     1      -3.243   2.495  -1.408  0.00  0.00    +0.027 A 
ATOM     14  C   UNL     1      -2.479   2.239  -0.277  0.00  0.00    +0.053 A 
ATOM     15  C   UNL     1      -3.039   1.556   0.795  0.00  0.00    -0.026 A 
ATOM     16  C   UNL     1      -4.356   1.145   0.738  0.00  0.00    +0.008 A 
ATOM     17  C   UNL     1      -2.212   1.270   2.021  0.00  0.00    +0.046 C 
ENDBRANCH   4  14
ENDBRANCH   3   7
ENDBRANCH   1   3
BRANCH   1  18
ATOM     18  C   UNL     1       4.399   1.826  -1.401  0.00  0.00    +0.153 C 
BRANCH  18  19
ATOM     19  C   UNL     1       5.073   3.014  -0.764  0.00  0.00    -0.023 A 
ATOM     20  C   UNL     1       4.710   4.295  -1.135  0.00  0.00    +0.007 A 
ATOM     21  C   UNL     1       5.323   5.385  -0.547  0.00  0.00    +0.020 A 
ATOM     22  C   UNL     1       6.309   5.194   0.405  0.00  0.00    +0.041 A 
ATOM     23  C   UNL     1       6.676   3.912   0.772  0.00  0.00    +0.020 A 
ATOM     24  C   UNL     1       6.058   2.822   0.187  0.00  0.00    +0.007 A 
ATOM     25 CL   UNL     1       7.084   6.563   1.138  0.00  0.00    -0.084 Cl
ENDBRANCH  18  19
BRANCH  18  26
ATOM     26  C   UNL     1       4.901   1.661  -2.812  0.00  0.00    +0.109 A 
ATOM     27  N   UNL     1       4.574   2.412  -3.828  0.00  0.00    -0.348 N 
ATOM     28  C   UNL     1       5.211   1.974  -4.924  0.00  0.00    +0.102 A 
ATOM     29  C   UNL     1       5.955   0.907  -4.576  0.00  0.00    +0.104 A 
ATOM     30  N   UNL     1       5.758   0.708  -3.236  0.00  0.00    -0.337 N 
ATOM     31  C   UNL     1       6.366  -0.343  -2.416  0.00  0.00    +0.150 C 
ATOM     32  H   UNL     1       3.874   3.249  -3.690  0.00  0.00    +0.166 HD
ENDBRANCH  18  26
ENDBRANCH   1  18
TORSDOF 6
