REMARK  Name = ZINC65129074
REMARK  5 active torsions:
REMARK  status: ('A' for Active; 'I' for Inactive)
REMARK    1  A    between atoms: C_1  and  C_2
REMARK    2  A    between atoms: C_4  and  N_9
REMARK    3  A    between atoms: N_9  and  S_10
REMARK    4  A    between atoms: S_10  and  C_13
REMARK    5  A    between atoms: C_15  and  C_18
REMARK                            x       y       z     vdW  Elec       q    Type
REMARK                         _______ _______ _______ _____ _____    ______ ____
ROOT
ATOM      1  C   UNL     1       0.049  -4.940  -4.112  0.00  0.00    +0.148 A 
ATOM      2  C   UNL     1       1.100  -5.178  -4.927  0.00  0.00    +0.046 A 
ATOM      3  C   UNL     1       0.861  -5.580  -6.238  0.00  0.00    +0.011 A 
ATOM      4  C   UNL     1      -0.435  -5.719  -6.651  0.00  0.00    +0.057 A 
ATOM      5  S   UNL     1      -1.342  -5.286  -5.176  0.00  0.00    -0.076 S 
ENDROOT
BRANCH   3   6
ATOM      6  C   UNL     1       1.986  -5.852  -7.165  0.00  0.00    +0.092 A 
ATOM      7  C   UNL     1       1.722  -6.260  -8.494  0.00  0.00    +0.035 A 
ATOM      8  C   UNL     1       2.781  -6.500  -9.318  0.00  0.00    +0.073 A 
ATOM      9  C   UNL     1       4.080  -6.327  -8.792  0.00  0.00    +0.265 A 
ATOM     10  O   UNL     1       5.059  -6.530  -9.493  0.00  0.00    -0.266 OA
ATOM     11  N   UNL     1       4.232  -5.935  -7.513  0.00  0.00    -0.243 N 
ATOM     12  N   UNL     1       3.224  -5.708  -6.752  0.00  0.00    -0.171 NA
ATOM     13  H   UNL     1       5.127  -5.819  -7.158  0.00  0.00    +0.192 HD
ENDBRANCH   3   6
BRANCH   1  14
ATOM     14  S   UNL     1       0.050  -4.426  -2.426  0.00  0.00    +0.098 S 
ATOM     15  O   UNL     1       1.304  -4.817  -1.883  0.00  0.00    -0.148 OA
ATOM     16  O   UNL     1      -1.187  -4.851  -1.871  0.00  0.00    -0.148 OA
BRANCH  14  17
ATOM     17  N   UNL     1       0.028  -2.770  -2.419  0.00  0.00    -0.097 NA
BRANCH  17  21
ATOM     18  C   UNL     1      -0.018   1.503   0.010  0.00  0.00    +0.047 C 
ATOM     19  C   UNL     1       0.002  -0.004   0.002  0.00  0.00    -0.013 A 
ATOM     20  C   UNL     1       0.006  -0.688  -1.198  0.00  0.00    +0.032 A 
ATOM     21  C   UNL     1       0.025  -2.076  -1.205  0.00  0.00    +0.075 A 
ATOM     22  C   UNL     1       0.040  -2.775  -0.005  0.00  0.00    +0.029 A 
ATOM     23  C   UNL     1       0.036  -2.087   1.193  0.00  0.00    +0.040 A 
ATOM     24  C   UNL     1       0.023  -0.702   1.197  0.00  0.00    +0.126 A 
ATOM     25  F   UNL     1       0.025  -0.032   2.370  0.00  0.00    -0.205 F 
ENDBRANCH  17  21
ENDBRANCH  14  17
ENDBRANCH   1  14
TORSDOF 4
