REMARK  Name = ZINC45328127
REMARK  6 active torsions:
REMARK  status: ('A' for Active; 'I' for Inactive)
REMARK    1  A    between atoms: C_1  and  C_2
REMARK    2  A    between atoms: C_9  and  C_25
REMARK    3  A    between atoms: C_10  and  N_11
REMARK    4  A    between atoms: C_12  and  C_14
REMARK    5  A    between atoms: C_15  and  C_24
REMARK    6  A    between atoms: C_17  and  C_19
REMARK                            x       y       z     vdW  Elec       q    Type
REMARK                         _______ _______ _______ _____ _____    ______ ____
ROOT
ATOM      1  C   UNL     1       0.581   1.562   0.168  0.00  0.00    +0.047 C 
ATOM      2  C   UNL     1       0.858   0.082   0.232  0.00  0.00    -0.008 A 
ATOM      3  C   UNL     1       1.580  -0.524  -0.748  0.00  0.00    +0.008 A 
ATOM      4  C   UNL     1       1.832  -1.906  -0.677  0.00  0.00    +0.018 A 
ATOM      5  C   UNL     1       1.360  -2.632   0.357  0.00  0.00    +0.094 A 
ATOM      6  N   UNL     1       0.632  -2.037   1.351  0.00  0.00    -0.287 N 
ATOM      7  C   UNL     1       0.375  -0.687   1.312  0.00  0.00    +0.143 A 
ATOM      8  N   UNL     1      -0.335  -0.362   2.381  0.00  0.00    -0.226 NA
ATOM      9  C   UNL     1      -0.546  -1.462   3.124  0.00  0.00    +0.112 A 
ATOM     10  C   UNL     1       0.049  -2.530   2.486  0.00  0.00    +0.138 A 
ENDROOT
BRANCH   9  11
ATOM     11  C   UNL     1      -1.299  -1.518   4.400  0.00  0.00    +0.004 A 
ATOM     12  C   UNL     1      -2.061  -2.643   4.714  0.00  0.00    +0.010 A 
ATOM     13  C   UNL     1      -2.759  -2.691   5.903  0.00  0.00    +0.001 A 
ATOM     14  C   UNL     1      -2.704  -1.625   6.784  0.00  0.00    +0.000 A 
ATOM     15  C   UNL     1      -1.950  -0.506   6.478  0.00  0.00    +0.001 A 
ATOM     16  C   UNL     1      -1.243  -0.450   5.294  0.00  0.00    +0.010 A 
ENDBRANCH   9  11
BRANCH  10  17
ATOM     17  N   UNL     1       0.067  -3.855   2.923  0.00  0.00    -0.264 N 
ATOM     18  C   UNL     1      -0.594  -4.802   2.227  0.00  0.00    +0.268 C 
ATOM     19  O   UNL     1      -1.130  -4.520   1.173  0.00  0.00    -0.268 OA
ATOM     20  H   UNL     1       0.554  -4.094   3.726  0.00  0.00    +0.157 HD
BRANCH  18  21
ATOM     21  C   UNL     1      -0.665  -6.179   2.745  0.00  0.00    +0.137 A 
ATOM     22  C   UNL     1      -1.330  -7.150   2.043  0.00  0.00    +0.019 A 
ATOM     23  S   UNL     1      -1.131  -8.506   3.020  0.00  0.00    -0.069 S 
ATOM     24  C   UNL     1      -0.178  -7.745   4.322  0.00  0.00    +0.144 A 
ATOM     25  N   UNL     1      -0.084  -6.497   3.893  0.00  0.00    -0.231 NA
ATOM     26  C   UNL     1      -2.055  -7.034   0.728  0.00  0.00    +0.054 C 
BRANCH  24  27
ATOM     27  C   UNL     1       0.365  -8.349   5.549  0.00  0.00    +0.160 A 
ATOM     28  C   UNL     1       1.084  -7.702   6.509  0.00  0.00    +0.052 A 
ATOM     29  C   UNL     1       1.397  -8.657   7.494  0.00  0.00    +0.042 A 
ATOM     30  C   UNL     1       0.860  -9.828   7.095  0.00  0.00    +0.196 A 
ATOM     31  O   UNL     1       0.233  -9.637   5.923  0.00  0.00    -0.461 OA
ENDBRANCH  24  27
ENDBRANCH  18  21
ENDBRANCH  10  17
TORSDOF 4
