REMARK  Name = ZINC39792389
REMARK  7 active torsions:
REMARK  status: ('A' for Active; 'I' for Inactive)
REMARK    1  A    between atoms: C_1  and  C_2
REMARK    2  A    between atoms: C_2  and  N_3
REMARK    3  A    between atoms: N_3  and  C_4
REMARK    4  A    between atoms: C_12  and  C_14
REMARK    5  A    between atoms: C_14  and  C_16
REMARK    6  A    between atoms: C_14  and  S_17
REMARK    7  A    between atoms: S_17  and  C_18
REMARK                            x       y       z     vdW  Elec       q    Type
REMARK                         _______ _______ _______ _____ _____    ______ ____
ROOT
ATOM      1  S   UNL     1       4.454  -0.904  -0.384  0.00  0.00    -0.076 S 
ENDROOT
BRANCH   1   2
ATOM      2  C   UNL     1       5.075  -0.369  -1.944  0.00  0.00    +0.182 C 
ATOM      3  N   UNL     1       4.324   0.433  -2.679  0.00  0.00    -0.151 NA
ATOM      4  C   UNL     1       4.706   0.884  -3.873  0.00  0.00    +0.272 C 
ATOM      5  O   UNL     1       3.989   1.625  -4.524  0.00  0.00    -0.268 OA
ATOM      6  C   UNL     1       6.045   0.453  -4.393  0.00  0.00    +0.071 C 
ATOM      7  C   UNL     1       6.594   0.735  -5.586  0.00  0.00    -0.042 C 
ATOM      8  C   UNL     1       5.850   1.434  -6.721  0.00  0.00    +0.033 C 
ATOM      9  C   UNL     1       5.957   0.520  -7.949  0.00  0.00    +0.004 C 
ATOM     10  C   UNL     1       7.418   0.167  -8.219  0.00  0.00    +0.002 C 
ATOM     11  C   UNL     1       8.009  -0.634  -7.056  0.00  0.00    +0.019 C 
ATOM     12  C   UNL     1       8.024   0.255  -5.809  0.00  0.00    +0.079 C 
ATOM     13  S   UNL     1       8.322  -0.765  -4.316  0.00  0.00    -0.097 S 
ATOM     14  C   UNL     1       6.793  -0.434  -3.476  0.00  0.00    +0.112 C 
ATOM     15  N   UNL     1       6.282  -0.789  -2.325  0.00  0.00    -0.217 NA
ENDBRANCH   1   2
BRANCH   1  16
ATOM     16  C   UNL     1       2.823  -0.118  -0.268  0.00  0.00    +0.137 C 
ATOM     17  C   UNL     1       2.992   1.402  -0.209  0.00  0.00    +0.029 C 
BRANCH  16  19
ATOM     18  N   UNL     1       0.778  -0.667   1.010  0.00  0.00    -0.296 N 
ATOM     19  C   UNL     1       2.123  -0.594   0.979  0.00  0.00    +0.229 C 
ATOM     20  O   UNL     1       2.771  -0.912   1.954  0.00  0.00    -0.274 OA
BRANCH  18  21
ATOM     21  C   UNL     1       0.093  -1.023   2.255  0.00  0.00    +0.098 C 
ATOM     22  C   UNL     1       0.458  -0.013   3.356  0.00  0.00    +0.046 C 
ATOM     23  C   UNL     1       0.007  -0.551   4.736  0.00  0.00    +0.168 C 
ATOM     24  S   UNL     1       0.072  -2.374   4.500  0.00  0.00    -0.029 S 
ATOM     25  O   UNL     1      -1.237  -2.906   4.645  0.00  0.00    -0.174 OA
ATOM     26  O   UNL     1       1.133  -2.903   5.284  0.00  0.00    -0.174 OA
ATOM     27  C   UNL     1       0.551  -2.434   2.722  0.00  0.00    +0.188 C 
ENDBRANCH  18  21
BRANCH  18  29
ATOM     28  C   UNL     1      -0.479   1.062  -0.177  0.00  0.00    +0.024 C 
ATOM     29  C   UNL     1       0.001  -0.390  -0.200  0.00  0.00    +0.105 C 
ENDBRANCH  18  29
ENDBRANCH  16  19
ENDBRANCH   1  16
TORSDOF 5
