REMARK  Name = ZINC26075505
REMARK  8 active torsions:
REMARK  status: ('A' for Active; 'I' for Inactive)
REMARK    1  A    between atoms: C_1  and  C_2
REMARK    2  A    between atoms: C_5  and  C_8
REMARK    3  A    between atoms: C_8  and  C_10
REMARK    4  A    between atoms: C_8  and  N_17
REMARK    5  A    between atoms: C_10  and  N_11
REMARK    6  A    between atoms: C_18  and  C_20
REMARK    7  A    between atoms: C_20  and  N_21
REMARK    8  A    between atoms: C_29  and  C_33
REMARK                            x       y       z     vdW  Elec       q    Type
REMARK                         _______ _______ _______ _____ _____    ______ ____
ROOT
ATOM      1  N   UNL     1      -0.047   1.384  -0.023  0.00  0.00    -0.306 N 
ATOM      2  C   UNL     1       0.805   2.187  -0.690  0.00  0.00    +0.231 C 
ATOM      3  O   UNL     1       1.691   1.706  -1.363  0.00  0.00    -0.274 OA
ATOM      4  H   UNL     1      -0.908   1.815   0.509  0.00  0.00    +0.149 HD
ENDROOT
BRANCH   1   5
ATOM      5  C   UNL     1       0.174  -0.065  -0.005  0.00  0.00    +0.117 C 
BRANCH   5  10
ATOM      6  C   UNL     1      -4.413  -2.742  -2.281  0.00  0.00    +0.044 C 
ATOM      7  C   UNL     1      -3.216  -2.044  -1.688  0.00  0.00    -0.050 A 
ATOM      8  C   UNL     1      -1.941  -2.494  -1.974  0.00  0.00    +0.004 A 
ATOM      9  C   UNL     1      -0.844  -1.853  -1.429  0.00  0.00    +0.006 A 
ATOM     10  C   UNL     1      -1.022  -0.763  -0.599  0.00  0.00    -0.026 A 
ATOM     11  C   UNL     1      -2.298  -0.316  -0.309  0.00  0.00    +0.006 A 
ATOM     12  C   UNL     1      -3.395  -0.953  -0.858  0.00  0.00    +0.004 A 
ENDBRANCH   5  10
BRANCH   5  13
ATOM     13  C   UNL     1       0.373  -0.532   1.438  0.00  0.00    +0.111 C 
BRANCH  13  14
ATOM     14  N   UNL     1       1.480   0.216   2.047  0.00  0.00    -0.296 NA
ATOM     15  C   UNL     1       2.765  -0.154   1.437  0.00  0.00    +0.112 C 
ATOM     16  C   UNL     1       3.881   0.690   2.058  0.00  0.00    +0.175 C 
ATOM     17  O   UNL     1       3.882   0.502   3.475  0.00  0.00    -0.377 OA
ATOM     18  C   UNL     1       2.646   0.854   4.103  0.00  0.00    +0.175 C 
ATOM     19  C   UNL     1       1.517   0.011   3.503  0.00  0.00    +0.112 C 
ENDBRANCH  13  14
ENDBRANCH   5  13
ENDBRANCH   1   5
BRANCH   2  20
ATOM     20  C   UNL     1       0.655   3.684  -0.600  0.00  0.00    +0.209 C 
BRANCH  20  21
ATOM     21  N   UNL     1       1.694   4.328  -1.409  0.00  0.00    -0.256 N 
ATOM     22  C   UNL     1       2.932   4.662  -0.842  0.00  0.00    +0.079 A 
ATOM     23  C   UNL     1       3.324   4.121   0.371  0.00  0.00    +0.027 A 
ATOM     24  C   UNL     1       4.549   4.465   0.913  0.00  0.00    +0.002 A 
ATOM     25  C   UNL     1       5.382   5.345   0.247  0.00  0.00    +0.004 A 
ATOM     26  C   UNL     1       5.001   5.878  -0.967  0.00  0.00    +0.047 A 
ATOM     27  C   UNL     1       3.775   5.544  -1.514  0.00  0.00    +0.143 A 
ATOM     28  O   UNL     1       3.378   6.072  -2.703  0.00  0.00    -0.478 OA
ATOM     29  C   UNL     1       2.564   5.242  -3.535  0.00  0.00    +0.256 C 
ATOM     30  C   UNL     1       1.471   4.614  -2.710  0.00  0.00    +0.261 C 
ATOM     31  O   UNL     1       0.395   4.366  -3.212  0.00  0.00    -0.271 OA
ATOM     32  C   UNL     1       3.427   4.144  -4.159  0.00  0.00    +0.062 C 
ENDBRANCH  20  21
ENDBRANCH   2  20
TORSDOF 6
