REMARK  Name = ZINC40247158
REMARK  4 active torsions:
REMARK  status: ('A' for Active; 'I' for Inactive)
REMARK    1  A    between atoms: C_3  and  N_18
REMARK    2  A    between atoms: C_5  and  C_6
REMARK    3  A    between atoms: C_6  and  C_8
REMARK    4  A    between atoms: C_6  and  O_17
REMARK                            x       y       z     vdW  Elec       q    Type
REMARK                         _______ _______ _______ _____ _____    ______ ____
ROOT
ATOM      1  C   UNL     1      -1.208  -0.902   0.009  0.00  0.00    +0.216 C 
ENDROOT
BRANCH   1   2
ATOM      2  C   UNL     1      -1.478  -1.392  -1.391  0.00  0.00    +0.059 A 
ATOM      3  C   UNL     1      -0.679  -2.377  -1.945  0.00  0.00    +0.135 A 
ATOM      4  C   UNL     1      -0.927  -2.828  -3.230  0.00  0.00    +0.077 A 
ATOM      5  C   UNL     1      -1.974  -2.292  -3.961  0.00  0.00    +0.129 A 
ATOM      6  C   UNL     1      -2.773  -1.307  -3.407  0.00  0.00    +0.077 A 
ATOM      7  C   UNL     1      -2.528  -0.860  -2.120  0.00  0.00    +0.135 A 
ATOM      8  F   UNL     1      -3.311   0.098  -1.577  0.00  0.00    -0.205 F 
ATOM      9  F   UNL     1      -2.215  -2.731  -5.216  0.00  0.00    -0.205 F 
ATOM     10  F   UNL     1       0.342  -2.900  -1.232  0.00  0.00    -0.205 F 
ENDBRANCH   1   2
BRANCH   1  15
ATOM     11  C   UNL     1      -0.016   1.341   0.009  0.00  0.00    +0.050 A 
ATOM     12  C   UNL     1       1.331   1.769  -0.001  0.00  0.00    +0.076 A 
ATOM     13  C   UNL     1       2.092   0.660  -0.014  0.00  0.00    +0.280 A 
ATOM     14  O   UNL     1       1.282  -0.411  -0.012  0.00  0.00    -0.436 OA
ATOM     15  C   UNL     1       0.002  -0.004   0.002  0.00  0.00    +0.141 A 
BRANCH  13  16
ATOM     16  N   UNL     1       3.572   0.625  -0.029  0.00  0.00    +0.093 N 
ATOM     17  O   UNL     1       4.201   1.658  -0.029  0.00  0.00    -0.123 OA
ATOM     18  O   UNL     1       4.152  -0.435  -0.040  0.00  0.00    -0.123 OA
ENDBRANCH  13  16
ENDBRANCH   1  15
BRANCH   1  19
ATOM     19  O   UNL     1      -0.968  -2.019   0.867  0.00  0.00    -0.379 OA
ATOM     20  H   UNL     1      -0.212  -2.562   0.603  0.00  0.00    +0.211 HD
ENDBRANCH   1  19
TORSDOF 4
