REMARK  Name = ZINC36973481
REMARK  3 active torsions:
REMARK  status: ('A' for Active; 'I' for Inactive)
REMARK    1  A    between atoms: C_4  and  C_16
REMARK    2  A    between atoms: C_6  and  N_7
REMARK    3  A    between atoms: N_7  and  C_8
REMARK                            x       y       z     vdW  Elec       q    Type
REMARK                         _______ _______ _______ _____ _____    ______ ____
ROOT
ATOM      1  N   UNL     1      -1.199  -0.719   0.010  0.00  0.00    -0.341 N 
ATOM      2  H   UNL     1      -1.186  -1.689   0.004  0.00  0.00    +0.146 HD
ENDROOT
BRANCH   1   3
ATOM      3  C   UNL     1      -2.477  -0.004   0.026  0.00  0.00    +0.073 C 
ATOM      4  C   UNL     1      -2.826   0.370   1.463  0.00  0.00    +0.045 C 
ATOM      5  C   UNL     1      -4.007   1.344   1.478  0.00  0.00    +0.167 C 
ATOM      6  S   UNL     1      -5.464   0.511   0.780  0.00  0.00    -0.031 S 
ATOM      7  O   UNL     1      -6.469   1.486   0.537  0.00  0.00    -0.174 OA
ATOM      8  O   UNL     1      -5.772  -0.615   1.591  0.00  0.00    -0.174 OA
ATOM      9  C   UNL     1      -4.833  -0.079  -0.819  0.00  0.00    +0.167 C 
ATOM     10  C   UNL     1      -3.559  -0.894  -0.578  0.00  0.00    +0.045 C 
ENDBRANCH   1   3
BRANCH   1  16
ATOM     11  C   UNL     1      -0.017   1.386   0.010  0.00  0.00    +0.024 A 
ATOM     12  C   UNL     1       1.168   2.098   0.002  0.00  0.00    +0.023 A 
ATOM     13  C   UNL     1       2.378   1.434  -0.013  0.00  0.00    +0.058 A 
ATOM     14  C   UNL     1       2.408   0.037  -0.021  0.00  0.00    +0.072 A 
ATOM     15  C   UNL     1       1.211  -0.681  -0.013  0.00  0.00    +0.043 A 
ATOM     16  C   UNL     1       0.002  -0.004   0.002  0.00  0.00    +0.029 A 
ATOM     17 CL   UNL     1       3.863   2.334  -0.023  0.00  0.00    -0.082 Cl
BRANCH  14  18
ATOM     18  C   UNL     1       3.661  -0.656  -0.037  0.00  0.00    +0.101 C 
ATOM     19  N   UNL     1       4.656  -1.205  -0.050  0.00  0.00    -0.191 NA
ENDBRANCH  14  18
ENDBRANCH   1  16
TORSDOF 3
