REMARK  Name = ZINC23381297
REMARK  12 active torsions:
REMARK  status: ('A' for Active; 'I' for Inactive)
REMARK    1  A    between atoms: C_1  and  C_2
REMARK    2  A    between atoms: C_2  and  C_3
REMARK    3  A    between atoms: C_2  and  C_4
REMARK    4  A    between atoms: C_4  and  N_5
REMARK    5  A    between atoms: N_5  and  C_6
REMARK    6  A    between atoms: N_5  and  C_10
REMARK    7  A    between atoms: C_6  and  C_7
REMARK    8  A    between atoms: C_7  and  C_8
REMARK    9  A    between atoms: C_7  and  C_9
REMARK   10  A    between atoms: C_10  and  N_11
REMARK   11  A    between atoms: N_14  and  C_28
REMARK   12  A    between atoms: C_15  and  C_17
REMARK                            x       y       z     vdW  Elec       q    Type
REMARK                         _______ _______ _______ _____ _____    ______ ____
ROOT
ATOM      1  N   UNL     1       0.465  -0.283  -0.829  0.00  0.00    -0.257 N 
ATOM      2  C   UNL     1      -0.356  -0.118   0.228  0.00  0.00    +0.176 A 
ATOM      3  S   UNL     1       0.091   0.447   1.781  0.00  0.00    -0.011 S 
ATOM      4  N   UNL     1      -1.595  -0.477  -0.164  0.00  0.00    -0.307 N 
ATOM      5  C   UNL     1      -1.534  -0.877  -1.476  0.00  0.00    +0.176 A 
ATOM      6  N   UNL     1      -0.312  -0.768  -1.890  0.00  0.00    -0.154 NA
ATOM      7  C   UNL     1      -2.800  -0.450   0.669  0.00  0.00    +0.153 C 
ENDROOT
BRANCH   5   8
ATOM      8  C   UNL     1      -2.698  -1.363  -2.300  0.00  0.00    +0.278 C 
ATOM      9  C   UNL     1      -3.127  -0.268  -3.287  0.00  0.00    +0.281 C 
ATOM     10  O   UNL     1      -4.223  -0.767  -4.061  0.00  0.00    -0.484 OA
ATOM     11  C   UNL     1      -4.093  -2.024  -4.567  0.00  0.00    +0.162 A 
ATOM     12  C   UNL     1      -4.925  -2.431  -5.600  0.00  0.00    +0.049 A 
ATOM     13  C   UNL     1      -4.807  -3.705  -6.122  0.00  0.00    +0.004 A 
ATOM     14  C   UNL     1      -3.860  -4.577  -5.616  0.00  0.00    +0.004 A 
ATOM     15  C   UNL     1      -3.027  -4.177  -4.588  0.00  0.00    +0.049 A 
ATOM     16  C   UNL     1      -3.140  -2.899  -4.061  0.00  0.00    +0.163 A 
ATOM     17  O   UNL     1      -2.309  -2.517  -3.053  0.00  0.00    -0.474 OA
ENDBRANCH   5   8
BRANCH   1  18
ATOM     18  C   UNL     1       1.905  -0.012  -0.861  0.00  0.00    +0.072 C 
BRANCH  18  19
ATOM     19  N   UNL     1       2.143   1.295  -1.488  0.00  0.00    +0.393 N 
ATOM     20  H   UNL     1       1.612   1.310  -2.451  0.00  0.00    -0.079 HD
BRANCH  19  21
ATOM     21  C   UNL     1       1.605   2.382  -0.659  0.00  0.00    -0.073 C 
BRANCH  21  23
ATOM     22  C   UNL     1      -0.051   3.054  -2.405  0.00  0.00    +0.005 C 
ATOM     23  C   UNL     1       0.117   2.568  -0.964  0.00  0.00    -0.034 C 
ATOM     24  C   UNL     1      -0.475   3.602  -0.005  0.00  0.00    +0.005 C 
ENDBRANCH  21  23
ENDBRANCH  19  21
BRANCH  19  25
ATOM     25  C   UNL     1       3.573   1.497  -1.757  0.00  0.00    -0.073 C 
BRANCH  25  26
ATOM     26  C   UNL     1       4.004   0.602  -2.921  0.00  0.00    -0.034 C 
ATOM     27  C   UNL     1       3.251   1.014  -4.187  0.00  0.00    +0.005 C 
ATOM     28  C   UNL     1       5.509   0.753  -3.150  0.00  0.00    +0.005 C 
ENDBRANCH  25  26
ENDBRANCH  19  25
ENDBRANCH  18  19
ENDBRANCH   1  18
TORSDOF 7
