REMARK  Name = ZINC00808722
REMARK  8 active torsions:
REMARK  status: ('A' for Active; 'I' for Inactive)
REMARK    1  A    between atoms: C_1  and  C_2
REMARK    2  A    between atoms: C_3  and  C_21
REMARK    3  A    between atoms: C_5  and  C_19
REMARK    4  A    between atoms: C_6  and  N_18
REMARK    5  A    between atoms: C_21  and  O_23
REMARK    6  A    between atoms: O_23  and  C_24
REMARK    7  A    between atoms: C_24  and  C_25
REMARK    8  A    between atoms: C_24  and  C_26
REMARK                            x       y       z     vdW  Elec       q    Type
REMARK                         _______ _______ _______ _____ _____    ______ ____
ROOT
ATOM      1  C   UNL     1       2.890   3.120  -3.245  0.00  0.00    +0.086 C 
ATOM      2  C   UNL     1       2.361   2.377  -2.046  0.00  0.00    +0.111 C 
ATOM      3  C   UNL     1       1.718   2.978  -1.026  0.00  0.00    +0.100 C 
ATOM      4  C   UNL     1       1.404   1.937  -0.001  0.00  0.00    +0.188 C 
ATOM      5  C   UNL     1       1.996   2.171   1.353  0.00  0.00    +0.112 C 
ATOM      6  C   UNL     1       3.106   1.385   1.450  0.00  0.00    +0.197 C 
ATOM      7  O   UNL     1       3.345   0.680   0.325  0.00  0.00    -0.432 OA
ATOM      8  C   UNL     1       2.200   0.697  -0.513  0.00  0.00    +0.304 C 
ATOM      9  O   UNL     1       2.483   1.045  -1.886  0.00  0.00    -0.450 OA
ATOM     10  C   UNL     1       1.278  -0.468  -0.342  0.00  0.00    +0.048 A 
ATOM     11  C   UNL     1       1.498  -1.829  -0.452  0.00  0.00    +0.012 A 
ATOM     12  C   UNL     1       0.480  -2.728  -0.196  0.00  0.00    +0.001 A 
ATOM     13  C   UNL     1      -0.775  -2.276   0.173  0.00  0.00    +0.001 A 
ATOM     14  C   UNL     1      -1.019  -0.924   0.273  0.00  0.00    +0.012 A 
ATOM     15  C   UNL     1       0.002  -0.004   0.002  0.00  0.00    +0.030 A 
ATOM     16  C   UNL     1      -0.018   1.474   0.010  0.00  0.00    +0.188 C 
ATOM     17  O   UNL     1      -1.004   2.180   0.019  0.00  0.00    -0.290 OA
ENDROOT
BRANCH   6  18
ATOM     18  N   UNL     1       3.895   1.319   2.571  0.00  0.00    -0.329 N 
ATOM     19  H   UNL     1       4.674   0.740   2.582  0.00  0.00    +0.145 HD
ATOM     20  H   UNL     1       3.674   1.850   3.352  0.00  0.00    +0.145 HD
ENDBRANCH   6  18
BRANCH   5  21
ATOM     21  C   UNL     1       1.491   3.056   2.360  0.00  0.00    +0.101 C 
ATOM     22  N   UNL     1       1.090   3.757   3.158  0.00  0.00    -0.191 NA
ENDBRANCH   5  21
BRANCH   3  23
ATOM     23  C   UNL     1       1.395   4.354  -0.942  0.00  0.00    +0.340 C 
ATOM     24  O   UNL     1       1.705   5.108  -1.845  0.00  0.00    -0.245 OA
BRANCH  23  25
ATOM     25  O   UNL     1       0.745   4.829   0.141  0.00  0.00    -0.459 OA
BRANCH  25  26
ATOM     26  C   UNL     1       0.452   6.227   0.160  0.00  0.00    +0.171 C 
ATOM     27  C   UNL     1      -0.830   6.469   0.960  0.00  0.00    +0.052 C 
ATOM     28  C   UNL     1       1.611   6.982   0.813  0.00  0.00    +0.052 C 
ENDBRANCH  25  26
ENDBRANCH  23  25
ENDBRANCH   3  23
TORSDOF 5
