REMARK  Name = ZINC43737069
REMARK  9 active torsions:
REMARK  status: ('A' for Active; 'I' for Inactive)
REMARK    1  A    between atoms: C_1  and  C_2
REMARK    2  A    between atoms: C_2  and  C_4
REMARK    3  A    between atoms: C_4  and  O_41
REMARK    4  A    between atoms: C_9  and  C_40
REMARK    5  A    between atoms: N_21  and  O_22
REMARK    6  A    between atoms: O_22  and  C_23
REMARK    7  A    between atoms: C_23  and  C_24
REMARK    8  A    between atoms: N_26  and  C_27
REMARK    9  A    between atoms: C_38  and  C_39
REMARK                            x       y       z     vdW  Elec       q    Type
REMARK                         _______ _______ _______ _____ _____    ______ ____
ROOT
ATOM      1  C   UNL     1      -0.006  -0.753  -1.302  0.00  0.00    +0.129 C 
ATOM      2  C   UNL     1      -1.448  -1.108  -1.709  0.00  0.00    +0.043 C 
ATOM      3  C   UNL     1      -1.528  -2.652  -1.748  0.00  0.00    +0.008 C 
ATOM      4  C   UNL     1      -0.379  -3.094  -0.824  0.00  0.00    +0.002 C 
ATOM      5  C   UNL     1       0.749  -2.101  -1.152  0.00  0.00    +0.007 C 
ATOM      6  C   UNL     1       1.358  -2.415  -2.521  0.00  0.00    +0.010 C 
ATOM      7  C   UNL     1       1.820  -3.868  -2.582  0.00  0.00    +0.005 C 
ATOM      8  C   UNL     1       0.600  -4.781  -2.412  0.00  0.00    +0.002 C 
ATOM      9  C   UNL     1       0.014  -4.537  -1.041  0.00  0.00    -0.003 C 
ATOM     10  C   UNL     1      -1.215  -5.438  -0.870  0.00  0.00    +0.008 C 
ATOM     11  C   UNL     1      -0.776  -6.903  -0.907  0.00  0.00    +0.031 C 
ATOM     12  C   UNL     1      -0.015  -7.149  -2.198  0.00  0.00    -0.062 C 
ATOM     13  C   UNL     1      -0.367  -8.197  -2.933  0.00  0.00    +0.026 C 
ATOM     14  C   UNL     1       0.350  -8.492  -4.186  0.00  0.00    +0.080 C 
ATOM     15  N   UNL     1      -0.179  -9.216  -5.121  0.00  0.00    -0.089 NA
ATOM     16  C   UNL     1       1.740  -7.901  -4.323  0.00  0.00    +0.059 C 
ATOM     17  C   UNL     1       1.643  -6.419  -3.966  0.00  0.00    +0.017 C 
ATOM     18  C   UNL     1       1.062  -6.239  -2.541  0.00  0.00    -0.007 C 
ATOM     19  C   UNL     1       2.217  -6.456  -1.561  0.00  0.00    +0.016 C 
ATOM     20  C   UNL     1       1.804  -2.049  -0.046  0.00  0.00    +0.015 C 
ENDROOT
BRANCH   1  22
ATOM     21  C   UNL     1       1.091   0.973   0.321  0.00  0.00    +0.089 C 
ATOM     22  C   UNL     1      -0.007  -0.012   0.011  0.00  0.00    +0.162 C 
ATOM     23  O   UNL     1      -0.887  -0.207   0.814  0.00  0.00    -0.295 OA
ENDBRANCH   1  22
BRANCH   1  24
ATOM     24  O   UNL     1       0.610   0.044  -2.315  0.00  0.00    -0.381 OA
ATOM     25  H   UNL     1       0.175   0.895  -2.464  0.00  0.00    +0.211 HD
ENDBRANCH   1  24
BRANCH  15  26
ATOM     26  O   UNL     1      -1.481  -9.748  -4.953  0.00  0.00    -0.384 OA
BRANCH  26  27
ATOM     27  C   UNL     1      -1.938 -10.526  -6.062  0.00  0.00    +0.358 C 
BRANCH  27  28
ATOM     28  C   UNL     1      -3.326 -11.040  -5.776  0.00  0.00    +0.254 C 
ATOM     29  O   UNL     1      -3.870 -10.767  -4.727  0.00  0.00    -0.272 OA
ATOM     30  N   UNL     1      -3.962 -11.802  -6.687  0.00  0.00    -0.301 N 
ATOM     31  H   UNL     1      -3.527 -12.020  -7.526  0.00  0.00    +0.150 HD
BRANCH  30  32
ATOM     32  C   UNL     1      -5.311 -12.302  -6.410  0.00  0.00    +0.159 C 
ATOM     33  C   UNL     1      -6.037 -12.582  -7.728  0.00  0.00    +0.032 C 
ATOM     34  C   UNL     1      -7.541 -12.510  -7.540  0.00  0.00    +0.004 C 
ATOM     35  C   UNL     1      -8.102 -13.608  -6.655  0.00  0.00    +0.019 C 
ATOM     36  C   UNL     1      -7.620 -13.446  -5.212  0.00  0.00    +0.104 C 
ATOM     37  N   UNL     1      -6.319 -14.118  -5.072  0.00  0.00    -0.314 N 
ATOM     38  C   UNL     1      -5.224 -13.591  -5.621  0.00  0.00    +0.233 C 
ATOM     39  O   UNL     1      -4.155 -14.150  -5.491  0.00  0.00    -0.274 OA
ATOM     40  H   UNL     1      -6.256 -14.948  -4.574  0.00  0.00    +0.149 HD
ENDBRANCH  30  32
ENDBRANCH  27  28
ENDBRANCH  26  27
ENDBRANCH  15  26
TORSDOF 6
