REMARK  Name = ZINC50680081
REMARK  4 active torsions:
REMARK  status: ('A' for Active; 'I' for Inactive)
REMARK    1  A    between atoms: C_9  and  C_12
REMARK    2  A    between atoms: C_14  and  C_15
REMARK    3  A    between atoms: C_14  and  C_17
REMARK    4  A    between atoms: N_19  and  C_20
REMARK                            x       y       z     vdW  Elec       q    Type
REMARK                         _______ _______ _______ _____ _____    ______ ____
ROOT
ATOM      1  C   UNL     1       6.081  -0.512   0.263  0.00  0.00    +0.208 C 
ATOM      2  O   UNL     1       6.200  -1.841   0.050  0.00  0.00    -0.286 OA
ATOM      3  C   UNL     1       7.218   0.260   0.513  0.00  0.00    +0.160 C 
ENDROOT
BRANCH   1  12
ATOM      4  C   UNL     1       0.657   2.768  -0.561  0.00  0.00    +0.023 A 
ATOM      5  C   UNL     1       1.151   2.083   0.535  0.00  0.00    +0.048 A 
ATOM      6  C   UNL     1       2.410   1.515   0.482  0.00  0.00    +0.128 A 
ATOM      7  C   UNL     1       3.180   1.637  -0.689  0.00  0.00    +0.019 A 
ATOM      8  C   UNL     1       2.673   2.329  -1.789  0.00  0.00    +0.031 A 
ATOM      9  C   UNL     1       1.413   2.891  -1.716  0.00  0.00    +0.042 A 
ATOM     10 CL   UNL     1       0.773   3.754  -3.079  0.00  0.00    -0.084 Cl
ATOM     11  C   UNL     1       4.514   1.022  -0.719  0.00  0.00    +0.022 C 
ATOM     12  C   UNL     1       4.809   0.096   0.234  0.00  0.00    +0.038 C 
ATOM     13  C   UNL     1       3.768  -0.277   1.258  0.00  0.00    +0.268 C 
ATOM     14  O   UNL     1       2.923   0.839   1.540  0.00  0.00    -0.487 OA
ENDBRANCH   1  12
BRANCH   3  15
ATOM     15  C   UNL     1       7.080   1.669   0.883  0.00  0.00    +0.258 C 
ATOM     16  O   UNL     1       5.975   2.143   1.075  0.00  0.00    -0.269 OA
ATOM     17  N   UNL     1       8.176   2.444   1.011  0.00  0.00    -0.308 N 
ATOM     18  H   UNL     1       9.056   2.067   0.858  0.00  0.00    +0.149 HD
BRANCH  17  19
ATOM     19  C   UNL     1       8.037   3.854   1.382  0.00  0.00    +0.073 C 
ATOM     20  C   UNL     1       7.774   4.688   0.126  0.00  0.00    +0.022 C 
ATOM     21  C   UNL     1       7.629   6.161   0.513  0.00  0.00    +0.002 C 
ATOM     22  C   UNL     1       8.918   6.641   1.184  0.00  0.00    +0.000 C 
ATOM     23  C   UNL     1       9.180   5.807   2.440  0.00  0.00    +0.002 C 
ATOM     24  C   UNL     1       9.325   4.334   2.053  0.00  0.00    +0.022 C 
ENDBRANCH  17  19
ENDBRANCH   3  15
BRANCH   3  25
ATOM     25  C   UNL     1       8.520  -0.328   0.406  0.00  0.00    +0.108 C 
ATOM     26  N   UNL     1       9.553  -0.794   0.321  0.00  0.00    -0.191 NA
ENDBRANCH   3  25
TORSDOF 4
