REMARK  Name = ZINC51067245
REMARK  2 active torsions:
REMARK  status: ('A' for Active; 'I' for Inactive)
REMARK    1  A    between atoms: C_1  and  C_2
REMARK    2  A    between atoms: CA_16  and  C_18
REMARK                            x       y       z     vdW  Elec       q    Type
REMARK                         _______ _______ _______ _____ _____    ______ ____
ROOT
ATOM      1  C   UNL     1      -0.045   1.496  -0.023  0.00  0.00    +0.033 C 
ATOM      2  C   UNL     1       0.006  -0.033  -0.012  0.00  0.00    +0.103 C 
ATOM      3  C   UNL     1       0.760  -0.535  -1.242  0.00  0.00    -0.017 A 
ATOM      4  C   UNL     1       0.226  -0.506  -2.529  0.00  0.00    +0.013 A 
ATOM      5  C   UNL     1       0.954  -0.965  -3.574  0.00  0.00    +0.046 A 
ATOM      6  S   UNL     1       2.467  -1.473  -2.772  0.00  0.00    -0.101 S 
ATOM      7  C   UNL     1       2.017  -1.041  -1.113  0.00  0.00    -0.004 A 
ATOM      8  C   UNL     1       2.820  -1.197   0.138  0.00  0.00    +0.061 C 
ATOM      9  C   UNL     1       2.189  -0.331   1.239  0.00  0.00    +0.112 C 
ATOM     10  N   UNL     1       0.728  -0.498   1.180  0.00  0.00    -0.309 N 
ATOM     11  C   UNL     1       0.041  -1.088   2.234  0.00  0.00    +0.100 A 
ATOM     12  C   UNL     1      -1.354  -1.121   2.217  0.00  0.00    +0.042 A 
ATOM     13  C   UNL     1      -2.030  -1.710   3.269  0.00  0.00    +0.006 A 
ATOM     14  C   UNL     1      -1.292  -2.250   4.314  0.00  0.00    +0.033 A 
ATOM     15  CA  UNL     1       0.098  -2.184   4.269  0.00  0.00    +0.130 A 
ATOM     16  N   UNL     1       0.716  -1.615   3.239  0.00  0.00    -0.338 N 
ATOM     17  H   UNL     1       1.685  -1.583   3.227  0.00  0.00    +0.167 HD
ENDROOT
BRANCH  15  18
ATOM     18  C   UNL     1       0.894  -2.756   5.377  0.00  0.00    +0.402 C 
ATOM     19  O   UNL     1       2.115  -2.701   5.344  0.00  0.00    -0.239 OA
ATOM     20  OXT UNL     1       0.332  -3.284   6.325  0.00  0.00    -0.239 OA
ENDBRANCH  15  18
TORSDOF 1
