REMARK  Name = ZINC13791258
REMARK  7 active torsions:
REMARK  status: ('A' for Active; 'I' for Inactive)
REMARK    1  A    between atoms: C_1  and  C_2
REMARK    2  A    between atoms: C_7  and  C_8
REMARK    3  A    between atoms: N_12  and  C_13
REMARK    4  A    between atoms: C_13  and  C_14
REMARK    5  A    between atoms: C_20  and  C_22
REMARK    6  A    between atoms: N_27  and  S_29
REMARK    7  A    between atoms: S_29  and  C_32
REMARK                            x       y       z     vdW  Elec       q    Type
REMARK                         _______ _______ _______ _____ _____    ______ ____
ROOT
ATOM      1  C   UNL     1      -0.325  -3.410   7.836  0.00  0.00    +0.044 C 
ATOM      2  C   UNL     1      -0.493  -3.803   6.391  0.00  0.00    -0.045 A 
ATOM      3  C   UNL     1      -0.767  -2.834   5.461  0.00  0.00    +0.032 A 
ATOM      4  C   UNL     1      -0.932  -3.168   4.097  0.00  0.00    +0.081 A 
ATOM      5  C   UNL     1      -0.797  -4.536   3.769  0.00  0.00    +0.041 A 
ATOM      6  C   UNL     1      -0.522  -5.499   4.707  0.00  0.00    +0.021 A 
ATOM      7  C   UNL     1      -0.368  -5.137   6.032  0.00  0.00    -0.046 A 
ATOM      8  C   UNL     1      -0.066  -6.181   7.077  0.00  0.00    +0.044 C 
ATOM      9  S   UNL     1      -1.066  -4.532   2.013  0.00  0.00    -0.052 S 
ATOM     10  C   UNL     1      -1.332  -2.773   1.831  0.00  0.00    +0.168 A 
ATOM     11  N   UNL     1      -1.196  -2.341   3.062  0.00  0.00    -0.224 NA
ATOM     12  N   UNL     1      -1.605  -2.050   0.681  0.00  0.00    -0.248 N 
ATOM     13  C   UNL     1      -1.841  -2.694  -0.480  0.00  0.00    +0.226 C 
ATOM     14  O   UNL     1      -1.974  -2.063  -1.506  0.00  0.00    -0.275 OA
ENDROOT
BRANCH  13  15
ATOM     15  C   UNL     1      -1.938  -4.198  -0.501  0.00  0.00    +0.091 C 
ATOM     16  C   UNL     1      -0.534  -4.799  -0.603  0.00  0.00    +0.015 C 
ATOM     17  C   UNL     1      -0.630  -6.326  -0.592  0.00  0.00    +0.018 C 
ATOM     18  C   UNL     1      -1.444  -6.792  -1.803  0.00  0.00    +0.109 C 
ATOM     19  N   UNL     1      -2.743  -6.106  -1.792  0.00  0.00    -0.181 NA
ATOM     20  C   UNL     1      -2.768  -4.639  -1.711  0.00  0.00    +0.121 C 
BRANCH  19  21
ATOM     21  S   UNL     1      -4.154  -6.970  -1.867  0.00  0.00    +0.029 S 
ATOM     22  O   UNL     1      -5.097  -6.074  -2.441  0.00  0.00    -0.158 OA
ATOM     23  O   UNL     1      -3.805  -8.177  -2.530  0.00  0.00    -0.158 OA
ATOM     24  C   UNL     1      -4.587  -7.309  -0.138  0.00  0.00    +0.215 C 
ENDBRANCH  19  21
ENDBRANCH  13  15
BRANCH  12  25
ATOM     25  C   UNL     1      -1.639  -0.587   0.727  0.00  0.00    +0.147 C 
BRANCH  25  26
ATOM     26  C   UNL     1      -0.269  -0.033   0.332  0.00  0.00    +0.136 C 
ATOM     27  C   UNL     1      -0.282   1.516   0.374  0.00  0.00    +0.035 C 
ATOM     28  C   UNL     1       1.225   1.819   0.595  0.00  0.00    +0.031 C 
ATOM     29  C   UNL     1       1.670   0.634   1.480  0.00  0.00    +0.160 C 
ATOM     30  O   UNL     1       0.724  -0.425   1.293  0.00  0.00    -0.375 OA
ENDBRANCH  25  26
ENDBRANCH  12  25
TORSDOF 4
