REMARK  Name = ZINC09371492
REMARK  5 active torsions:
REMARK  status: ('A' for Active; 'I' for Inactive)
REMARK    1  A    between atoms: C_6  and  C_7
REMARK    2  A    between atoms: C_7  and  C_9
REMARK    3  A    between atoms: C_9  and  O_10
REMARK    4  A    between atoms: O_10  and  C_11
REMARK    5  A    between atoms: C_14  and  N_17
REMARK                            x       y       z     vdW  Elec       q    Type
REMARK                         _______ _______ _______ _____ _____    ______ ____
ROOT
ATOM      1  C   UNL     1       0.204   9.037  -3.178  0.00  0.00    +0.121 A 
ATOM      2  C   UNL     1       0.804   7.928  -3.756  0.00  0.00    +0.047 A 
ATOM      3  C   UNL     1       0.608   6.674  -3.210  0.00  0.00    +0.027 A 
ATOM      4  C   UNL     1      -0.189   6.524  -2.084  0.00  0.00    +0.044 A 
ATOM      5  C   UNL     1      -0.794   7.634  -1.510  0.00  0.00    +0.027 A 
ATOM      6  C   UNL     1      -0.594   8.888  -2.053  0.00  0.00    +0.047 A 
ENDROOT
BRANCH   4   7
ATOM      7  N   UNL     1      -0.389   5.251  -1.530  0.00  0.00    -0.210 N 
ATOM      8  C   UNL     1      -1.161   5.013  -0.418  0.00  0.00    +0.230 C 
ATOM      9  O   UNL     1      -1.983   5.748   0.086  0.00  0.00    -0.274 OA
ATOM     10  C   UNL     1      -0.758   3.640   0.031  0.00  0.00    +0.091 C 
ATOM     11  C   UNL     1      -1.769   2.645   0.641  0.00  0.00    +0.002 C 
ATOM     12  C   UNL     1      -0.769   1.601   1.262  0.00  0.00    +0.004 C 
ATOM     13  C   UNL     1      -0.013   1.086   0.008  0.00  0.00    +0.004 C 
ATOM     14  C   UNL     1      -0.790   1.613  -1.222  0.00  0.00    +0.002 C 
ATOM     15  C   UNL     1      -2.241   1.720  -0.572  0.00  0.00    +0.008 C 
ATOM     16  C   UNL     1      -0.636   3.059  -1.439  0.00  0.00    +0.091 C 
ATOM     17  C   UNL     1       0.176   4.094  -2.031  0.00  0.00    +0.230 C 
ATOM     18  O   UNL     1       1.121   3.978  -2.782  0.00  0.00    -0.274 OA
ENDBRANCH   4   7
BRANCH   1  19
ATOM     19  O   UNL     1       0.396  10.271  -3.716  0.00  0.00    -0.484 OA
BRANCH  19  20
ATOM     20  C   UNL     1      -0.252  11.368  -3.070  0.00  0.00    +0.308 C 
BRANCH  20  21
ATOM     21  C   UNL     1       0.074  12.645  -3.801  0.00  0.00    +0.200 C 
ATOM     22  O   UNL     1       0.791  12.618  -4.778  0.00  0.00    -0.288 OA
BRANCH  21  28
ATOM     23  C   UNL     1      -1.310  13.959  -2.204  0.00  0.00    +0.012 A 
ATOM     24  C   UNL     1      -1.819  15.162  -1.765  0.00  0.00    +0.016 A 
ATOM     25  C   UNL     1      -1.516  16.334  -2.439  0.00  0.00    +0.018 A 
ATOM     26  C   UNL     1      -0.697  16.307  -3.556  0.00  0.00    +0.016 A 
ATOM     27  C   UNL     1      -0.176  15.112  -4.004  0.00  0.00    +0.012 A 
ATOM     28  C   UNL     1      -0.477  13.925  -3.328  0.00  0.00    +0.021 A 
ATOM     29 BR   UNL     1      -2.225  17.978  -1.832  0.00  0.00    -0.050 Br
ENDBRANCH  21  28
ENDBRANCH  20  21
ENDBRANCH  19  20
ENDBRANCH   1  19
TORSDOF 5
