REMARK  Name = ZINC34734565
REMARK  7 active torsions:
REMARK  status: ('A' for Active; 'I' for Inactive)
REMARK    1  A    between atoms: C_1  and  C_2
REMARK    2  A    between atoms: C_2  and  N_3
REMARK    3  A    between atoms: C_18  and  C_20
REMARK    4  A    between atoms: C_18  and  C_21
REMARK    5  A    between atoms: N_24  and  C_25
REMARK    6  A    between atoms: C_25  and  C_26
REMARK    7  A    between atoms: C_26  and  C_27
REMARK                            x       y       z     vdW  Elec       q    Type
REMARK                         _______ _______ _______ _____ _____    ______ ____
ROOT
ATOM      1  N   UNL     1       1.212   0.403   2.046  0.00  0.00    +0.382 N 
ATOM      2  C   UNL     1       2.106   0.218   3.196  0.00  0.00    -0.060 C 
ATOM      3  C   UNL     1       2.353  -1.278   3.414  0.00  0.00    +0.089 C 
ATOM      4  N   UNL     1       1.051  -1.952   3.542  0.00  0.00    -0.304 N 
ATOM      5  C   UNL     1       0.033  -1.692   2.513  0.00  0.00    +0.089 C 
ATOM      6  C   UNL     1      -0.105  -0.176   2.337  0.00  0.00    -0.060 C 
ATOM      7  C   UNL     1       0.795  -2.800   4.591  0.00  0.00    +0.202 A 
ATOM      8  N   UNL     1       0.341  -2.309   5.726  0.00  0.00    -0.208 NA
ATOM      9  C   UNL     1       0.085  -3.106   6.757  0.00  0.00    +0.118 A 
ATOM     10  C   UNL     1       0.281  -4.496   6.694  0.00  0.00    +0.076 A 
ATOM     11  C   UNL     1      -0.044  -5.239   7.910  0.00  0.00    -0.018 A 
ATOM     12  C   UNL     1      -0.497  -4.527   8.964  0.00  0.00    +0.021 A 
ATOM     13  S   UNL     1      -0.517  -2.846   8.407  0.00  0.00    -0.071 S 
ATOM     14  C   UNL     1      -0.891  -5.075  10.300  0.00  0.00    +0.203 C 
ATOM     15  O   UNL     1      -1.008  -6.501  10.176  0.00  0.00    -0.368 OA
ATOM     16  C   UNL     1       0.108  -7.111   9.522  0.00  0.00    +0.068 C 
ATOM     17  C   UNL     1       0.106  -6.754   8.033  0.00  0.00    +0.071 C 
ATOM     18  C   UNL     1       1.405  -6.611  10.161  0.00  0.00    +0.041 C 
ATOM     19  C   UNL     1       0.021  -8.630   9.680  0.00  0.00    +0.041 C 
ATOM     20  C   UNL     1       0.774  -5.000   5.448  0.00  0.00    +0.264 A 
ATOM     21  O   UNL     1       0.975  -6.193   5.300  0.00  0.00    -0.267 OA
ATOM     22  N   UNL     1       1.008  -4.138   4.442  0.00  0.00    -0.280 N 
ATOM     23  H   UNL     1       1.609  -0.054   1.238  0.00  0.00    -0.082 HD
ENDROOT
BRANCH   1  25
ATOM     24  C   UNL     1       2.414   2.418   1.344  0.00  0.00    -0.017 C 
ATOM     25  C   UNL     1       1.064   1.838   1.769  0.00  0.00    -0.082 C 
ENDBRANCH   1  25
BRANCH  22  26
ATOM     26  C   UNL     1       1.508  -4.648   3.162  0.00  0.00    +0.133 C 
BRANCH  26  27
ATOM     27  C   UNL     1       3.030  -4.790   3.229  0.00  0.00    +0.057 C 
BRANCH  27  28
ATOM     28  C   UNL     1       3.543  -5.314   1.913  0.00  0.00    -0.046 A 
ATOM     29  C   UNL     1       3.651  -6.677   1.706  0.00  0.00    +0.004 A 
ATOM     30  C   UNL     1       4.122  -7.158   0.499  0.00  0.00    +0.000 A 
ATOM     31  C   UNL     1       4.486  -6.276  -0.502  0.00  0.00    +0.000 A 
ATOM     32  C   UNL     1       4.377  -4.913  -0.296  0.00  0.00    +0.000 A 
ATOM     33  C   UNL     1       3.902  -4.433   0.910  0.00  0.00    +0.004 A 
ENDBRANCH  27  28
ENDBRANCH  26  27
ENDBRANCH  22  26
TORSDOF 4
