REMARK  Name = ZINC06545780
REMARK  6 active torsions:
REMARK  status: ('A' for Active; 'I' for Inactive)
REMARK    1  A    between atoms: C_1  and  C_2
REMARK    2  A    between atoms: C_2  and  O_3
REMARK    3  A    between atoms: O_3  and  C_4
REMARK    4  A    between atoms: C_4  and  C_6
REMARK    5  A    between atoms: C_7  and  N_33
REMARK    6  A    between atoms: C_24  and  C_27
REMARK                            x       y       z     vdW  Elec       q    Type
REMARK                         _______ _______ _______ _____ _____    ______ ____
ROOT
ATOM      1  C   UNL     1       1.206   0.778  -4.927  0.00  0.00    +0.117 C 
ATOM      2  C   UNL     1      -0.144   0.851  -4.780  0.00  0.00    +0.195 C 
ATOM      3  O   UNL     1      -0.716   0.797  -3.569  0.00  0.00    -0.446 OA
ATOM      4  C   UNL     1       0.001   1.098  -2.469  0.00  0.00    +0.116 C 
ATOM      5  C   UNL     1       1.345   1.032  -2.470  0.00  0.00    +0.057 C 
ATOM      6  C   UNL     1       2.088   0.640  -3.720  0.00  0.00    +0.141 C 
ATOM      7  C   UNL     1       2.624  -0.753  -3.604  0.00  0.00    -0.002 A 
ATOM      8  C   UNL     1       1.989  -1.965  -3.438  0.00  0.00    +0.007 A 
ATOM      9  C   UNL     1       2.796  -3.095  -3.366  0.00  0.00    +0.000 A 
ATOM     10  C   UNL     1       4.170  -3.005  -3.457  0.00  0.00    +0.002 A 
ATOM     11  C   UNL     1       4.816  -1.790  -3.622  0.00  0.00    +0.023 A 
ATOM     12  C   UNL     1       4.017  -0.647  -3.695  0.00  0.00    +0.038 A 
ATOM     13  N   UNL     1       4.389   0.676  -3.854  0.00  0.00    -0.284 N 
ATOM     14  C   UNL     1       3.323   1.503  -3.877  0.00  0.00    +0.237 C 
ATOM     15  O   UNL     1       3.348   2.709  -4.001  0.00  0.00    -0.274 OA
ATOM     16  C   UNL     1       2.093   1.331  -1.314  0.00  0.00    +0.165 C 
ATOM     17  O   UNL     1       3.305   1.275  -1.358  0.00  0.00    -0.292 OA
ATOM     18  C   UNL     1       1.417   1.718  -0.027  0.00  0.00    +0.088 C 
ATOM     19  C   UNL     1       0.026   1.077   0.016  0.00  0.00    +0.034 C 
ATOM     20  C   UNL     1      -0.749   1.519  -1.227  0.00  0.00    +0.083 C 
ATOM     21  H   UNL     1       5.308   0.975  -3.939  0.00  0.00    +0.155 HD
ENDROOT
BRANCH  19  22
ATOM     22  C   UNL     1      -0.701   1.526   1.257  0.00  0.00    -0.043 A 
ATOM     23  C   UNL     1      -0.936   2.871   1.472  0.00  0.00    +0.004 A 
ATOM     24  C   UNL     1      -1.607   3.283   2.608  0.00  0.00    +0.000 A 
ATOM     25  C   UNL     1      -2.034   2.350   3.535  0.00  0.00    +0.000 A 
ATOM     26  C   UNL     1      -1.794   1.005   3.323  0.00  0.00    +0.000 A 
ATOM     27  C   UNL     1      -1.127   0.593   2.184  0.00  0.00    +0.004 A 
ENDBRANCH  19  22
BRANCH   2  28
ATOM     28  N   UNL     1      -0.934   0.982  -5.891  0.00  0.00    -0.329 N 
ATOM     29  H   UNL     1      -0.539   0.933  -6.775  0.00  0.00    +0.145 HD
ATOM     30  H   UNL     1      -1.888   1.123  -5.793  0.00  0.00    +0.145 HD
ENDBRANCH   2  28
BRANCH   1  31
ATOM     31  C   UNL     1       1.776   0.832  -6.209  0.00  0.00    +0.342 C 
ATOM     32  O   UNL     1       2.150  -0.192  -6.753  0.00  0.00    -0.245 OA
BRANCH  31  33
ATOM     33  O   UNL     1       1.909   2.019  -6.839  0.00  0.00    -0.462 OA
BRANCH  33  35
ATOM     34  C   UNL     1       2.563   3.425  -8.692  0.00  0.00    +0.048 C 
ATOM     35  C   UNL     1       2.497   2.000  -8.141  0.00  0.00    +0.229 C 
ENDBRANCH  33  35
ENDBRANCH  31  33
ENDBRANCH   1  31
TORSDOF 5
