REMARK  Name = ZINC20442277
REMARK  3 active torsions:
REMARK  status: ('A' for Active; 'I' for Inactive)
REMARK    1  A    between atoms: C_5  and  C_7
REMARK    2  A    between atoms: C_7  and  S_8
REMARK    3  A    between atoms: S_8  and  C_9
REMARK                            x       y       z     vdW  Elec       q    Type
REMARK                         _______ _______ _______ _____ _____    ______ ____
ROOT
ATOM      1  C   UNL     1      -3.541   2.142   0.046  0.00  0.00    +0.159 A 
ATOM      2  N   UNL     1      -2.487   1.365   0.033  0.00  0.00    -0.148 NA
ATOM      3  N   UNL     1      -1.202   1.894   0.018  0.00  0.00    -0.167 N 
ATOM      4  C   UNL     1      -0.015   1.217   0.009  0.00  0.00    +0.294 A 
ATOM      5  O   UNL     1       0.002  -0.004   0.002  0.00  0.00    -0.264 OA
ATOM      6  C   UNL     1       1.182   1.942   0.001  0.00  0.00    +0.207 A 
ATOM      7  N   UNL     1       1.165   3.259   0.008  0.00  0.00    -0.150 NA
ATOM      8  N   UNL     1       0.042   3.894   0.022  0.00  0.00    -0.122 NA
ATOM      9  C   UNL     1      -1.103   3.257   0.029  0.00  0.00    +0.220 A 
ATOM     10  S   UNL     1      -2.805   3.769   0.048  0.00  0.00    -0.020 S 
ENDROOT
BRANCH   1  11
ATOM     11  S   UNL     1      -5.245   1.696   0.060  0.00  0.00    -0.092 S 
BRANCH  11  12
ATOM     12  C   UNL     1      -5.099  -0.108   0.051  0.00  0.00    +0.113 C 
BRANCH  12  17
ATOM     13  C   UNL     1      -8.354  -1.579   1.272  0.00  0.00    +0.000 A 
ATOM     14  C   UNL     1      -8.997  -1.856   0.080  0.00  0.00    +0.001 A 
ATOM     15  C   UNL     1      -8.379  -1.567  -1.122  0.00  0.00    +0.020 A 
ATOM     16  C   UNL     1      -7.117  -1.001  -1.132  0.00  0.00    +0.045 A 
ATOM     17  C   UNL     1      -6.474  -0.724   0.061  0.00  0.00    -0.019 A 
ATOM     18  C   UNL     1      -7.091  -1.018   1.262  0.00  0.00    +0.006 A 
ATOM     19 CL   UNL     1      -6.339  -0.640  -2.642  0.00  0.00    -0.083 Cl
ENDBRANCH  12  17
ENDBRANCH  11  12
ENDBRANCH   1  11
TORSDOF 3
