REMARK  Name = ZINC65528114
REMARK  4 active torsions:
REMARK  status: ('A' for Active; 'I' for Inactive)
REMARK    1  A    between atoms: C_1  and  C_2
REMARK    2  A    between atoms: C_3  and  C_12
REMARK    3  A    between atoms: C_22  and  C_26
REMARK    4  A    between atoms: N_28  and  C_29
REMARK                            x       y       z     vdW  Elec       q    Type
REMARK                         _______ _______ _______ _____ _____    ______ ____
ROOT
ATOM      1  C   UNL     1       0.215  -0.325  -2.527  0.00  0.00    +0.056 C 
ATOM      2  C   UNL     1      -0.935   0.614  -2.822  0.00  0.00    +0.106 C 
ATOM      3  C   UNL     1      -0.697   1.412  -4.066  0.00  0.00    +0.215 C 
ATOM      4  O   UNL     1      -1.644   1.939  -4.609  0.00  0.00    -0.276 OA
ATOM      5  N   UNL     1       0.514   1.568  -4.600  0.00  0.00    -0.292 N 
ATOM      6  C   UNL     1       1.729   0.983  -4.092  0.00  0.00    +0.220 C 
ATOM      7  C   UNL     1       1.576   0.309  -2.725  0.00  0.00    +0.078 C 
ATOM      8  C   UNL     1       2.626  -0.827  -2.881  0.00  0.00    +0.220 C 
ATOM      9  N   UNL     1       2.731  -1.007  -4.336  0.00  0.00    -0.177 NA
ATOM     10  N   UNL     1       2.257  -0.063  -4.972  0.00  0.00    -0.169 NA
ATOM     11  H   UNL     1       0.583   2.118  -5.396  0.00  0.00    +0.151 HD
ENDROOT
BRANCH   1  14
ATOM     12  C   UNL     1      -0.249  -3.265  -1.574  0.00  0.00    +0.067 C 
ATOM     13  C   UNL     1      -0.097  -2.060  -0.681  0.00  0.00    +0.060 A 
ATOM     14  C   UNL     1       0.103  -0.790  -1.098  0.00  0.00    +0.050 A 
ATOM     15  N   UNL     1       0.186  -0.006   0.020  0.00  0.00    -0.302 N 
ATOM     16  C   UNL     1       0.379   1.334   0.196  0.00  0.00    +0.113 A 
ATOM     17  C   UNL     1       0.421   1.865   1.437  0.00  0.00    +0.058 A 
ATOM     18  C   UNL     1       0.265   1.042   2.566  0.00  0.00    +0.025 A 
ATOM     19  C   UNL     1       0.072  -0.294   2.404  0.00  0.00    +0.048 A 
ATOM     20  C   UNL     1       0.031  -0.834   1.102  0.00  0.00    +0.138 A 
ATOM     21  N   UNL     1      -0.143  -2.069   0.653  0.00  0.00    -0.233 NA
ATOM     22 CL   UNL     1       0.668   3.571   1.639  0.00  0.00    -0.082 Cl
ENDBRANCH   1  14
BRANCH   8  23
ATOM     23  C   UNL     1       3.952  -0.406  -2.299  0.00  0.00    +0.240 C 
ATOM     24  O   UNL     1       4.837  -0.014  -3.030  0.00  0.00    -0.273 OA
ATOM     25  N   UNL     1       4.153  -0.467  -0.968  0.00  0.00    -0.317 N 
ATOM     26  C   UNL     1       5.441  -0.058  -0.403  0.00  0.00    +0.128 C 
ATOM     27  H   UNL     1       3.445  -0.781  -0.384  0.00  0.00    +0.148 HD
ENDBRANCH   8  23
TORSDOF 2
