REMARK  Name = ZINC63433514
REMARK  8 active torsions:
REMARK  status: ('A' for Active; 'I' for Inactive)
REMARK    1  A    between atoms: C_1  and  C_2
REMARK    2  A    between atoms: C_6  and  N_9
REMARK    3  A    between atoms: C_7  and  C_8
REMARK    4  A    between atoms: N_9  and  C_10
REMARK    5  A    between atoms: C_11  and  C_13
REMARK    6  A    between atoms: N_15  and  C_16
REMARK    7  A    between atoms: N_19  and  C_22
REMARK    8  A    between atoms: C_22  and  C_23
REMARK                            x       y       z     vdW  Elec       q    Type
REMARK                         _______ _______ _______ _____ _____    ______ ____
ROOT
ATOM      1  C   UNL     1      -0.766  -3.876   4.443  0.00  0.00    +0.300 C 
ATOM      2  O   UNL     1       0.255  -4.088   5.064  0.00  0.00    -0.265 OA
ATOM      3  N   UNL     1      -1.955  -4.259   4.949  0.00  0.00    -0.305 N 
ATOM      4  H   UNL     1      -2.771  -4.089   4.452  0.00  0.00    +0.149 HD
ENDROOT
BRANCH   3   5
ATOM      5  C   UNL     1      -2.016  -4.931   6.248  0.00  0.00    +0.070 C 
ATOM      6  C   UNL     1      -1.789  -6.434   6.059  0.00  0.00    +0.003 C 
ATOM      7  C   UNL     1      -1.933  -7.140   7.408  0.00  0.00    -0.077 C 
ATOM      8  N   UNL     1      -3.280  -6.911   7.944  0.00  0.00    +0.380 N 
ATOM      9  C   UNL     1      -3.479  -5.479   8.196  0.00  0.00    -0.077 C 
ATOM     10  C   UNL     1      -3.395  -4.708   6.876  0.00  0.00    +0.003 C 
ATOM     11  H   UNL     1      -3.965  -7.232   7.277  0.00  0.00    -0.082 HD
BRANCH   8  12
ATOM     12  C   UNL     1      -3.439  -7.655   9.201  0.00  0.00    -0.075 C 
BRANCH  12  13
ATOM     13  C   UNL     1      -3.393  -9.157   8.914  0.00  0.00    -0.028 C 
ATOM     14  C   UNL     1      -4.615  -9.571   8.069  0.00  0.00    +0.002 C 
ATOM     15  C   UNL     1      -5.002 -10.967   8.620  0.00  0.00    +0.000 C 
ATOM     16  C   UNL     1      -4.753 -10.815  10.141  0.00  0.00    +0.000 C 
ATOM     17  C   UNL     1      -3.480  -9.948  10.231  0.00  0.00    +0.002 C 
ENDBRANCH  12  13
ENDBRANCH   8  12
ENDBRANCH   3   5
BRANCH   1  20
ATOM     18  N   UNL     1       0.490  -2.907   2.560  0.00  0.00    -0.266 N 
ATOM     19  C   UNL     1       0.554  -2.140   1.314  0.00  0.00    +0.139 C 
ATOM     20  C   UNL     1      -0.704  -3.190   3.118  0.00  0.00    +0.305 C 
ATOM     21  O   UNL     1      -1.729  -2.887   2.542  0.00  0.00    -0.265 OA
BRANCH  18  27
ATOM     22  C   UNL     1       3.945  -6.362   3.099  0.00  0.00    +0.044 C 
ATOM     23  C   UNL     1       3.365  -5.017   3.452  0.00  0.00    -0.046 A 
ATOM     24  C   UNL     1       3.999  -4.214   4.383  0.00  0.00    +0.004 A 
ATOM     25  C   UNL     1       3.471  -2.979   4.710  0.00  0.00    +0.002 A 
ATOM     26  C   UNL     1       2.307  -2.542   4.107  0.00  0.00    +0.024 A 
ATOM     27  C   UNL     1       1.668  -3.346   3.172  0.00  0.00    +0.040 A 
ATOM     28  C   UNL     1       2.204  -4.584   2.841  0.00  0.00    -0.026 A 
ATOM     29  C   UNL     1       1.518  -5.457   1.823  0.00  0.00    +0.046 C 
ENDBRANCH  18  27
ENDBRANCH   1  20
TORSDOF 5
