REMARK  Name = ZINC07032645
REMARK  5 active torsions:
REMARK  status: ('A' for Active; 'I' for Inactive)
REMARK    1  A    between atoms: C_1  and  C_2
REMARK    2  A    between atoms: C_2  and  C_4
REMARK    3  A    between atoms: C_2  and  O_11
REMARK    4  A    between atoms: N_9  and  C_10
REMARK    5  A    between atoms: O_11  and  C_12
REMARK                            x       y       z     vdW  Elec       q    Type
REMARK                         _______ _______ _______ _____ _____    ______ ____
ROOT
ATOM      1  C   UNL     1      -3.900   2.890   1.623  0.00  0.00    +0.062 C 
ATOM      2  C   UNL     1      -3.608   2.628   0.144  0.00  0.00    +0.256 C 
ENDROOT
BRANCH   2   3
ATOM      3  C   UNL     1      -4.751   1.857  -0.464  0.00  0.00    +0.261 C 
ATOM      4  O   UNL     1      -4.571   0.729  -0.872  0.00  0.00    -0.271 OA
ATOM      5  N   UNL     1      -5.971   2.420  -0.556  0.00  0.00    -0.237 N 
ATOM      6  C   UNL     1      -6.993   1.730  -1.101  0.00  0.00    +0.306 C 
ATOM      7  O   UNL     1      -6.813   0.600  -1.509  0.00  0.00    -0.252 OA
ATOM      8  N   UNL     1      -8.214   2.294  -1.193  0.00  0.00    -0.302 N 
ATOM      9  C   UNL     1      -9.324   1.544  -1.785  0.00  0.00    +0.129 C 
ATOM     10  H   UNL     1      -6.115   3.323  -0.231  0.00  0.00    +0.159 HD
ATOM     11  H   UNL     1      -8.357   3.196  -0.867  0.00  0.00    +0.150 HD
ENDBRANCH   2   3
BRANCH   2  12
ATOM     12  O   UNL     1      -2.403   1.870   0.024  0.00  0.00    -0.479 OA
BRANCH  12  13
ATOM     13  C   UNL     1      -1.234   2.565   0.022  0.00  0.00    +0.136 A 
ATOM     14  C   UNL     1      -1.240   3.933   0.248  0.00  0.00    +0.049 A 
ATOM     15  C   UNL     1      -0.052   4.639   0.241  0.00  0.00    +0.042 A 
ATOM     16  C   UNL     1       1.145   3.980   0.013  0.00  0.00    +0.125 A 
ATOM     17  C   UNL     1       1.153   2.613  -0.208  0.00  0.00    +0.057 A 
ATOM     18  C   UNL     1      -0.034   1.904  -0.202  0.00  0.00    +0.062 A 
ATOM     19 BR   UNL     1      -0.024   0.038  -0.504  0.00  0.00    -0.046 Br
ATOM     20  F   UNL     1       2.305   4.671   0.006  0.00  0.00    -0.205 F 
ENDBRANCH  12  13
ENDBRANCH   2  12
TORSDOF 3
