REMARK  Name = ZINC35114886
REMARK  3 active torsions:
REMARK  status: ('A' for Active; 'I' for Inactive)
REMARK    1  A    between atoms: C_1  and  C_2
REMARK    2  A    between atoms: C_10  and  C_11
REMARK    3  A    between atoms: C_17  and  O_20
REMARK                            x       y       z     vdW  Elec       q    Type
REMARK                         _______ _______ _______ _____ _____    ______ ____
ROOT
ATOM      1  C   UNL     1       0.552   1.435   0.014  0.00  0.00    +0.048 C 
ATOM      2  C   UNL     1       0.192  -0.029   0.003  0.00  0.00    +0.008 A 
ATOM      3  C   UNL     1       0.023  -0.884  -1.171  0.00  0.00    +0.025 A 
ATOM      4  C   UNL     1       0.123  -0.677  -2.549  0.00  0.00    +0.032 A 
ATOM      5  C   UNL     1      -0.103  -1.717  -3.408  0.00  0.00    +0.042 A 
ATOM      6  C   UNL     1      -0.430  -2.976  -2.918  0.00  0.00    +0.023 A 
ATOM      7  C   UNL     1      -0.533  -3.199  -1.563  0.00  0.00    +0.048 A 
ATOM      8  C   UNL     1      -0.307  -2.158  -0.670  0.00  0.00    +0.136 A 
ATOM      9  O   UNL     1      -0.333  -2.072   0.674  0.00  0.00    -0.450 OA
ATOM     10  C   UNL     1      -0.035  -0.821   1.083  0.00  0.00    +0.194 A 
ATOM     11 CL   UNL     1       0.020  -1.462  -5.120  0.00  0.00    -0.084 Cl
ENDROOT
BRANCH  10  12
ATOM     12  C   UNL     1       0.032  -0.382   2.484  0.00  0.00    +0.282 C 
ATOM     13  O   UNL     1       0.159   0.799   2.745  0.00  0.00    -0.267 OA
ATOM     14  N   UNL     1      -0.048  -1.288   3.478  0.00  0.00    -0.293 N 
ATOM     15  C   UNL     1      -0.157  -0.855   4.878  0.00  0.00    +0.108 C 
ATOM     16  C   UNL     1       0.949  -1.534   5.692  0.00  0.00    +0.021 C 
ATOM     17  C   UNL     1       0.865  -3.049   5.495  0.00  0.00    +0.034 C 
ATOM     18  C   UNL     1       1.077  -3.385   4.017  0.00  0.00    +0.132 C 
ATOM     19  C   UNL     1      -0.033  -2.727   3.183  0.00  0.00    +0.139 C 
BRANCH  18  20
ATOM     20  O   UNL     1       1.030  -4.802   3.838  0.00  0.00    -0.390 OA
ATOM     21  H   UNL     1       1.158  -5.088   2.923  0.00  0.00    +0.210 HD
ENDBRANCH  18  20
ENDBRANCH  10  12
TORSDOF 2
