REMARK  Name = ZINC49932078
REMARK  4 active torsions:
REMARK  status: ('A' for Active; 'I' for Inactive)
REMARK    1  A    between atoms: C_3  and  N_21
REMARK    2  A    between atoms: C_4  and  N_18
REMARK    3  A    between atoms: C_6  and  C_7
REMARK    4  A    between atoms: N_9  and  C_10
REMARK                            x       y       z     vdW  Elec       q    Type
REMARK                         _______ _______ _______ _____ _____    ______ ____
ROOT
ATOM      1  C   UNL     1       0.103   1.736   0.052  0.00  0.00    +0.015 A 
ATOM      2  C   UNL     1       1.256   2.487   0.049  0.00  0.00    +0.026 A 
ATOM      3  C   UNL     1       2.498   1.858   0.039  0.00  0.00    +0.055 A 
ATOM      4  C   UNL     1       2.578   0.468   0.032  0.00  0.00    +0.147 A 
ATOM      5  C   UNL     1       1.428  -0.288   0.035  0.00  0.00    +0.047 A 
ATOM      6  C   UNL     1       0.179   0.341   0.045  0.00  0.00    +0.039 A 
ENDROOT
BRANCH   6   7
ATOM      7  C   UNL     1      -1.055  -0.467   0.049  0.00  0.00    +0.248 C 
ATOM      8  O   UNL     1      -0.987  -1.681   0.043  0.00  0.00    -0.270 OA
ATOM      9  N   UNL     1      -2.258   0.140   0.059  0.00  0.00    -0.280 N 
ATOM     10  H   UNL     1      -2.314   1.105  -0.020  0.00  0.00    +0.155 HD
BRANCH   9  11
ATOM     11  C   UNL     1      -3.425  -0.622   0.183  0.00  0.00    +0.052 A 
ATOM     12  C   UNL     1      -3.381  -1.869   0.792  0.00  0.00    +0.026 A 
ATOM     13  C   UNL     1      -4.534  -2.618   0.913  0.00  0.00    +0.017 A 
ATOM     14  C   UNL     1      -5.734  -2.128   0.427  0.00  0.00    +0.019 A 
ATOM     15  C   UNL     1      -5.782  -0.887  -0.181  0.00  0.00    +0.037 A 
ATOM     16  C   UNL     1      -4.632  -0.129  -0.299  0.00  0.00    +0.063 A 
ATOM     17 CL   UNL     1      -4.694   1.433  -1.055  0.00  0.00    -0.082 Cl
ATOM     18 BR   UNL     1      -7.311  -3.159   0.595  0.00  0.00    -0.050 Br
ENDBRANCH   9  11
ENDBRANCH   6   7
BRANCH   4  19
ATOM     19  N   UNL     1       3.900  -0.197   0.020  0.00  0.00    +0.058 N 
ATOM     20  O   UNL     1       4.054  -1.226  -0.595  0.00  0.00    -0.126 OA
ATOM     21  O   UNL     1       4.827   0.290   0.625  0.00  0.00    -0.126 OA
ENDBRANCH   4  19
BRANCH   3  22
ATOM     22  N   UNL     1       3.661   2.620   0.036  0.00  0.00    -0.356 N 
ATOM     23  H   UNL     1       3.608   3.586  -0.032  0.00  0.00    +0.142 HD
ATOM     24  H   UNL     1       4.526   2.185   0.100  0.00  0.00    +0.142 HD
ENDBRANCH   3  22
TORSDOF 4
