REMARK  Name = ZINC29767524
REMARK  5 active torsions:
REMARK  status: ('A' for Active; 'I' for Inactive)
REMARK    1  A    between atoms: C_1  and  C_2
REMARK    2  A    between atoms: C_3  and  C_13
REMARK    3  A    between atoms: C_5  and  C_7
REMARK    4  A    between atoms: C_17  and  C_26
REMARK    5  A    between atoms: N_28  and  C_29
REMARK                            x       y       z     vdW  Elec       q    Type
REMARK                         _______ _______ _______ _____ _____    ______ ____
ROOT
ATOM      1  C   UNL     1       3.507   0.672  -0.032  0.00  0.00    +0.273 C 
ATOM      2  O   UNL     1       2.296   0.691  -0.143  0.00  0.00    -0.268 OA
ATOM      3  N   UNL     1       4.157  -0.505   0.055  0.00  0.00    -0.259 N 
ATOM      4  C   UNL     1       5.616  -0.558   0.256  0.00  0.00    +0.168 C 
ATOM      5  C   UNL     1       6.174  -1.657  -0.654  0.00  0.00    +0.276 C 
ATOM      6  O   UNL     1       5.537  -2.895  -0.329  0.00  0.00    -0.476 OA
ATOM      7  C   UNL     1       4.181  -2.906  -0.246  0.00  0.00    +0.143 A 
ATOM      8  C   UNL     1       3.469  -1.725  -0.049  0.00  0.00    +0.079 A 
ATOM      9  C   UNL     1       2.087  -1.753   0.044  0.00  0.00    +0.027 A 
ATOM     10  C   UNL     1       1.413  -2.956  -0.062  0.00  0.00    +0.002 A 
ATOM     11  C   UNL     1       2.117  -4.129  -0.261  0.00  0.00    +0.004 A 
ATOM     12  C   UNL     1       3.497  -4.107  -0.352  0.00  0.00    +0.047 A 
ENDROOT
BRANCH   1  15
ATOM     13  C   UNL     1       2.273   3.550   0.018  0.00  0.00    +0.089 C 
ATOM     14  C   UNL     1       3.737   3.193   0.030  0.00  0.00    +0.135 A 
ATOM     15  C   UNL     1       4.264   1.937   0.009  0.00  0.00    +0.167 A 
ATOM     16  N   UNL     1       5.616   2.066   0.032  0.00  0.00    -0.204 NA
ATOM     17  C   UNL     1       5.909   3.341   0.066  0.00  0.00    +0.228 A 
ATOM     18  O   UNL     1       4.768   4.053   0.066  0.00  0.00    -0.440 OA
BRANCH  17  19
ATOM     19  C   UNL     1       7.274   3.908   0.100  0.00  0.00    +0.037 A 
ATOM     20  C   UNL     1       8.380   3.064   0.211  0.00  0.00    +0.013 A 
ATOM     21  C   UNL     1       9.652   3.599   0.237  0.00  0.00    +0.001 A 
ATOM     22  C   UNL     1       9.831   4.968   0.164  0.00  0.00    +0.000 A 
ATOM     23  C   UNL     1       8.739   5.811   0.059  0.00  0.00    +0.001 A 
ATOM     24  C   UNL     1       7.462   5.289   0.027  0.00  0.00    +0.013 A 
ENDBRANCH  17  19
ENDBRANCH   1  15
BRANCH   5  25
ATOM     25  C   UNL     1       7.661  -1.783  -0.442  0.00  0.00    +0.255 C 
ATOM     26  O   UNL     1       8.121  -2.798   0.035  0.00  0.00    -0.272 OA
ATOM     27  N   UNL     1       8.478  -0.766  -0.781  0.00  0.00    -0.315 N 
ATOM     28  C   UNL     1       9.924  -0.889  -0.575  0.00  0.00    +0.128 C 
ATOM     29  H   UNL     1       8.060   0.155  -1.213  0.00  0.00    +0.148 HD
ENDBRANCH   5  25
TORSDOF 3
