REMARK  Name = ZINC16361948
REMARK  2 active torsions:
REMARK  status: ('A' for Active; 'I' for Inactive)
REMARK    1  A    between atoms: C_4  and  C_7
REMARK    2  A    between atoms: C_7  and  C_21
REMARK                            x       y       z     vdW  Elec       q    Type
REMARK                         _______ _______ _______ _____ _____    ______ ____
ROOT
ATOM      1  C   UNL     1      -2.238   1.218  -1.133  0.00  0.00    +0.087 C 
ATOM      2  C   UNL     1      -0.757   1.595  -1.227  0.00  0.00    +0.031 C 
ATOM      3  C   UNL     1      -0.013   1.086   0.008  0.00  0.00    +0.038 C 
ATOM      4  C   UNL     1      -0.732   1.580   1.260  0.00  0.00    -0.023 A 
ATOM      5  C   UNL     1      -2.018   2.005   1.189  0.00  0.00    -0.003 A 
ATOM      6  S   UNL     1      -2.441   2.480   2.847  0.00  0.00    -0.075 S 
ATOM      7  C   UNL     1      -0.902   2.109   3.626  0.00  0.00    +0.092 A 
ATOM      8  C   UNL     1      -0.104   1.625   2.566  0.00  0.00    +0.075 A 
ATOM      9  C   UNL     1       1.238   1.230   2.887  0.00  0.00    +0.281 A 
ATOM     10  O   UNL     1       2.007   0.800   2.045  0.00  0.00    -0.265 OA
ATOM     11  N   UNL     1       1.595   1.367   4.186  0.00  0.00    -0.199 NA
ATOM     12  C   UNL     1       0.756   1.843   5.138  0.00  0.00    +0.201 A 
ATOM     13  N   UNL     1      -0.479   2.215   4.882  0.00  0.00    -0.340 N 
ATOM     14  C   UNL     1      -2.890   2.061  -0.027  0.00  0.00    +0.069 C 
ATOM     15  H   UNL     1      -1.155   2.602   5.659  0.00  0.00    +0.167 HD
ENDROOT
BRANCH   1  19
ATOM     16  C   UNL     1      -4.160   2.016  -4.863  0.00  0.00    +0.000 A 
ATOM     17  C   UNL     1      -4.886   1.495  -3.809  0.00  0.00    +0.000 A 
ATOM     18  C   UNL     1      -4.265   1.237  -2.602  0.00  0.00    +0.005 A 
ATOM     19  C   UNL     1      -2.916   1.500  -2.449  0.00  0.00    -0.027 A 
ATOM     20  C   UNL     1      -2.191   2.026  -3.501  0.00  0.00    +0.005 A 
ATOM     21  C   UNL     1      -2.812   2.279  -4.710  0.00  0.00    +0.000 A 
ENDBRANCH   1  19
BRANCH   1  22
ATOM     22  C   UNL     1      -2.365  -0.212  -0.807  0.00  0.00    +0.074 C 
ATOM     23  N   UNL     1      -2.463  -1.315  -0.556  0.00  0.00    -0.196 NA
ENDBRANCH   1  22
TORSDOF 2
