REMARK  Name = ZINC44448459
REMARK  1 active torsions:
REMARK  status: ('A' for Active; 'I' for Inactive)
REMARK    1  A    between atoms: C_8  and  C_11
REMARK                            x       y       z     vdW  Elec       q    Type
REMARK                         _______ _______ _______ _____ _____    ______ ____
ROOT
ATOM      1  C   UNL     1      -0.016   1.344   0.009  0.00  0.00    +0.019 A 
ATOM      2  C   UNL     1       1.323   1.786  -0.001  0.00  0.00    +0.019 A 
ATOM      3  C   UNL     1       2.110   0.692  -0.014  0.00  0.00    +0.093 A 
ATOM      4  N   UNL     1       1.306  -0.413  -0.013  0.00  0.00    -0.302 N 
ATOM      5  C   UNL     1       0.002  -0.004   0.002  0.00  0.00    +0.093 A 
ATOM      6  C   UNL     1       1.743  -1.736  -0.024  0.00  0.00    +0.178 A 
ATOM      7  N   UNL     1       1.032  -2.844  -0.029  0.00  0.00    -0.218 NA
ATOM      8  C   UNL     1       1.679  -4.013  -0.041  0.00  0.00    +0.135 A 
ATOM      9  C   UNL     1       3.046  -4.012  -0.049  0.00  0.00    +0.081 A 
ATOM     10  S   UNL     1       3.410  -2.369  -0.045  0.00  0.00    -0.057 S 
ENDROOT
BRANCH   8  11
ATOM     11  C   UNL     1       0.932  -5.281  -0.046  0.00  0.00    +0.269 C 
ATOM     12  O   UNL     1       1.531  -6.340  -0.057  0.00  0.00    -0.268 OA
ATOM     13  N   UNL     1      -0.416  -5.269  -0.039  0.00  0.00    -0.259 N 
ATOM     14  C   UNL     1      -1.121  -6.466  -0.044  0.00  0.00    +0.165 A 
ATOM     15  N   UNL     1      -0.648  -7.693  -0.050  0.00  0.00    -0.233 NA
ATOM     16  C   UNL     1      -1.457  -8.736  -0.054  0.00  0.00    +0.120 A 
ATOM     17  C   UNL     1      -2.789  -8.483  -0.052  0.00  0.00    +0.068 A 
ATOM     18  S   UNL     1      -2.788  -6.697  -0.037  0.00  0.00    -0.061 S 
ATOM     19  H   UNL     1      -0.893  -4.425  -0.030  0.00  0.00    +0.157 HD
ENDBRANCH   8  11
TORSDOF 1
