REMARK  Name = ZINC66340785
REMARK  6 active torsions:
REMARK  status: ('A' for Active; 'I' for Inactive)
REMARK    1  A    between atoms: C_1  and  C_2
REMARK    2  A    between atoms: C_2  and  C_4
REMARK    3  A    between atoms: C_2  and  N_21
REMARK    4  A    between atoms: C_4  and  C_5
REMARK    5  A    between atoms: C_13  and  C_15
REMARK    6  A    between atoms: C_22  and  C_24
REMARK                            x       y       z     vdW  Elec       q    Type
REMARK                         _______ _______ _______ _____ _____    ______ ____
ROOT
ATOM      1  C   UNL     1      -0.483  -2.571  -2.332  0.00  0.00    +0.217 C 
ATOM      2  O   UNL     1      -1.053  -3.213  -1.475  0.00  0.00    -0.276 OA
ATOM      3  N   UNL     1       0.411  -3.172  -3.142  0.00  0.00    -0.298 N 
ATOM      4  C   UNL     1       1.113  -2.405  -4.181  0.00  0.00    +0.126 C 
ATOM      5  C   UNL     1       2.623  -2.581  -3.983  0.00  0.00    +0.126 C 
ATOM      6  N   UNL     1       2.915  -4.015  -3.843  0.00  0.00    -0.298 N 
ATOM      7  C   UNL     1       2.213  -4.782  -2.804  0.00  0.00    +0.126 C 
ATOM      8  C   UNL     1       0.706  -4.604  -2.997  0.00  0.00    +0.126 C 
ATOM      9  C   UNL     1       3.809  -4.616  -4.652  0.00  0.00    +0.219 C 
ATOM     10  O   UNL     1       4.111  -5.776  -4.467  0.00  0.00    -0.275 OA
ENDROOT
BRANCH   9  11
ATOM     11  C   UNL     1       4.433  -3.847  -5.788  0.00  0.00    +0.075 C 
ATOM     12  C   UNL     1       5.641  -3.064  -5.271  0.00  0.00    +0.013 C 
ATOM     13  C   UNL     1       6.275  -2.283  -6.423  0.00  0.00    +0.001 C 
ATOM     14  C   UNL     1       6.728  -3.258  -7.512  0.00  0.00    +0.000 C 
ATOM     15  C   UNL     1       5.519  -4.041  -8.030  0.00  0.00    +0.001 C 
ATOM     16  C   UNL     1       4.885  -4.822  -6.877  0.00  0.00    +0.013 C 
ENDBRANCH   9  11
BRANCH   1  17
ATOM     17  C   UNL     1      -0.776  -1.101  -2.492  0.00  0.00    +0.118 C 
BRANCH  17  19
ATOM     18  C   UNL     1      -2.208   0.786  -1.698  0.00  0.00    +0.028 C 
ATOM     19  C   UNL     1      -1.819  -0.674  -1.457  0.00  0.00    +0.079 C 
BRANCH  19  20
ATOM     20  N   UNL     1      -1.257  -0.813  -0.111  0.00  0.00    -0.312 N 
ATOM     21  C   UNL     1      -2.074  -0.991   0.946  0.00  0.00    +0.216 C 
ATOM     22  O   UNL     1      -3.275  -1.036   0.782  0.00  0.00    -0.276 OA
ATOM     23  H   UNL     1      -0.296  -0.777   0.019  0.00  0.00    +0.149 HD
BRANCH  21  24
ATOM     24  C   UNL     1      -1.496  -1.134   2.330  0.00  0.00    +0.075 C 
ATOM     25  C   UNL     1      -0.568  -2.350   2.372  0.00  0.00    +0.013 C 
ATOM     26  C   UNL     1       0.019  -2.495   3.777  0.00  0.00    +0.001 C 
ATOM     27  C   UNL     1      -1.115  -2.684   4.786  0.00  0.00    +0.000 C 
ATOM     28  C   UNL     1      -2.043  -1.469   4.745  0.00  0.00    +0.001 C 
ATOM     29  C   UNL     1      -2.630  -1.323   3.339  0.00  0.00    +0.013 C 
ENDBRANCH  21  24
ENDBRANCH  19  20
ENDBRANCH  17  19
ENDBRANCH   1  17
TORSDOF 5
