REMARK  Name = ZINC13980780
REMARK  5 active torsions:
REMARK  status: ('A' for Active; 'I' for Inactive)
REMARK    1  A    between atoms: C_3  and  S_18
REMARK    2  A    between atoms: C_6  and  N_7
REMARK    3  A    between atoms: N_8  and  C_9
REMARK    4  A    between atoms: C_14  and  O_15
REMARK    5  A    between atoms: S_18  and  N_21
REMARK                            x       y       z     vdW  Elec       q    Type
REMARK                         _______ _______ _______ _____ _____    ______ ____
ROOT
ATOM      1  C   UNL     1      -0.017   1.393   0.010  0.00  0.00    +0.031 A 
ATOM      2  C   UNL     1       1.170   2.096   0.002  0.00  0.00    +0.030 A 
ATOM      3  C   UNL     1       2.378   1.420  -0.013  0.00  0.00    +0.106 A 
ATOM      4  C   UNL     1       2.404   0.036  -0.022  0.00  0.00    +0.030 A 
ATOM      5  C   UNL     1       1.225  -0.679  -0.014  0.00  0.00    +0.031 A 
ATOM      6  C   UNL     1       0.002  -0.004   0.002  0.00  0.00    +0.086 A 
ENDROOT
BRANCH   3   7
ATOM      7  S   UNL     1       3.889   2.326  -0.024  0.00  0.00    +0.061 S 
ATOM      8  O   UNL     1       4.872   1.470  -0.589  0.00  0.00    -0.153 OA
ATOM      9  O   UNL     1       3.592   3.606  -0.565  0.00  0.00    -0.153 OA
BRANCH   7  10
ATOM     10  N   UNL     1       4.325   2.569   1.555  0.00  0.00    -0.172 NA
ATOM     11  C   UNL     1       3.870   3.759   2.292  0.00  0.00    +0.137 C 
ATOM     12  C   UNL     1       3.261   3.302   3.622  0.00  0.00    +0.177 C 
ATOM     13  O   UNL     1       4.193   2.454   4.299  0.00  0.00    -0.377 OA
ATOM     14  C   UNL     1       4.505   1.249   3.595  0.00  0.00    +0.177 C 
ATOM     15  C   UNL     1       5.172   1.598   2.265  0.00  0.00    +0.137 C 
ENDBRANCH   7  10
ENDBRANCH   3   7
BRANCH   6  16
ATOM     16  N   UNL     1      -1.171  -0.707   0.010  0.00  0.00    -0.149 NA
ATOM     17  N   UNL     1      -1.149  -1.997   0.003  0.00  0.00    -0.146 NA
BRANCH  17  18
ATOM     18  C   UNL     1      -2.320  -2.698   0.011  0.00  0.00    +0.130 A 
ATOM     19  C   UNL     1      -3.544  -2.023   0.021  0.00  0.00    +0.053 A 
ATOM     20  C   UNL     1      -4.723  -2.738   0.028  0.00  0.00    +0.044 A 
ATOM     21  C   UNL     1      -4.700  -4.125   0.026  0.00  0.00    +0.039 A 
ATOM     22  C   UNL     1      -3.497  -4.804   0.017  0.00  0.00    +0.063 A 
ATOM     23  C   UNL     1      -2.302  -4.101   0.003  0.00  0.00    +0.158 A 
ATOM     24 BR   UNL     1      -3.480  -6.695   0.015  0.00  0.00    -0.046 Br
ATOM     25 CL   UNL     1      -6.243  -1.899   0.040  0.00  0.00    -0.083 Cl
BRANCH  23  26
ATOM     26  O   UNL     1      -1.119  -4.767  -0.012  0.00  0.00    -0.504 OA
ATOM     27  H   UNL     1      -0.767  -4.965   0.867  0.00  0.00    +0.292 HD
ENDBRANCH  23  26
ENDBRANCH  17  18
ENDBRANCH   6  16
TORSDOF 5
