REMARK  Name = ZINC39637277
REMARK  8 active torsions:
REMARK  status: ('A' for Active; 'I' for Inactive)
REMARK    1  A    between atoms: C_1  and  C_2
REMARK    2  A    between atoms: C_7  and  N_12
REMARK    3  A    between atoms: C_9  and  C_11
REMARK    4  A    between atoms: C_13  and  C_15
REMARK    5  A    between atoms: C_26  and  C_28
REMARK    6  A    between atoms: C_28  and  C_30
REMARK    7  A    between atoms: C_28  and  O_31
REMARK    8  A    between atoms: O_31  and  C_32
REMARK                            x       y       z     vdW  Elec       q    Type
REMARK                         _______ _______ _______ _____ _____    ______ ____
ROOT
ATOM      1  C   UNL     1       2.787  -4.196   3.621  0.00  0.00    +0.100 C 
ATOM      2  C   UNL     1       4.067  -3.371   3.882  0.00  0.00    +0.121 C 
ATOM      3  N   UNL     1       5.060  -4.362   4.360  0.00  0.00    -0.297 N 
ATOM      4  C   UNL     1       4.818  -5.560   3.521  0.00  0.00    +0.115 C 
ATOM      5  C   UNL     1       3.284  -5.632   3.384  0.00  0.00    -0.004 C 
ATOM      6  C   UNL     1       2.902  -6.099   1.983  0.00  0.00    -0.010 C 
ATOM      7  C   UNL     1       3.355  -7.549   1.791  0.00  0.00    -0.082 C 
ATOM      8  N   UNL     1       2.718  -8.400   2.804  0.00  0.00    +0.379 N 
ATOM      9  C   UNL     1       3.165  -8.004   4.144  0.00  0.00    -0.082 C 
ATOM     10  C   UNL     1       2.704  -6.573   4.435  0.00  0.00    -0.010 C 
ATOM     11  C   UNL     1       5.977  -4.208   5.336  0.00  0.00    +0.256 C 
ATOM     12  O   UNL     1       5.989  -3.195   6.002  0.00  0.00    -0.272 OA
ATOM     13  H   UNL     1       1.716  -8.302   2.741  0.00  0.00    -0.086 HD
ATOM     14  H   UNL     1       2.970  -9.363   2.638  0.00  0.00    -0.086 HD
ENDROOT
BRANCH   1  16
ATOM     15  N   UNL     1       0.759  -3.942   2.228  0.00  0.00    -0.312 N 
ATOM     16  C   UNL     1       2.070  -3.680   2.400  0.00  0.00    +0.218 C 
ATOM     17  O   UNL     1       2.673  -3.030   1.573  0.00  0.00    -0.275 OA
ATOM     18  H   UNL     1       0.277  -4.461   2.890  0.00  0.00    +0.149 HD
BRANCH  15  24
ATOM     19  C   UNL     1      -3.652  -2.645   0.411  0.00  0.00    +0.008 C 
ATOM     20  C   UNL     1      -2.159  -2.781   0.106  0.00  0.00    -0.009 C 
ATOM     21  C   UNL     1      -1.962  -3.760  -1.053  0.00  0.00    +0.003 C 
ATOM     22  C   UNL     1      -0.469  -3.896  -1.357  0.00  0.00    +0.002 C 
ATOM     23  C   UNL     1       0.259  -4.420  -0.118  0.00  0.00    +0.022 C 
ATOM     24  C   UNL     1       0.062  -3.440   1.041  0.00  0.00    +0.076 C 
ATOM     25  C   UNL     1      -1.431  -3.304   1.346  0.00  0.00    +0.009 C 
ATOM     26  C   UNL     1      -1.999  -4.672   1.732  0.00  0.00    +0.009 C 
ENDBRANCH  15  24
ENDBRANCH   1  16
BRANCH  11  27
ATOM     27  C   UNL     1       6.986  -5.296   5.600  0.00  0.00    +0.256 C 
ATOM     28  C   UNL     1       7.959  -5.386   4.422  0.00  0.00    +0.062 C 
BRANCH  27  29
ATOM     29  O   UNL     1       7.711  -4.994   6.794  0.00  0.00    -0.480 OA
BRANCH  29  30
ATOM     30  C   UNL     1       8.261  -6.041   7.463  0.00  0.00    +0.122 A 
ATOM     31  C   UNL     1       8.869  -5.836   8.693  0.00  0.00    +0.045 A 
ATOM     32  C   UNL     1       9.427  -6.902   9.372  0.00  0.00    +0.004 A 
ATOM     33  C   UNL     1       9.380  -8.172   8.826  0.00  0.00    +0.000 A 
ATOM     34  C   UNL     1       8.774  -8.378   7.601  0.00  0.00    +0.004 A 
ATOM     35  C   UNL     1       8.209  -7.316   6.921  0.00  0.00    +0.045 A 
ENDBRANCH  29  30
ENDBRANCH  27  29
ENDBRANCH  11  27
TORSDOF 5
