REMARK  Name = ZINC26506228
REMARK  6 active torsions:
REMARK  status: ('A' for Active; 'I' for Inactive)
REMARK    1  A    between atoms: C_1  and  C_2
REMARK    2  A    between atoms: C_2  and  C_3
REMARK    3  A    between atoms: C_2  and  N_4
REMARK    4  A    between atoms: C_8  and  C_11
REMARK    5  A    between atoms: N_13  and  N_14
REMARK    6  A    between atoms: C_15  and  C_17
REMARK                            x       y       z     vdW  Elec       q    Type
REMARK                         _______ _______ _______ _____ _____    ______ ____
ROOT
ATOM      1  C   UNL     1       3.485   6.334   0.002  0.00  0.00    +0.262 C 
ATOM      2  O   UNL     1       4.543   5.735  -0.011  0.00  0.00    -0.269 OA
ATOM      3  N   UNL     1       2.323   5.651   0.009  0.00  0.00    -0.230 N 
ATOM      4  H   UNL     1       1.366   6.193   0.021  0.00  0.00    +0.173 HD
ENDROOT
BRANCH   1   9
ATOM      5  N   UNL     1       3.574  11.897   0.032  0.00  0.00    -0.244 N 
ATOM      6  C   UNL     1       3.337  10.552   0.026  0.00  0.00    +0.158 A 
ATOM      7  C   UNL     1       4.599   9.922   0.011  0.00  0.00    +0.039 A 
ATOM      8  C   UNL     1       4.670   8.527   0.008  0.00  0.00    +0.027 A 
ATOM      9  C   UNL     1       3.473   7.811   0.009  0.00  0.00    +0.057 A 
ATOM     10  C   UNL     1       2.259   8.511   0.024  0.00  0.00    +0.126 A 
ATOM     11  N   UNL     1       2.226   9.822   0.032  0.00  0.00    -0.235 NA
ATOM     12  C   UNL     1       5.594  10.990   0.008  0.00  0.00    +0.144 A 
ATOM     13  N   UNL     1       4.953  12.124   0.021  0.00  0.00    -0.177 NA
BRANCH   5  15
ATOM     14  C   UNL     1       2.710  13.801   1.300  0.00  0.00    +0.032 C 
ATOM     15  C   UNL     1       2.544  12.939   0.048  0.00  0.00    +0.103 C 
ATOM     16  C   UNL     1       2.687  13.816  -1.198  0.00  0.00    +0.032 C 
ENDBRANCH   5  15
ENDBRANCH   1   9
BRANCH   3  17
ATOM     17  N   UNL     1       2.335   4.250   0.002  0.00  0.00    -0.230 N 
ATOM     18  C   UNL     1       1.173   3.567   0.009  0.00  0.00    +0.262 C 
ATOM     19  O   UNL     1       0.116   4.166   0.022  0.00  0.00    -0.269 OA
ATOM     20  H   UNL     1       3.292   3.708  -0.010  0.00  0.00    +0.173 HD
BRANCH  18  21
ATOM     21  C   UNL     1       1.185   2.089   0.002  0.00  0.00    +0.058 A 
ATOM     22  C   UNL     1       2.398   1.398  -0.014  0.00  0.00    +0.034 A 
ATOM     23  C   UNL     1       2.402   0.018  -0.022  0.00  0.00    +0.042 A 
ATOM     24  C   UNL     1       1.207  -0.682  -0.014  0.00  0.00    +0.021 A 
ATOM     25  C   UNL     1       0.002  -0.004   0.002  0.00  0.00    +0.022 A 
ATOM     26  C   UNL     1      -0.017   1.377   0.010  0.00  0.00    +0.053 A 
ATOM     27 CL   UNL     1      -1.530   2.227   0.021  0.00  0.00    -0.083 Cl
ATOM     28 CL   UNL     1       3.910  -0.844  -0.041  0.00  0.00    -0.084 Cl
ENDBRANCH  18  21
ENDBRANCH   3  17
TORSDOF 4
