REMARK  Name = ZINC47266332
REMARK  3 active torsions:
REMARK  status: ('A' for Active; 'I' for Inactive)
REMARK    1  A    between atoms: C_4  and  S_9
REMARK    2  A    between atoms: C_5  and  C_7
REMARK    3  A    between atoms: S_9  and  N_12
REMARK                            x       y       z     vdW  Elec       q    Type
REMARK                         _______ _______ _______ _____ _____    ______ ____
ROOT
ATOM      1  S   UNL     1       3.962  -0.804  -0.042  0.00  0.00    +0.062 S 
ATOM      2  O   UNL     1       4.187  -1.816  -1.014  0.00  0.00    -0.153 OA
ATOM      3  O   UNL     1       4.715   0.400  -0.007  0.00  0.00    -0.153 OA
ENDROOT
BRANCH   1   4
ATOM      4  N   UNL     1       4.147  -1.522   1.439  0.00  0.00    -0.169 NA
ATOM      5  C   UNL     1       4.700  -0.781   2.587  0.00  0.00    +0.138 C 
ATOM      6  C   UNL     1       5.821  -1.612   3.219  0.00  0.00    +0.177 C 
ATOM      7  O   UNL     1       5.355  -2.942   3.474  0.00  0.00    -0.374 OA
ATOM      8  C   UNL     1       4.962  -3.643   2.297  0.00  0.00    +0.137 C 
ATOM      9  C   UNL     1       3.761  -2.921   1.664  0.00  0.00    +0.109 C 
ATOM     10  C   UNL     1       3.406  -3.607   0.347  0.00  0.00    +0.023 C 
ATOM     11  C   UNL     1       3.012  -5.059   0.635  0.00  0.00    +0.002 C 
ATOM     12  C   UNL     1       4.172  -5.792   1.309  0.00  0.00    +0.003 C 
ATOM     13  C   UNL     1       4.550  -5.078   2.615  0.00  0.00    +0.033 C 
ENDBRANCH   1   4
BRANCH   1  17
ATOM     14  C   UNL     1      -0.396   0.401  -0.412  0.00  0.00    +0.001 A 
ATOM     15  C   UNL     1       0.132  -0.576  -1.238  0.00  0.00    +0.002 A 
ATOM     16  C   UNL     1       1.461  -0.943  -1.124  0.00  0.00    +0.030 A 
ATOM     17  C   UNL     1       2.270  -0.335  -0.186  0.00  0.00    +0.123 A 
ATOM     18  C   UNL     1       1.744   0.651   0.650  0.00  0.00    +0.078 A 
ATOM     19  C   UNL     1       0.401   1.016   0.530  0.00  0.00    +0.021 A 
BRANCH  18  20
ATOM     20  C   UNL     1       2.577   1.285   1.627  0.00  0.00    +0.101 C 
ATOM     21  N   UNL     1       3.237   1.788   2.402  0.00  0.00    -0.191 NA
ENDBRANCH  18  20
ENDBRANCH   1  17
TORSDOF 3
