REMARK  Name = ZINC16449151
REMARK  3 active torsions:
REMARK  status: ('A' for Active; 'I' for Inactive)
REMARK    1  A    between atoms: C_5  and  N_7
REMARK    2  A    between atoms: C_13  and  C_14
REMARK    3  A    between atoms: C_17  and  C_20
REMARK                            x       y       z     vdW  Elec       q    Type
REMARK                         _______ _______ _______ _____ _____    ______ ____
ROOT
ATOM      1  N   UNL     1       1.157  -2.170  -0.850  0.00  0.00    -0.224 NA
ATOM      2  C   UNL     1       0.047  -2.822  -0.589  0.00  0.00    +0.166 C 
ATOM      3  N   UNL     1      -0.174  -4.182  -0.615  0.00  0.00    -0.260 N 
ATOM      4  C   UNL     1      -1.364  -4.678  -0.321  0.00  0.00    +0.256 C 
ATOM      5  O   UNL     1      -1.577  -5.876  -0.338  0.00  0.00    -0.269 OA
ATOM      6  C   UNL     1      -2.424  -3.709   0.030  0.00  0.00    +0.078 C 
ATOM      7  C   UNL     1      -3.718  -3.934   0.369  0.00  0.00    +0.028 C 
ATOM      8  S   UNL     1      -1.540  -2.162  -0.107  0.00  0.00    -0.049 S 
ATOM      9  H   UNL     1       0.551  -4.782  -0.851  0.00  0.00    +0.157 HD
ENDROOT
BRANCH   1  14
ATOM     10  C   UNL     1       0.837   1.102   0.740  0.00  0.00    +0.002 A 
ATOM     11  C   UNL     1       1.342   1.921  -0.255  0.00  0.00    +0.002 A 
ATOM     12  C   UNL     1       1.786   1.379  -1.448  0.00  0.00    +0.022 A 
ATOM     13  C   UNL     1       1.728   0.015  -1.654  0.00  0.00    +0.066 A 
ATOM     14  C   UNL     1       1.219  -0.817  -0.653  0.00  0.00    +0.085 A 
ATOM     15  C   UNL     1       0.772  -0.262   0.548  0.00  0.00    +0.029 A 
ATOM     16 CL   UNL     1       2.284  -0.663  -3.152  0.00  0.00    -0.081 Cl
ENDBRANCH   1  14
BRANCH   7  17
ATOM     17  C   UNL     1      -4.187  -5.305   0.608  0.00  0.00    -0.024 A 
ATOM     18  C   UNL     1      -3.355  -6.228   1.255  0.00  0.00    +0.009 A 
ATOM     19  C   UNL     1      -3.792  -7.502   1.476  0.00  0.00    +0.019 A 
ATOM     20  C   UNL     1      -5.070  -7.887   1.058  0.00  0.00    +0.052 A 
ATOM     21  C   UNL     1      -5.902  -6.966   0.411  0.00  0.00    +0.019 A 
ATOM     22  C   UNL     1      -5.469  -5.690   0.194  0.00  0.00    +0.009 A 
BRANCH  20  23
ATOM     23  C   UNL     1      -5.527  -9.224   1.290  0.00  0.00    +0.099 C 
ATOM     24  N   UNL     1      -5.890 -10.284   1.475  0.00  0.00    -0.191 NA
ENDBRANCH  20  23
ENDBRANCH   7  17
TORSDOF 3
