REMARK  Name = ZINC36531220
REMARK  14 active torsions:
REMARK  status: ('A' for Active; 'I' for Inactive)
REMARK    1  A    between atoms: C_1  and  C_2
REMARK    2  A    between atoms: C_2  and  C_3
REMARK    3  A    between atoms: C_3  and  C_4
REMARK    4  A    between atoms: C_4  and  N_5
REMARK    5  A    between atoms: C_6  and  C_8
REMARK    6  A    between atoms: C_8  and  C_10
REMARK    7  A    between atoms: C_8  and  N_19
REMARK    8  A    between atoms: C_13  and  O_18
REMARK    9  A    between atoms: C_14  and  O_16
REMARK   10  A    between atoms: O_16  and  C_17
REMARK   11  A    between atoms: N_19  and  C_20
REMARK   12  A    between atoms: C_21  and  C_23
REMARK   13  A    between atoms: C_24  and  O_30
REMARK   14  A    between atoms: C_28  and  O_29
REMARK                            x       y       z     vdW  Elec       q    Type
REMARK                         _______ _______ _______ _____ _____    ______ ____
ROOT
ATOM      1  C   UNL     1       2.321  -4.371   3.860  0.00  0.00    +0.192 C 
ENDROOT
BRANCH   1   2
ATOM      2  C   UNL     1       1.551  -3.788   5.017  0.00  0.00    -0.015 A 
ATOM      3  C   UNL     1       0.217  -3.459   4.861  0.00  0.00    +0.010 A 
ATOM      4  C   UNL     1      -0.494  -2.924   5.919  0.00  0.00    +0.049 A 
ATOM      5  C   UNL     1       0.129  -2.717   7.139  0.00  0.00    +0.158 A 
ATOM      6  C   UNL     1       1.471  -3.049   7.296  0.00  0.00    +0.162 A 
ATOM      7  C   UNL     1       2.177  -3.590   6.233  0.00  0.00    +0.055 A 
BRANCH   6   8
ATOM      8  O   UNL     1       2.087  -2.849   8.492  0.00  0.00    -0.491 OA
ATOM      9  C   UNL     1       3.467  -3.212   8.580  0.00  0.00    +0.277 C 
ENDBRANCH   6   8
BRANCH   5  10
ATOM     10  O   UNL     1      -0.569  -2.191   8.180  0.00  0.00    -0.503 OA
ATOM     11  H   UNL     1      -1.002  -2.852   8.738  0.00  0.00    +0.292 HD
ENDBRANCH   5  10
ENDBRANCH   1   2
BRANCH   1  13
ATOM     12  N   UNL     1       1.628  -2.602   2.277  0.00  0.00    -0.313 N 
ATOM     13  C   UNL     1       1.702  -3.917   2.564  0.00  0.00    +0.238 C 
ATOM     14  O   UNL     1       1.270  -4.734   1.779  0.00  0.00    -0.273 OA
ATOM     15  H   UNL     1       1.973  -1.948   2.904  0.00  0.00    +0.149 HD
BRANCH  12  16
ATOM     16  C   UNL     1       1.025  -2.160   1.016  0.00  0.00    +0.104 C 
BRANCH  16  17
ATOM     17  C   UNL     1       1.067  -0.633   0.939  0.00  0.00    +0.018 C 
BRANCH  17  19
ATOM     18  C   UNL     1       0.479   1.356  -0.455  0.00  0.00    +0.004 C 
ATOM     19  C   UNL     1       0.437  -0.172  -0.377  0.00  0.00    -0.002 C 
ENDBRANCH  17  19
ENDBRANCH  16  17
ENDBRANCH  12  16
ENDBRANCH   1  13
BRANCH   1  20
ATOM     20  N   UNL     1       2.282  -5.833   3.934  0.00  0.00    -0.285 N 
ATOM     21  C   UNL     1       1.003  -6.538   3.820  0.00  0.00    +0.133 C 
ATOM     22  C   UNL     1       3.422  -6.530   4.108  0.00  0.00    +0.254 C 
ATOM     23  O   UNL     1       4.484  -5.945   4.203  0.00  0.00    -0.270 OA
BRANCH  22  24
ATOM     24  C   UNL     1       3.382  -8.001   4.182  0.00  0.00    +0.119 A 
ATOM     25  C   UNL     1       3.512  -8.771   3.017  0.00  0.00    +0.133 A 
ATOM     26  C   UNL     1       3.474 -10.153   3.099  0.00  0.00    +0.046 A 
ATOM     27  C   UNL     1       3.308 -10.774   4.323  0.00  0.00    +0.007 A 
ATOM     28  C   UNL     1       3.179 -10.024   5.478  0.00  0.00    +0.046 A 
ATOM     29  C   UNL     1       3.220  -8.641   5.420  0.00  0.00    +0.133 A 
BRANCH  29  30
ATOM     30  O   UNL     1       3.099  -7.908   6.555  0.00  0.00    -0.506 OA
ATOM     31  H   UNL     1       2.188  -7.677   6.779  0.00  0.00    +0.292 HD
ENDBRANCH  29  30
BRANCH  25  32
ATOM     32  O   UNL     1       3.674  -8.164   1.815  0.00  0.00    -0.506 OA
ATOM     33  H   UNL     1       4.598  -8.005   1.575  0.00  0.00    +0.292 HD
ENDBRANCH  25  32
ENDBRANCH  22  24
ENDBRANCH   1  20
TORSDOF 11
