REMARK  Name = ZINC08889569
REMARK  10 active torsions:
REMARK  status: ('A' for Active; 'I' for Inactive)
REMARK    1  A    between atoms: C_1  and  C_2
REMARK    2  A    between atoms: C_2  and  C_3
REMARK    3  A    between atoms: C_2  and  N_4
REMARK    4  A    between atoms: N_4  and  C_5
REMARK    5  A    between atoms: C_11  and  C_13
REMARK    6  A    between atoms: C_13  and  N_14
REMARK    7  A    between atoms: C_17  and  C_21
REMARK    8  A    between atoms: C_17  and  C_22
REMARK    9  A    between atoms: C_25  and  O_28
REMARK   10  A    between atoms: O_28  and  C_29
REMARK                            x       y       z     vdW  Elec       q    Type
REMARK                         _______ _______ _______ _____ _____    ______ ____
ROOT
ATOM      1  N   UNL     1      -0.472   2.959  -1.807  0.00  0.00    -0.215 N 
ATOM      2  C   UNL     1      -1.749   2.811  -1.401  0.00  0.00    +0.251 C 
ATOM      3  O   UNL     1      -2.746   3.208  -1.964  0.00  0.00    -0.272 OA
ATOM      4  C   UNL     1      -1.678   2.043  -0.097  0.00  0.00    +0.135 C 
ATOM      5  N   UNL     1      -0.234   1.827   0.101  0.00  0.00    -0.281 N 
ATOM      6  C   UNL     1       0.387   2.397  -0.948  0.00  0.00    +0.310 C 
ATOM      7  O   UNL     1       1.593   2.402  -1.098  0.00  0.00    -0.252 OA
ATOM      8  C   UNL     1      -2.260   2.870   1.051  0.00  0.00    +0.047 C 
ATOM      9  H   UNL     1       0.125   1.284   0.987  0.00  0.00    +0.152 HD
ENDROOT
BRANCH   4  10
ATOM     10  C   UNL     1      -2.399   0.725  -0.217  0.00  0.00    -0.015 A 
ATOM     11  C   UNL     1      -3.533   0.628  -1.002  0.00  0.00    +0.010 A 
ATOM     12  C   UNL     1      -4.193  -0.580  -1.119  0.00  0.00    +0.046 A 
ATOM     13  C   UNL     1      -3.723  -1.694  -0.439  0.00  0.00    +0.120 A 
ATOM     14  C   UNL     1      -2.588  -1.593   0.353  0.00  0.00    +0.046 A 
ATOM     15  C   UNL     1      -1.929  -0.384   0.462  0.00  0.00    +0.010 A 
BRANCH  13  16
ATOM     16  O   UNL     1      -4.373  -2.882  -0.547  0.00  0.00    -0.495 OA
ATOM     17  C   UNL     1      -5.534  -2.913  -1.380  0.00  0.00    +0.277 C 
ENDBRANCH  13  16
ENDBRANCH   4  10
BRANCH   1  18
ATOM     18  C   UNL     1      -0.073   3.649  -3.036  0.00  0.00    +0.214 C 
BRANCH  18  20
ATOM     19  N   UNL     1       0.324   3.073  -5.408  0.00  0.00    -0.268 N 
ATOM     20  C   UNL     1      -0.022   2.661  -4.173  0.00  0.00    +0.238 C 
ATOM     21  O   UNL     1      -0.291   1.495  -3.975  0.00  0.00    -0.273 OA
BRANCH  19  22
ATOM     22  C   UNL     1       0.477   2.140  -6.439  0.00  0.00    +0.037 A 
ATOM     23  C   UNL     1       1.666   1.434  -6.567  0.00  0.00    +0.023 A 
ATOM     24  C   UNL     1       1.813   0.510  -7.584  0.00  0.00    +0.002 A 
ATOM     25  C   UNL     1       0.781   0.295  -8.479  0.00  0.00    +0.000 A 
ATOM     26  C   UNL     1      -0.402   1.001  -8.358  0.00  0.00    +0.002 A 
ATOM     27  C   UNL     1      -0.556   1.922  -7.341  0.00  0.00    +0.023 A 
ENDBRANCH  19  22
BRANCH  19  29
ATOM     28  C   UNL     1       1.956   4.709  -6.210  0.00  0.00    +0.028 C 
ATOM     29  C   UNL     1       0.539   4.498  -5.672  0.00  0.00    +0.075 C 
ATOM     30  C   UNL     1      -0.477   4.984  -6.708  0.00  0.00    +0.028 C 
ENDBRANCH  19  29
ENDBRANCH  18  20
ENDBRANCH   1  18
TORSDOF 6
