REMARK  Name = ZINC14929992
REMARK  8 active torsions:
REMARK  status: ('A' for Active; 'I' for Inactive)
REMARK    1  A    between atoms: C_1  and  C_2
REMARK    2  A    between atoms: C_2  and  C_4
REMARK    3  A    between atoms: C_2  and  N_18
REMARK    4  A    between atoms: N_6  and  C_7
REMARK    5  A    between atoms: C_10  and  O_16
REMARK    6  A    between atoms: C_12  and  N_13
REMARK    7  A    between atoms: O_16  and  C_17
REMARK    8  A    between atoms: C_22  and  C_24
REMARK                            x       y       z     vdW  Elec       q    Type
REMARK                         _______ _______ _______ _____ _____    ______ ____
ROOT
ATOM      1  C   UNL     1       0.603  -0.324  -1.357  0.00  0.00    +0.203 C 
ATOM      2  O   UNL     1       1.636  -0.958  -1.409  0.00  0.00    -0.277 OA
ATOM      3  N   UNL     1       0.024   0.113  -2.493  0.00  0.00    -0.285 N 
ATOM      4  H   UNL     1      -0.762   0.679  -2.450  0.00  0.00    +0.155 HD
ENDROOT
BRANCH   3   5
ATOM      5  C   UNL     1       0.559  -0.249  -3.737  0.00  0.00    +0.064 A 
ATOM      6  C   UNL     1       1.934  -0.346  -3.900  0.00  0.00    +0.029 A 
ATOM      7  C   UNL     1       2.460  -0.703  -5.125  0.00  0.00    +0.047 A 
ATOM      8  C   UNL     1       1.615  -0.965  -6.194  0.00  0.00    +0.122 A 
ATOM      9  C   UNL     1       0.241  -0.869  -6.031  0.00  0.00    +0.080 A 
ATOM     10  C   UNL     1      -0.287  -0.517  -4.804  0.00  0.00    +0.151 A 
BRANCH  10  11
ATOM     11  N   UNL     1      -1.754  -0.421  -4.629  0.00  0.00    +0.058 N 
ATOM     12  O   UNL     1      -2.492  -0.730  -5.535  0.00  0.00    -0.126 OA
ATOM     13  O   UNL     1      -2.213  -0.033  -3.580  0.00  0.00    -0.126 OA
ENDBRANCH  10  11
BRANCH   8  14
ATOM     14  O   UNL     1       2.133  -1.316  -7.401  0.00  0.00    -0.495 OA
ATOM     15  C   UNL     1       3.557  -1.396  -7.497  0.00  0.00    +0.277 C 
ENDBRANCH   8  14
ENDBRANCH   3   5
BRANCH   1  17
ATOM     16  C   UNL     1      -0.126   1.490   0.168  0.00  0.00    -0.004 C 
ATOM     17  C   UNL     1      -0.033  -0.025  -0.024  0.00  0.00    +0.017 C 
BRANCH  17  18
ATOM     18  N   UNL     1       0.785  -0.606   1.049  0.00  0.00    +0.392 N 
ATOM     19  C   UNL     1       0.185  -0.284   2.361  0.00  0.00    -0.077 C 
ATOM     20  C   UNL     1      -0.673  -1.523   2.719  0.00  0.00    -0.020 C 
ATOM     21  C   UNL     1       0.206  -2.680   2.174  0.00  0.00    -0.012 C 
ATOM     22  C   UNL     1       0.831  -2.072   0.901  0.00  0.00    -0.030 C 
ATOM     23  H   UNL     1       1.721  -0.231   1.005  0.00  0.00    -0.080 HD
BRANCH  22  24
ATOM     24  C   UNL     1       2.260  -2.530   0.763  0.00  0.00    -0.024 A 
ATOM     25  C   UNL     1       2.776  -3.483  -0.051  0.00  0.00    +0.009 A 
ATOM     26  C   UNL     1       4.134  -3.737  -0.009  0.00  0.00    +0.008 A 
ATOM     27  C   UNL     1       4.909  -3.025   0.846  0.00  0.00    +0.045 A 
ATOM     28  S   UNL     1       3.713  -1.951   1.623  0.00  0.00    -0.103 S 
ENDBRANCH  22  24
ENDBRANCH  17  18
ENDBRANCH   1  17
TORSDOF 6
