REMARK  Name = ZINC62182269
REMARK  7 active torsions:
REMARK  status: ('A' for Active; 'I' for Inactive)
REMARK    1  A    between atoms: C_1  and  C_2
REMARK    2  A    between atoms: C_3  and  S_8
REMARK    3  A    between atoms: C_4  and  C_7
REMARK    4  A    between atoms: S_8  and  N_11
REMARK    5  A    between atoms: C_13  and  C_26
REMARK    6  A    between atoms: N_15  and  C_20
REMARK    7  A    between atoms: C_16  and  C_19
REMARK                            x       y       z     vdW  Elec       q    Type
REMARK                         _______ _______ _______ _____ _____    ______ ____
ROOT
ATOM      1  N   UNL     1       1.577   0.334  -3.006  0.00  0.00    -0.173 NA
ATOM      2  C   UNL     1       2.464   1.354  -2.428  0.00  0.00    +0.131 C 
ATOM      3  C   UNL     1       3.732   0.664  -1.911  0.00  0.00    +0.086 C 
ATOM      4  N   UNL     1       4.255  -0.211  -2.969  0.00  0.00    -0.322 N 
ATOM      5  C   UNL     1       3.369  -1.231  -3.547  0.00  0.00    +0.086 C 
ATOM      6  C   UNL     1       2.102  -0.545  -4.060  0.00  0.00    +0.131 C 
ATOM      7  C   UNL     1       4.082  -1.935  -4.703  0.00  0.00    +0.029 C 
ATOM      8  C   UNL     1       3.396  -0.167  -0.671  0.00  0.00    +0.029 C 
ENDROOT
BRANCH   4   9
ATOM      9  C   UNL     1       5.571  -0.076  -3.418  0.00  0.00    +0.030 A 
ATOM     10  C   UNL     1       5.866   0.798  -4.456  0.00  0.00    +0.023 A 
ATOM     11  C   UNL     1       7.168   0.930  -4.897  0.00  0.00    +0.002 A 
ATOM     12  C   UNL     1       8.178   0.191  -4.307  0.00  0.00    +0.000 A 
ATOM     13  C   UNL     1       7.887  -0.680  -3.273  0.00  0.00    +0.002 A 
ATOM     14  C   UNL     1       6.588  -0.812  -2.824  0.00  0.00    +0.023 A 
ENDBRANCH   4   9
BRANCH   1  15
ATOM     15  S   UNL     1       0.017   0.174  -2.474  0.00  0.00    +0.066 S 
ATOM     16  O   UNL     1      -0.710  -0.443  -3.527  0.00  0.00    -0.153 OA
ATOM     17  O   UNL     1      -0.355   1.431  -1.924  0.00  0.00    -0.153 OA
BRANCH  15  20
ATOM     18  C   UNL     1       0.408   0.727   0.789  0.00  0.00    +0.071 C 
ATOM     19  C   UNL     1       0.210  -0.655   0.222  0.00  0.00    +0.107 A 
ATOM     20  C   UNL     1       0.038  -0.974  -1.137  0.00  0.00    +0.170 A 
ATOM     21  C   UNL     1      -0.109  -2.309  -1.239  0.00  0.00    +0.161 A 
ATOM     22  O   UNL     1      -0.035  -2.829  -0.004  0.00  0.00    -0.358 OA
ATOM     23  N   UNL     1       0.172  -1.764   0.905  0.00  0.00    -0.081 NA
ATOM     24  C   UNL     1      -0.319  -3.082  -2.515  0.00  0.00    +0.091 C 
ENDBRANCH  15  20
ENDBRANCH   1  15
TORSDOF 3
