REMARK  Name = ZINC11914882
REMARK  2 active torsions:
REMARK  status: ('A' for Active; 'I' for Inactive)
REMARK    1  A    between atoms: C_5  and  N_7
REMARK    2  A    between atoms: C_8  and  C_10
REMARK                            x       y       z     vdW  Elec       q    Type
REMARK                         _______ _______ _______ _____ _____    ______ ____
ROOT
ATOM      1  N   UNL     1       2.392   1.918  -0.011  0.00  0.00    -0.279 N 
ATOM      2  C   UNL     1       3.500   2.512   0.475  0.00  0.00    +0.269 C 
ATOM      3  O   UNL     1       3.421   3.602   1.009  0.00  0.00    -0.268 OA
ATOM      4  H   UNL     1       2.440   1.016  -0.363  0.00  0.00    +0.155 HD
ENDROOT
BRANCH   1   9
ATOM      5  C   UNL     1      -0.053   4.664  -0.001  0.00  0.00    +0.002 A 
ATOM      6  C   UNL     1      -1.242   3.957   0.004  0.00  0.00    +0.001 A 
ATOM      7  C   UNL     1      -1.227   2.574  -0.001  0.00  0.00    +0.017 A 
ATOM      8  C   UNL     1      -0.024   1.895  -0.000  0.00  0.00    +0.039 A 
ATOM      9  C   UNL     1       1.172   2.603  -0.005  0.00  0.00    +0.048 A 
ATOM     10  C   UNL     1       1.153   3.991  -0.005  0.00  0.00    +0.024 A 
ATOM     11 BR   UNL     1      -0.004   0.004  -0.001  0.00  0.00    -0.048 Br
ENDBRANCH   1   9
BRANCH   2  12
ATOM     12  C   UNL     1       4.807   1.841   0.359  0.00  0.00    +0.156 A 
ATOM     13  C   UNL     1       5.992   2.390   0.829  0.00  0.00    +0.101 A 
ATOM     14  S   UNL     1       7.123   1.149   0.404  0.00  0.00    +0.029 S 
ATOM     15  N   UNL     1       6.137   0.123  -0.279  0.00  0.00    -0.110 NA
ATOM     16  N   UNL     1       4.970   0.653  -0.210  0.00  0.00    -0.136 NA
ENDBRANCH   2  12
TORSDOF 2
