REMARK  Name = ZINC57294296
REMARK  6 active torsions:
REMARK  status: ('A' for Active; 'I' for Inactive)
REMARK    1  A    between atoms: C_1  and  N_2
REMARK    2  A    between atoms: N_2  and  C_3
REMARK    3  A    between atoms: N_2  and  C_4
REMARK    4  A    between atoms: C_4  and  C_5
REMARK    5  A    between atoms: N_7  and  C_8
REMARK    6  A    between atoms: C_11  and  N_15
REMARK                            x       y       z     vdW  Elec       q    Type
REMARK                         _______ _______ _______ _____ _____    ______ ____
ROOT
ATOM      1  C   UNL     1      -2.416  -4.108  -0.619  0.00  0.00    +0.062 A 
ATOM      2  C   UNL     1      -3.550  -4.895  -0.462  0.00  0.00    +0.042 A 
ATOM      3  C   UNL     1      -3.510  -6.235  -0.799  0.00  0.00    +0.050 A 
ATOM      4  C   UNL     1      -2.344  -6.792  -1.291  0.00  0.00    +0.128 A 
ATOM      5  C   UNL     1      -1.214  -6.011  -1.448  0.00  0.00    +0.050 A 
ATOM      6  C   UNL     1      -1.248  -4.669  -1.119  0.00  0.00    +0.042 A 
ATOM      7 BR   UNL     1       0.296  -3.600  -1.342  0.00  0.00    -0.048 Br
ATOM      8 BR   UNL     1      -5.145  -4.135   0.211  0.00  0.00    -0.048 Br
ENDROOT
BRANCH   1  11
ATOM      9  C   UNL     1      -2.114  -2.358   0.965  0.00  0.00    +0.231 C 
ATOM     10  O   UNL     1      -1.866  -3.186   1.816  0.00  0.00    -0.274 OA
ATOM     11  N   UNL     1      -2.453  -2.750  -0.279  0.00  0.00    -0.283 N 
ATOM     12  H   UNL     1      -2.721  -2.092  -0.939  0.00  0.00    +0.155 HD
BRANCH   9  13
ATOM     13  C   UNL     1      -2.044  -0.890   1.300  0.00  0.00    +0.180 C 
BRANCH  13  15
ATOM     14  C   UNL     1      -1.348   0.678   3.009  0.00  0.00    +0.105 C 
ATOM     15  N   UNL     1      -1.657  -0.727   2.707  0.00  0.00    -0.300 NA
ATOM     16  C   UNL     1      -2.702  -1.240   3.604  0.00  0.00    +0.105 C 
ENDBRANCH  13  15
ENDBRANCH   9  13
ENDBRANCH   1  11
BRANCH   4  17
ATOM     17  N   UNL     1      -2.305  -8.227  -1.651  0.00  0.00    +0.056 N 
ATOM     18  O   UNL     1      -3.293  -8.912  -1.513  0.00  0.00    -0.126 OA
ATOM     19  O   UNL     1      -1.286  -8.716  -2.081  0.00  0.00    -0.126 OA
ENDBRANCH   4  17
TORSDOF 4
