REMARK  Name = ZINC05481164
REMARK  8 active torsions:
REMARK  status: ('A' for Active; 'I' for Inactive)
REMARK    1  A    between atoms: C_1  and  C_2
REMARK    2  A    between atoms: C_2  and  O_4
REMARK    3  A    between atoms: O_4  and  C_5
REMARK    4  A    between atoms: C_7  and  C_25
REMARK    5  A    between atoms: C_16  and  C_18
REMARK    6  A    between atoms: C_16  and  C_19
REMARK    7  A    between atoms: C_21  and  C_23
REMARK    8  A    between atoms: C_21  and  C_24
REMARK                            x       y       z     vdW  Elec       q    Type
REMARK                         _______ _______ _______ _____ _____    ______ ____
ROOT
ATOM      1  C   UNL     1      -1.056  -2.126   0.001  0.00  0.00    +0.153 C 
ATOM      2  C   UNL     1      -0.323  -2.554  -1.270  0.00  0.00    +0.058 C 
ATOM      3  C   UNL     1      -0.287  -4.077  -1.309  0.00  0.00    -0.025 C 
ATOM      4  C   UNL     1      -1.661  -4.651  -1.590  0.00  0.00    +0.045 C 
ATOM      5  C   UNL     1      -2.751  -4.006  -0.719  0.00  0.00    +0.112 C 
ATOM      6  C   UNL     1      -2.464  -2.708   0.011  0.00  0.00    +0.203 C 
ATOM      7  O   UNL     1      -3.204  -2.736  -1.217  0.00  0.00    -0.349 OA
ATOM      8  C   UNL     1      -3.304  -2.365   1.226  0.00  0.00    +0.237 C 
ATOM      9  O   UNL     1      -3.293  -1.264   1.718  0.00  0.00    -0.286 OA
ATOM     10  C   UNL     1      -4.150  -3.459   1.781  0.00  0.00    +0.207 C 
ATOM     11  O   UNL     1      -4.354  -3.529   2.971  0.00  0.00    -0.288 OA
ATOM     12  C   UNL     1      -4.745  -4.471   0.847  0.00  0.00    +0.034 C 
ATOM     13  C   UNL     1      -3.778  -4.988  -0.187  0.00  0.00    +0.053 C 
ATOM     14  C   UNL     1      -5.246  -5.659   1.679  0.00  0.00    +0.019 C 
ATOM     15  C   UNL     1      -5.948  -3.843   0.137  0.00  0.00    +0.019 C 
ATOM     16  C   UNL     1       0.401  -4.670  -0.106  0.00  0.00    +0.013 C 
ATOM     17  C   UNL     1       0.056  -4.066   1.240  0.00  0.00    -0.031 C 
ATOM     18  C   UNL     1      -0.275  -2.586   1.224  0.00  0.00    +0.058 C 
ATOM     19  C   UNL     1      -1.079  -4.864   1.897  0.00  0.00    +0.011 C 
ATOM     20  C   UNL     1       1.298  -4.248   2.152  0.00  0.00    +0.011 C 
ATOM     21  C   UNL     1       0.579  -4.445  -2.527  0.00  0.00    +0.011 C 
ENDROOT
BRANCH   1  22
ATOM     22  O   UNL     1      -1.151  -0.691   0.009  0.00  0.00    -0.455 OA
BRANCH  22  24
ATOM     23  C   UNL     1      -0.018   1.503   0.010  0.00  0.00    +0.136 C 
ATOM     24  C   UNL     1       0.002  -0.004   0.002  0.00  0.00    +0.305 C 
ATOM     25  O   UNL     1       1.056  -0.594  -0.011  0.00  0.00    -0.251 OA
ENDBRANCH  22  24
ENDBRANCH   1  22
TORSDOF 2
