REMARK  Name = ZINC38994564
REMARK  8 active torsions:
REMARK  status: ('A' for Active; 'I' for Inactive)
REMARK    1  A    between atoms: C_1  and  C_2
REMARK    2  A    between atoms: C_5  and  S_8
REMARK    3  A    between atoms: S_8  and  N_11
REMARK    4  A    between atoms: N_11  and  C_12
REMARK    5  A    between atoms: N_11  and  C_25
REMARK    6  A    between atoms: C_12  and  C_13
REMARK    7  A    between atoms: C_28  and  O_31
REMARK    8  A    between atoms: O_31  and  C_32
REMARK                            x       y       z     vdW  Elec       q    Type
REMARK                         _______ _______ _______ _____ _____    ______ ____
ROOT
ATOM      1  N   UNL     1       1.554  -4.939  -0.119  0.00  0.00    -0.202 N 
ENDROOT
BRANCH   1   2
ATOM      2  C   UNL     1       2.054  -4.859  -1.423  0.00  0.00    +0.052 A 
ATOM      3  C   UNL     1       1.821  -3.723  -2.188  0.00  0.00    +0.028 A 
ATOM      4  C   UNL     1       2.315  -3.645  -3.475  0.00  0.00    +0.047 A 
ATOM      5  C   UNL     1       3.044  -4.699  -4.004  0.00  0.00    +0.120 A 
ATOM      6  C   UNL     1       3.277  -5.834  -3.241  0.00  0.00    +0.047 A 
ATOM      7  C   UNL     1       2.789  -5.912  -1.951  0.00  0.00    +0.028 A 
BRANCH   5   8
ATOM      8  O   UNL     1       3.531  -4.621  -5.271  0.00  0.00    -0.495 OA
ATOM      9  C   UNL     1       4.273  -5.744  -5.752  0.00  0.00    +0.277 C 
ENDBRANCH   5   8
ENDBRANCH   1   2
BRANCH   1  10
ATOM     10  S   UNL     1      -0.079  -4.867   0.148  0.00  0.00    +0.075 S 
ATOM     11  O   UNL     1      -0.317  -5.511   1.392  0.00  0.00    -0.150 OA
ATOM     12  O   UNL     1      -0.706  -5.283  -1.057  0.00  0.00    -0.150 OA
BRANCH  10  17
ATOM     13  C   UNL     1      -1.508   0.945   0.915  0.00  0.00    +0.044 C 
ATOM     14  C   UNL     1      -1.151  -0.506   0.724  0.00  0.00    -0.050 A 
ATOM     15  C   UNL     1      -1.095  -1.042  -0.549  0.00  0.00    +0.005 A 
ATOM     16  C   UNL     1      -0.767  -2.374  -0.725  0.00  0.00    +0.029 A 
ATOM     17  C   UNL     1      -0.495  -3.169   0.372  0.00  0.00    +0.109 A 
ATOM     18  C   UNL     1      -0.551  -2.633   1.645  0.00  0.00    +0.029 A 
ATOM     19  C   UNL     1      -0.874  -1.301   1.821  0.00  0.00    +0.005 A 
ENDBRANCH  10  17
ENDBRANCH   1  10
BRANCH   1  20
ATOM     20  C   UNL     1       2.474  -5.087   1.011  0.00  0.00    +0.148 C 
BRANCH  20  21
ATOM     21  C   UNL     1       3.437  -3.899   1.044  0.00  0.00    +0.118 C 
ATOM     22  C   UNL     1       4.501  -4.190   2.084  0.00  0.00    -0.003 C 
ATOM     23  C   UNL     1       4.639  -3.297   3.104  0.00  0.00    -0.007 A 
ATOM     24  C   UNL     1       5.641  -3.502   4.151  0.00  0.00    +0.009 A 
ATOM     25  C   UNL     1       5.743  -2.586   5.149  0.00  0.00    +0.001 A 
ATOM     26  C   UNL     1       4.915  -1.464   5.191  0.00  0.00    +0.002 A 
ATOM     27  C   UNL     1       3.966  -1.217   4.251  0.00  0.00    +0.024 A 
ATOM     28  C   UNL     1       3.779  -2.103   3.175  0.00  0.00    +0.040 A 
ATOM     29  N   UNL     1       2.845  -1.850   2.258  0.00  0.00    -0.284 N 
ATOM     30  C   UNL     1       2.616  -2.642   1.224  0.00  0.00    +0.226 C 
ATOM     31  O   UNL     1       1.749  -2.358   0.419  0.00  0.00    -0.275 OA
ATOM     32  H   UNL     1       2.308  -1.049   2.354  0.00  0.00    +0.155 HD
ENDBRANCH  20  21
ENDBRANCH   1  20
TORSDOF 6
