REMARK  Name = ZINC64839320
REMARK  6 active torsions:
REMARK  status: ('A' for Active; 'I' for Inactive)
REMARK    1  A    between atoms: C_1  and  N_2
REMARK    2  A    between atoms: N_16  and  C_17
REMARK    3  A    between atoms: C_17  and  C_18
REMARK    4  A    between atoms: N_20  and  C_21
REMARK    5  A    between atoms: C_21  and  C_22
REMARK    6  A    between atoms: C_22  and  C_23
REMARK                            x       y       z     vdW  Elec       q    Type
REMARK                         _______ _______ _______ _____ _____    ______ ____
ROOT
ATOM      1  C   UNL     1      -3.556  -2.720   0.145  0.00  0.00    +0.201 C 
ENDROOT
BRANCH   1  16
ATOM      2  C   UNL     1      -0.018   1.461   0.010  0.00  0.00    +0.156 C 
ATOM      3  N   UNL     1       0.002  -0.004   0.002  0.00  0.00    -0.224 N 
ATOM      4  C   UNL     1      -1.158  -0.724   0.004  0.00  0.00    +0.256 C 
ATOM      5  O   UNL     1      -2.246  -0.189   0.051  0.00  0.00    -0.272 OA
ATOM      6  C   UNL     1      -1.008  -2.225  -0.058  0.00  0.00    +0.194 C 
ATOM      7  C   UNL     1       0.175  -2.576   0.838  0.00  0.00    +0.006 C 
ATOM      8  C   UNL     1       1.295  -1.842   0.836  0.00  0.00    +0.094 C 
ATOM      9  N   UNL     1       1.224  -0.717  -0.013  0.00  0.00    -0.269 N 
ATOM     10  C   UNL     1      -0.272  -3.690   1.654  0.00  0.00    +0.003 A 
ATOM     11  C   UNL     1       0.438  -4.527   2.522  0.00  0.00    +0.010 A 
ATOM     12  C   UNL     1      -0.282  -5.511   3.181  0.00  0.00    +0.001 A 
ATOM     13  C   UNL     1      -1.642  -5.663   2.994  0.00  0.00    +0.002 A 
ATOM     14  C   UNL     1      -2.363  -4.847   2.134  0.00  0.00    +0.024 A 
ATOM     15  C   UNL     1      -1.663  -3.853   1.454  0.00  0.00    +0.039 A 
ATOM     16  N   UNL     1      -2.153  -2.938   0.505  0.00  0.00    -0.305 N 
ATOM     17  H   UNL     1       1.968  -0.446  -0.574  0.00  0.00    +0.170 HD
ENDBRANCH   1  16
BRANCH   1  18
ATOM     18  C   UNL     1      -3.927  -3.628  -0.999  0.00  0.00    +0.230 C 
ATOM     19  O   UNL     1      -3.101  -4.383  -1.467  0.00  0.00    -0.274 OA
ATOM     20  N   UNL     1      -5.177  -3.602  -1.502  0.00  0.00    -0.314 N 
ATOM     21  H   UNL     1      -5.838  -2.998  -1.128  0.00  0.00    +0.149 HD
BRANCH  20  22
ATOM     22  C   UNL     1      -5.538  -4.485  -2.614  0.00  0.00    +0.108 C 
BRANCH  22  23
ATOM     23  C   UNL     1      -7.003  -4.257  -2.991  0.00  0.00    +0.052 C 
BRANCH  23  24
ATOM     24  C   UNL     1      -7.375  -5.166  -4.135  0.00  0.00    -0.040 C 
ATOM     25  C   UNL     1      -7.966  -6.379  -4.051  0.00  0.00    +0.000 A 
ATOM     26  C   UNL     1      -8.421  -7.186  -2.913  0.00  0.00    +0.030 A 
ATOM     27  C   UNL     1      -8.989  -8.392  -3.148  0.00  0.00    +0.042 A 
ATOM     28  C   UNL     1      -9.152  -8.888  -4.450  0.00  0.00    +0.022 A 
ATOM     29  C   UNL     1      -8.758  -8.204  -5.545  0.00  0.00    +0.027 A 
ATOM     30  C   UNL     1      -8.149  -6.926  -5.415  0.00  0.00    +0.043 A 
ATOM     31  N   UNL     1      -7.690  -6.082  -6.307  0.00  0.00    -0.380 N 
ATOM     32  C   UNL     1      -7.168  -4.902  -5.610  0.00  0.00    +0.144 C 
ATOM     33 CL   UNL     1      -9.530  -9.349  -1.805  0.00  0.00    -0.084 Cl
ATOM     34  H   UNL     1      -7.697  -6.215  -7.268  0.00  0.00    +0.160 HD
ENDBRANCH  23  24
ENDBRANCH  22  23
ENDBRANCH  20  22
ENDBRANCH   1  18
TORSDOF 5
