REMARK  Name = ZINC60018670
REMARK  5 active torsions:
REMARK  status: ('A' for Active; 'I' for Inactive)
REMARK    1  A    between atoms: C_1  and  C_2
REMARK    2  A    between atoms: C_7  and  N_8
REMARK    3  A    between atoms: N_8  and  C_9
REMARK    4  A    between atoms: C_10  and  C_12
REMARK    5  A    between atoms: C_16  and  N_18
REMARK                            x       y       z     vdW  Elec       q    Type
REMARK                         _______ _______ _______ _____ _____    ______ ____
ROOT
ATOM      1  N   UNL     1       0.028  -0.016   2.410  0.00  0.00    -0.270 N 
ATOM      2  C   UNL     1       1.272   0.369   3.081  0.00  0.00    +0.138 C 
ATOM      3  C   UNL     1      -1.160   0.282   2.971  0.00  0.00    +0.251 C 
ATOM      4  O   UNL     1      -2.189  -0.129   2.471  0.00  0.00    -0.270 OA
ENDROOT
BRANCH   1  11
ATOM      5  C   UNL     1       0.049   1.528   0.021  0.00  0.00    +0.046 C 
ATOM      6  C   UNL     1       0.086   0.022  -0.004  0.00  0.00    -0.028 A 
ATOM      7  C   UNL     1       0.137  -0.649  -1.210  0.00  0.00    +0.020 A 
ATOM      8  C   UNL     1       0.171  -2.032  -1.233  0.00  0.00    +0.018 A 
ATOM      9  C   UNL     1       0.153  -2.747  -0.048  0.00  0.00    +0.017 A 
ATOM     10  C   UNL     1       0.103  -2.081   1.161  0.00  0.00    +0.025 A 
ATOM     11  C   UNL     1       0.074  -0.693   1.187  0.00  0.00    +0.039 A 
ATOM     12 BR   UNL     1       0.240  -2.947  -2.886  0.00  0.00    -0.050 Br
ENDBRANCH   1  11
BRANCH   3  13
ATOM     13  C   UNL     1      -1.213   1.109   4.196  0.00  0.00    +0.039 A 
ATOM     14  C   UNL     1      -0.293   2.142   4.384  0.00  0.00    +0.013 A 
ATOM     15  C   UNL     1      -0.348   2.910   5.529  0.00  0.00    +0.003 A 
ATOM     16  C   UNL     1      -1.311   2.657   6.490  0.00  0.00    +0.033 A 
ATOM     17  C   UNL     1      -2.226   1.635   6.309  0.00  0.00    +0.127 A 
ATOM     18  C   UNL     1      -2.186   0.864   5.166  0.00  0.00    +0.045 A 
BRANCH  17  19
ATOM     19  N   UNL     1      -3.252   1.372   7.342  0.00  0.00    +0.056 N 
ATOM     20  O   UNL     1      -3.291   2.050   8.342  0.00  0.00    -0.126 OA
ATOM     21  O   UNL     1      -4.052   0.479   7.186  0.00  0.00    -0.126 OA
ENDBRANCH  17  19
ENDBRANCH   3  13
TORSDOF 3
