REMARK  Name = ZINC63849940
REMARK  11 active torsions:
REMARK  status: ('A' for Active; 'I' for Inactive)
REMARK    1  A    between atoms: C_1  and  C_2
REMARK    2  A    between atoms: C_3  and  C_8
REMARK    3  A    between atoms: C_4  and  C_7
REMARK    4  A    between atoms: C_8  and  C_9
REMARK    5  A    between atoms: N_11  and  C_12
REMARK    6  A    between atoms: C_12  and  C_13
REMARK    7  A    between atoms: C_13  and  C_15
REMARK    8  A    between atoms: C_13  and  C_24
REMARK    9  A    between atoms: C_18  and  N_21
REMARK   10  A    between atoms: N_21  and  C_22
REMARK   11  A    between atoms: N_21  and  C_23
REMARK                            x       y       z     vdW  Elec       q    Type
REMARK                         _______ _______ _______ _____ _____    ______ ____
ROOT
ATOM      1  C   UNL     1       3.010   0.906  -6.231  0.00  0.00    +0.064 C 
ENDROOT
BRANCH   1   2
ATOM      2  C   UNL     1       2.395   2.280  -6.281  0.00  0.00    -0.033 C 
ATOM      3  C   UNL     1       1.288   2.651  -6.964  0.00  0.00    -0.000 A 
ATOM      4  C   UNL     1       0.361   1.915  -7.832  0.00  0.00    +0.010 A 
ATOM      5  C   UNL     1      -0.681   2.573  -8.388  0.00  0.00    +0.001 A 
ATOM      6  C   UNL     1      -0.897   3.939  -8.158  0.00  0.00    +0.002 A 
ATOM      7  C   UNL     1      -0.089   4.683  -7.373  0.00  0.00    +0.026 A 
ATOM      8  C   UNL     1       1.037   4.093  -6.737  0.00  0.00    +0.043 A 
ATOM      9  N   UNL     1       1.954   4.593  -5.944  0.00  0.00    -0.380 N 
ATOM     10  C   UNL     1       2.887   3.523  -5.574  0.00  0.00    +0.145 C 
ATOM     11  H   UNL     1       2.004   5.516  -5.648  0.00  0.00    +0.160 HD
ENDBRANCH   1   2
BRANCH   1  12
ATOM     12  C   UNL     1       4.422   0.967  -6.754  0.00  0.00    -0.039 A 
ATOM     13  C   UNL     1       5.356   1.770  -6.126  0.00  0.00    +0.006 A 
ATOM     14  C   UNL     1       6.651   1.829  -6.603  0.00  0.00    +0.023 A 
ATOM     15  C   UNL     1       7.014   1.081  -7.715  0.00  0.00    +0.029 A 
ATOM     16  C   UNL     1       6.073   0.275  -8.344  0.00  0.00    +0.023 A 
ATOM     17  C   UNL     1       4.782   0.216  -7.858  0.00  0.00    +0.006 A 
BRANCH  15  18
ATOM     18  N   UNL     1       8.323   1.138  -8.200  0.00  0.00    -0.336 N 
ATOM     19  C   UNL     1       9.280   2.081  -7.616  0.00  0.00    +0.129 C 
ATOM     20  C   UNL     1       8.738   0.256  -9.293  0.00  0.00    +0.129 C 
ENDBRANCH  15  18
ENDBRANCH   1  12
BRANCH   1  21
ATOM     21  C   UNL     1       3.023   0.406  -4.785  0.00  0.00    +0.116 C 
BRANCH  21  24
ATOM     22  C   UNL     1       1.412  -0.203  -3.062  0.00  0.00    +0.218 C 
ATOM     23  O   UNL     1       2.340  -0.451  -2.322  0.00  0.00    -0.275 OA
ATOM     24  N   UNL     1       1.646   0.232  -4.315  0.00  0.00    -0.314 N 
ATOM     25  H   UNL     1       0.904   0.430  -4.907  0.00  0.00    +0.149 HD
BRANCH  22  26
ATOM     26  C   UNL     1      -0.005  -0.382  -2.579  0.00  0.00    +0.136 C 
BRANCH  26  29
ATOM     27  C   UNL     1      -0.008   1.439   0.023  0.00  0.00    +0.069 C 
ATOM     28  C   UNL     1       0.007  -0.068  -0.002  0.00  0.00    +0.084 A 
ATOM     29  C   UNL     1       0.009  -0.874  -1.155  0.00  0.00    +0.026 A 
ATOM     30  C   UNL     1       0.024  -2.163  -0.764  0.00  0.00    +0.138 A 
ATOM     31  O   UNL     1       0.031  -2.190   0.578  0.00  0.00    -0.359 OA
ATOM     32  N   UNL     1       0.026  -0.851   1.039  0.00  0.00    -0.083 NA
ATOM     33  C   UNL     1       0.030  -3.365  -1.673  0.00  0.00    +0.089 C 
ENDBRANCH  26  29
ENDBRANCH  22  26
ENDBRANCH  21  24
ENDBRANCH   1  21
TORSDOF 7
