REMARK  Name = ZINC64712237
REMARK  6 active torsions:
REMARK  status: ('A' for Active; 'I' for Inactive)
REMARK    1  A    between atoms: C_1  and  C_2
REMARK    2  A    between atoms: C_5  and  N_9
REMARK    3  A    between atoms: C_10  and  C_12
REMARK    4  A    between atoms: C_12  and  S_13
REMARK    5  A    between atoms: S_13  and  C_14
REMARK    6  A    between atoms: C_24  and  C_26
REMARK                            x       y       z     vdW  Elec       q    Type
REMARK                         _______ _______ _______ _____ _____    ______ ____
ROOT
ATOM      1  C   UNL     1      -0.358  -8.691  -2.733  0.00  0.00    +0.196 A 
ATOM      2  N   UNL     1      -0.351  -9.370  -1.606  0.00  0.00    -0.122 NA
ATOM      3  N   UNL     1      -0.441 -10.631  -1.846  0.00  0.00    -0.126 NA
ATOM      4  C   UNL     1      -0.510 -10.833  -3.140  0.00  0.00    +0.187 A 
ATOM      5  N   UNL     1      -0.465  -9.595  -3.747  0.00  0.00    -0.274 N 
ATOM      6  C   UNL     1      -0.526  -9.500  -5.125  0.00  0.00    +0.115 A 
ATOM      7  C   UNL     1      -0.631 -10.579  -5.891  0.00  0.00    +0.131 A 
ATOM      8  N   UNL     1      -0.685 -11.854  -5.351  0.00  0.00    -0.234 N 
ATOM      9  C   UNL     1      -0.622 -12.021  -3.991  0.00  0.00    +0.112 A 
ATOM     10  C   UNL     1      -0.695 -13.371  -3.736  0.00  0.00    +0.061 A 
ATOM     11  C   UNL     1      -0.790 -14.030  -4.970  0.00  0.00    +0.094 A 
ATOM     12  N   UNL     1      -0.793 -13.123  -5.930  0.00  0.00    -0.166 NA
ENDROOT
BRANCH  11  13
ATOM     13  C   UNL     1      -0.890 -15.498  -5.165  0.00  0.00    +0.002 A 
ATOM     14  C   UNL     1      -0.901 -16.349  -4.062  0.00  0.00    +0.010 A 
ATOM     15  C   UNL     1      -0.995 -17.714  -4.248  0.00  0.00    +0.001 A 
ATOM     16  C   UNL     1      -1.078 -18.236  -5.526  0.00  0.00    +0.000 A 
ATOM     17  C   UNL     1      -1.067 -17.395  -6.624  0.00  0.00    +0.001 A 
ATOM     18  C   UNL     1      -0.979 -16.029  -6.450  0.00  0.00    +0.010 A 
ENDBRANCH  11  13
BRANCH   1  19
ATOM     19  S   UNL     1      -0.257  -6.940  -2.899  0.00  0.00    -0.076 S 
BRANCH  19  20
ATOM     20  C   UNL     1      -0.136  -6.343  -1.191  0.00  0.00    +0.173 C 
BRANCH  20  22
ATOM     21  N   UNL     1       0.057  -4.171  -0.023  0.00  0.00    -0.284 N 
ATOM     22  C   UNL     1      -0.042  -4.839  -1.190  0.00  0.00    +0.228 C 
ATOM     23  O   UNL     1      -0.055  -4.230  -2.238  0.00  0.00    -0.275 OA
ATOM     24  H   UNL     1       0.149  -4.660   0.809  0.00  0.00    +0.155 HD
BRANCH  21  29
ATOM     25  C   UNL     1      -0.064   1.502   0.016  0.00  0.00    +0.044 C 
ATOM     26  C   UNL     1      -0.031  -0.005   0.006  0.00  0.00    -0.049 A 
ATOM     27  C   UNL     1      -0.622  -0.701  -1.033  0.00  0.00    +0.005 A 
ATOM     28  C   UNL     1      -0.594  -2.082  -1.045  0.00  0.00    +0.025 A 
ATOM     29  C   UNL     1       0.028  -2.772  -0.014  0.00  0.00    +0.052 A 
ATOM     30  C   UNL     1       0.621  -2.070   1.029  0.00  0.00    +0.062 A 
ATOM     31  C   UNL     1       0.595  -0.688   1.032  0.00  0.00    +0.025 A 
ATOM     32 CL   UNL     1       1.401  -2.928   2.321  0.00  0.00    -0.082 Cl
ENDBRANCH  21  29
ENDBRANCH  20  22
ENDBRANCH  19  20
ENDBRANCH   1  19
TORSDOF 5
