REMARK  Name = ZINC20704212
REMARK  5 active torsions:
REMARK  status: ('A' for Active; 'I' for Inactive)
REMARK    1  A    between atoms: C_1  and  O_2
REMARK    2  A    between atoms: O_2  and  C_3
REMARK    3  A    between atoms: C_3  and  C_5
REMARK    4  A    between atoms: C_18  and  C_21
REMARK    5  A    between atoms: C_25  and  N_27
REMARK                            x       y       z     vdW  Elec       q    Type
REMARK                         _______ _______ _______ _____ _____    ______ ____
ROOT
ATOM      1  C   UNL     1       1.141   3.169   0.009  0.00  0.00    +0.059 A 
ATOM      2  C   UNL     1       1.163   1.771   0.001  0.00  0.00    +0.017 A 
ATOM      3  C   UNL     1      -0.013   1.076   0.008  0.00  0.00    +0.024 A 
ATOM      4  C   UNL     1      -1.230   1.752   0.017  0.00  0.00    +0.031 A 
ATOM      5  C   UNL     1      -1.270   3.142   0.032  0.00  0.00    -0.019 A 
ATOM      6  C   UNL     1      -0.080   3.847   0.025  0.00  0.00    +0.021 A 
ATOM      7  C   UNL     1      -2.555   3.906   0.051  0.00  0.00    +0.049 C 
ATOM      8  C   UNL     1      -2.857   4.509  -1.301  0.00  0.00    -0.023 C 
ATOM      9  C   UNL     1      -4.146   4.475  -1.536  0.00  0.00    -0.030 C 
ATOM     10  C   UNL     1      -4.882   3.847  -0.368  0.00  0.00    +0.033 C 
ATOM     11  C   UNL     1      -3.778   3.016   0.350  0.00  0.00    +0.029 C 
ATOM     12  C   UNL     1      -3.650   1.686  -0.399  0.00  0.00    +0.105 C 
ATOM     13  N   UNL     1      -2.415   1.019   0.026  0.00  0.00    -0.336 N 
ATOM     14  H   UNL     1      -2.439  -0.035   0.340  0.00  0.00    +0.147 HD
ENDROOT
BRANCH  12  15
ATOM     15  C   UNL     1      -3.599   1.945  -1.882  0.00  0.00    -0.025 A 
ATOM     16  C   UNL     1      -2.417   2.350  -2.473  0.00  0.00    +0.007 A 
ATOM     17  C   UNL     1      -2.370   2.588  -3.834  0.00  0.00    +0.022 A 
ATOM     18  C   UNL     1      -3.507   2.419  -4.605  0.00  0.00    +0.071 A 
ATOM     19  C   UNL     1      -4.689   2.013  -4.013  0.00  0.00    +0.145 A 
ATOM     20  C   UNL     1      -4.733   1.771  -2.653  0.00  0.00    +0.039 A 
ATOM     21 CL   UNL     1      -3.449   2.718  -6.314  0.00  0.00    -0.081 Cl
BRANCH  19  22
ATOM     22  N   UNL     1      -5.905   1.832  -4.837  0.00  0.00    +0.058 N 
ATOM     23  O   UNL     1      -6.946   1.475  -4.316  0.00  0.00    -0.126 OA
ATOM     24  O   UNL     1      -5.865   2.041  -6.036  0.00  0.00    -0.126 OA
ENDBRANCH  19  22
ENDBRANCH  12  15
BRANCH   1  25
ATOM     25  C   UNL     1       2.405   3.927  -0.000  0.00  0.00    +0.339 C 
ATOM     26  O   UNL     1       2.385   5.142   0.007  0.00  0.00    -0.245 OA
BRANCH  25  28
ATOM     27  C   UNL     1       4.787   4.082  -0.025  0.00  0.00    +0.280 C 
ATOM     28  O   UNL     1       3.582   3.272  -0.017  0.00  0.00    -0.464 OA
ENDBRANCH  25  28
ENDBRANCH   1  25
TORSDOF 4
