REMARK  Name = ZINC06814000
REMARK  3 active torsions:
REMARK  status: ('A' for Active; 'I' for Inactive)
REMARK    1  A    between atoms: C_13  and  C_21
REMARK    2  A    between atoms: C_15  and  C_19
REMARK    3  A    between atoms: C_16  and  N_18
REMARK                            x       y       z     vdW  Elec       q    Type
REMARK                         _______ _______ _______ _____ _____    ______ ____
ROOT
ATOM      1  C   UNL     1       0.090  -2.778  -0.015  0.00  0.00    +0.001 A 
ATOM      2  C   UNL     1      -1.129  -2.115   0.002  0.00  0.00    +0.002 A 
ATOM      3  C   UNL     1      -1.180  -0.738   0.010  0.00  0.00    +0.026 A 
ATOM      4  C   UNL     1       0.002  -0.004   0.002  0.00  0.00    +0.053 A 
ATOM      5  C   UNL     1       1.234  -0.680  -0.014  0.00  0.00    +0.041 A 
ATOM      6  C   UNL     1       1.263  -2.077  -0.022  0.00  0.00    +0.013 A 
ATOM      7  C   UNL     1       2.476   0.106  -0.020  0.00  0.00    +0.148 A 
ATOM      8  C   UNL     1       2.386   1.465  -0.012  0.00  0.00    +0.072 A 
ATOM      9  C   UNL     1       1.124   2.086   0.003  0.00  0.00    +0.257 A 
ATOM     10  O   UNL     1       1.062   3.304   0.008  0.00  0.00    -0.267 OA
ATOM     11  N   UNL     1      -0.017   1.375   0.010  0.00  0.00    -0.322 N 
ATOM     12  H   UNL     1      -0.868   1.841   0.016  0.00  0.00    +0.169 HD
ATOM     13  C   UNL     1       3.629   2.315  -0.018  0.00  0.00    +0.109 C 
ATOM     14  C   UNL     1       4.817   1.496  -0.440  0.00  0.00    +0.098 C 
ATOM     15  C   UNL     1       4.772   0.142  -0.424  0.00  0.00    +0.199 C 
ATOM     16  O   UNL     1       3.669  -0.521  -0.034  0.00  0.00    -0.440 OA
ENDROOT
BRANCH  13  17
ATOM     17  C   UNL     1       3.865   2.860   1.367  0.00  0.00    +0.036 A 
ATOM     18  C   UNL     1       4.063   1.993   2.428  0.00  0.00    +0.130 A 
ATOM     19  C   UNL     1       4.285   2.494   3.699  0.00  0.00    +0.039 A 
ATOM     20  C   UNL     1       4.298   3.860   3.911  0.00  0.00    +0.006 A 
ATOM     21  C   UNL     1       4.095   4.727   2.854  0.00  0.00    +0.039 A 
ATOM     22  C   UNL     1       3.878   4.227   1.580  0.00  0.00    +0.130 A 
ATOM     23  F   UNL     1       3.680   5.074   0.547  0.00  0.00    -0.205 F 
ATOM     24  F   UNL     1       4.045   0.658   2.222  0.00  0.00    -0.205 F 
ENDBRANCH  13  17
BRANCH  15  25
ATOM     25  N   UNL     1       5.879  -0.570  -0.816  0.00  0.00    -0.328 N 
ATOM     26  H   UNL     1       5.859  -1.540  -0.809  0.00  0.00    +0.145 HD
ATOM     27  H   UNL     1       6.681  -0.103  -1.099  0.00  0.00    +0.145 HD
ENDBRANCH  15  25
BRANCH  14  28
ATOM     28  C   UNL     1       6.014   2.156  -0.865  0.00  0.00    +0.101 C 
ATOM     29  N   UNL     1       6.963   2.681  -1.203  0.00  0.00    -0.191 NA
ENDBRANCH  14  28
TORSDOF 3
