REMARK  Name = ZINC36685200
REMARK  13 active torsions:
REMARK  status: ('A' for Active; 'I' for Inactive)
REMARK    1  A    between atoms: C_1  and  C_2
REMARK    2  A    between atoms: C_2  and  C_3
REMARK    3  A    between atoms: C_2  and  C_4
REMARK    4  A    between atoms: C_6  and  C_16
REMARK    5  A    between atoms: N_10  and  C_13
REMARK    6  A    between atoms: C_13  and  C_14
REMARK    7  A    between atoms: C_13  and  C_15
REMARK    8  A    between atoms: N_18  and  C_19
REMARK    9  A    between atoms: C_19  and  C_20
REMARK   10  A    between atoms: C_20  and  C_22
REMARK   11  A    between atoms: C_20  and  N_27
REMARK   12  A    between atoms: N_27  and  C_28
REMARK   13  A    between atoms: N_27  and  C_29
REMARK                            x       y       z     vdW  Elec       q    Type
REMARK                         _______ _______ _______ _____ _____    ______ ____
ROOT
ATOM      1  C   UNL     1      -0.724   0.943   0.557  0.00  0.00    +0.047 A 
ATOM      2  C   UNL     1      -1.472   0.508   1.640  0.00  0.00    +0.037 A 
ATOM      3  C   UNL     1      -2.649  -0.203   1.417  0.00  0.00    +0.051 A 
ATOM      4  C   UNL     1      -3.027  -0.448   0.078  0.00  0.00    +0.051 A 
ATOM      5  C   UNL     1      -4.116  -1.111  -0.526  0.00  0.00    +0.145 A 
ATOM      6  N   UNL     1      -3.977  -1.045  -1.819  0.00  0.00    -0.177 NA
ATOM      7  N   UNL     1      -2.807  -0.345  -2.134  0.00  0.00    -0.244 N 
ATOM      8  C   UNL     1      -2.205   0.032  -0.962  0.00  0.00    +0.159 A 
ATOM      9  N   UNL     1      -1.099   0.707  -0.681  0.00  0.00    -0.232 NA
ENDROOT
BRANCH   3  10
ATOM     10  C   UNL     1      -3.475  -0.685   2.544  0.00  0.00    +0.245 C 
ATOM     11  O   UNL     1      -4.499  -1.304   2.326  0.00  0.00    -0.270 OA
ATOM     12  N   UNL     1      -3.094  -0.440   3.813  0.00  0.00    -0.313 N 
ATOM     13  H   UNL     1      -2.277   0.053   3.987  0.00  0.00    +0.149 HD
BRANCH  12  14
ATOM     14  C   UNL     1      -3.913  -0.918   4.929  0.00  0.00    +0.094 C 
BRANCH  14  15
ATOM     15  C   UNL     1      -3.197  -0.623   6.250  0.00  0.00    -0.014 C 
BRANCH  15  16
ATOM     16  C   UNL     1      -1.925  -1.427   6.322  0.00  0.00    -0.022 A 
ATOM     17  C   UNL     1      -0.651  -1.032   6.079  0.00  0.00    +0.009 A 
ATOM     18  C   UNL     1       0.373  -1.951   6.209  0.00  0.00    +0.008 A 
ATOM     19  C   UNL     1       0.072  -3.221   6.576  0.00  0.00    +0.045 A 
ATOM     20  S   UNL     1      -1.702  -3.144   6.757  0.00  0.00    -0.103 S 
ENDBRANCH  15  16
BRANCH  15  21
ATOM     21  N   UNL     1      -4.071  -0.988   7.372  0.00  0.00    +0.382 N 
ATOM     22  C   UNL     1      -3.358  -0.772   8.638  0.00  0.00    -0.096 C 
ATOM     23  C   UNL     1      -5.281  -0.155   7.343  0.00  0.00    -0.096 C 
ATOM     24  H   UNL     1      -4.331  -1.960   7.294  0.00  0.00    -0.082 HD
ENDBRANCH  15  21
ENDBRANCH  14  15
ENDBRANCH  12  14
ENDBRANCH   3  10
BRANCH   1  26
ATOM     25  C   UNL     1       0.220   3.192   1.002  0.00  0.00    +0.014 C 
ATOM     26  C   UNL     1       0.549   1.711   0.804  0.00  0.00    +0.032 C 
ATOM     27  C   UNL     1       1.236   1.169   2.059  0.00  0.00    +0.014 C 
ENDBRANCH   1  26
BRANCH   7  28
ATOM     28  C   UNL     1      -2.309  -0.066  -3.484  0.00  0.00    +0.103 C 
ATOM     29  C   UNL     1      -2.061  -1.384  -4.219  0.00  0.00    +0.032 C 
ATOM     30  C   UNL     1      -3.348   0.757  -4.250  0.00  0.00    +0.032 C 
ENDBRANCH   7  28
TORSDOF 7
