REMARK  Name = ZINC35161060
REMARK  1 active torsions:
REMARK  status: ('A' for Active; 'I' for Inactive)
REMARK    1  A    between atoms: C_3  and  C_19
REMARK                            x       y       z     vdW  Elec       q    Type
REMARK                         _______ _______ _______ _____ _____    ______ ____
ROOT
ATOM      1  C   UNL     1       0.009   1.403   0.156  0.00  0.00    +0.018 A 
ATOM      2  C   UNL     1       0.669   0.940   1.279  0.00  0.00    +0.020 A 
ATOM      3  C   UNL     1       1.844   0.198   1.102  0.00  0.00    +0.101 A 
ATOM      4  C   UNL     1       2.301  -0.045  -0.207  0.00  0.00    +0.113 A 
ATOM      5  N   UNL     1       1.627   0.422  -1.247  0.00  0.00    -0.349 N 
ATOM      6  C   UNL     1       0.520   1.123  -1.100  0.00  0.00    +0.084 A 
ATOM      7  N   UNL     1       3.457  -0.774  -0.408  0.00  0.00    -0.313 N 
ATOM      8  C   UNL     1       4.775  -0.121  -0.384  0.00  0.00    +0.107 C 
ATOM      9  C   UNL     1       5.528  -0.464  -1.672  0.00  0.00    +0.019 C 
ATOM     10  C   UNL     1       5.575  -1.985  -1.853  0.00  0.00    +0.007 C 
ATOM     11  C   UNL     1       4.148  -2.522  -1.955  0.00  0.00    +0.010 C 
ATOM     12  C   UNL     1       3.404  -2.220  -0.645  0.00  0.00    +0.078 C 
ATOM     13  C   UNL     1       1.956  -2.691  -0.771  0.00  0.00    +0.023 C 
ATOM     14  C   UNL     1       1.942  -4.204  -1.011  0.00  0.00    +0.002 C 
ATOM     15  C   UNL     1       2.709  -4.534  -2.292  0.00  0.00    +0.000 C 
ATOM     16  C   UNL     1       4.155  -4.034  -2.179  0.00  0.00    +0.005 C 
ATOM     17  H   UNL     1       1.958   0.245  -2.142  0.00  0.00    +0.167 HD
ENDROOT
BRANCH   3  18
ATOM     18  C   UNL     1       2.587  -0.317   2.262  0.00  0.00    +0.390 C 
ATOM     19  O   UNL     1       2.241  -0.011   3.395  0.00  0.00    -0.240 OA
ATOM     20  O   UNL     1       3.551  -1.052   2.094  0.00  0.00    -0.240 OA
ENDBRANCH   3  18
TORSDOF 1
