REMARK  Name = ZINC39948998
REMARK  7 active torsions:
REMARK  status: ('A' for Active; 'I' for Inactive)
REMARK    1  A    between atoms: C_1  and  C_2
REMARK    2  A    between atoms: C_5  and  C_8
REMARK    3  A    between atoms: C_8  and  O_9
REMARK    4  A    between atoms: O_9  and  C_10
REMARK    5  A    between atoms: C_13  and  C_16
REMARK    6  A    between atoms: N_18  and  N_19
REMARK    7  A    between atoms: C_20  and  C_21
REMARK                            x       y       z     vdW  Elec       q    Type
REMARK                         _______ _______ _______ _____ _____    ______ ____
ROOT
ATOM      1  C   UNL     1       2.218 -10.279  -0.065  0.00  0.00    +0.263 C 
ATOM      2  O   UNL     1       1.264 -11.032  -0.068  0.00  0.00    -0.268 OA
ATOM      3  N   UNL     1       3.470 -10.778  -0.069  0.00  0.00    -0.203 N 
ATOM      4  H   UNL     1       4.232 -10.177  -0.066  0.00  0.00    +0.178 HD
ENDROOT
BRANCH   1   8
ATOM      5  C   UNL     1       1.608  -6.077  -0.040  0.00  0.00    +0.121 A 
ATOM      6  C   UNL     1       0.515  -6.936  -0.044  0.00  0.00    +0.046 A 
ATOM      7  C   UNL     1       0.709  -8.299  -0.052  0.00  0.00    +0.016 A 
ATOM      8  C   UNL     1       2.006  -8.819  -0.057  0.00  0.00    +0.039 A 
ATOM      9  C   UNL     1       3.103  -7.952  -0.053  0.00  0.00    +0.016 A 
ATOM     10  C   UNL     1       2.900  -6.590  -0.050  0.00  0.00    +0.046 A 
BRANCH   5  11
ATOM     11  O   UNL     1       1.413  -4.734  -0.032  0.00  0.00    -0.487 OA
BRANCH  11  12
ATOM     12  C   UNL     1       0.059  -4.275  -0.021  0.00  0.00    +0.264 C 
BRANCH  12  17
ATOM     13  C   UNL     1      -0.018   1.503   0.010  0.00  0.00    +0.044 C 
ATOM     14  C   UNL     1       0.002  -0.004   0.002  0.00  0.00    -0.050 A 
ATOM     15  C   UNL     1       0.006  -0.689  -1.199  0.00  0.00    +0.004 A 
ATOM     16  C   UNL     1       0.025  -2.071  -1.206  0.00  0.00    +0.007 A 
ATOM     17  C   UNL     1       0.040  -2.768  -0.013  0.00  0.00    -0.010 A 
ATOM     18  C   UNL     1       0.037  -2.084   1.188  0.00  0.00    +0.007 A 
ATOM     19  C   UNL     1       0.023  -0.702   1.195  0.00  0.00    +0.004 A 
ENDBRANCH  12  17
ENDBRANCH  11  12
ENDBRANCH   5  11
ENDBRANCH   1   8
BRANCH   3  20
ATOM     20  N   UNL     1       3.672 -12.164  -0.076  0.00  0.00    -0.188 NA
ATOM     21  C   UNL     1       4.889 -12.649  -0.080  0.00  0.00    +0.136 C 
BRANCH  21  22
ATOM     22  C   UNL     1       5.090 -14.036  -0.088  0.00  0.00    +0.000 C 
ATOM     23  C   UNL     1       6.309 -14.710  -0.087  0.00  0.00    +0.004 A 
ATOM     24  C   UNL     1       7.648 -14.261  -0.081  0.00  0.00    +0.010 A 
ATOM     25  C   UNL     1       8.661 -15.164  -0.082  0.00  0.00    +0.001 A 
ATOM     26  C   UNL     1       8.416 -16.540  -0.091  0.00  0.00    +0.002 A 
ATOM     27  C   UNL     1       7.158 -17.042  -0.098  0.00  0.00    +0.026 A 
ATOM     28  C   UNL     1       6.045 -16.159  -0.097  0.00  0.00    +0.043 A 
ATOM     29  N   UNL     1       4.749 -16.391  -0.102  0.00  0.00    -0.380 N 
ATOM     30  C   UNL     1       4.029 -15.114  -0.092  0.00  0.00    +0.150 C 
ATOM     31  H   UNL     1       4.336 -17.269  -0.109  0.00  0.00    +0.160 HD
ENDBRANCH  21  22
ENDBRANCH   3  20
TORSDOF 6
