REMARK  Name = ZINC63842573
REMARK  5 active torsions:
REMARK  status: ('A' for Active; 'I' for Inactive)
REMARK    1  A    between atoms: C_1  and  C_2
REMARK    2  A    between atoms: C_9  and  C_11
REMARK    3  A    between atoms: C_11  and  N_12
REMARK    4  A    between atoms: C_15  and  C_20
REMARK    5  A    between atoms: C_20  and  C_21
REMARK                            x       y       z     vdW  Elec       q    Type
REMARK                         _______ _______ _______ _____ _____    ______ ____
ROOT
ATOM      1  N   UNL     1       2.959  -4.835   1.557  0.00  0.00    -0.216 N 
ATOM      2  C   UNL     1       3.730  -5.176   0.506  0.00  0.00    +0.244 C 
ATOM      3  O   UNL     1       3.462  -5.055  -0.670  0.00  0.00    -0.273 OA
ATOM      4  C   UNL     1       5.005  -5.744   1.100  0.00  0.00    +0.165 C 
ATOM      5  N   UNL     1       4.782  -5.646   2.553  0.00  0.00    -0.287 N 
ATOM      6  C   UNL     1       3.564  -5.100   2.720  0.00  0.00    +0.310 C 
ATOM      7  O   UNL     1       3.068  -4.875   3.806  0.00  0.00    -0.252 OA
ATOM      8  H   UNL     1       5.395  -5.920   3.252  0.00  0.00    +0.151 HD
ENDROOT
BRANCH   1   9
ATOM      9  C   UNL     1       1.625  -4.241   1.440  0.00  0.00    +0.213 C 
BRANCH   9  17
ATOM     10  C   UNL     1      -0.019   1.526   0.010  0.00  0.00    +0.009 C 
ATOM     11  C   UNL     1       0.002  -0.004   0.002  0.00  0.00    +0.003 C 
ATOM     12  C   UNL     1      -1.433  -0.534   0.015  0.00  0.00    +0.006 C 
ATOM     13  C   UNL     1      -1.414  -2.064  -0.027  0.00  0.00    +0.019 C 
ATOM     14  C   UNL     1      -0.692  -2.596   1.215  0.00  0.00    +0.108 C 
ATOM     15  N   UNL     1       0.639  -1.977   1.288  0.00  0.00    -0.300 N 
ATOM     16  C   UNL     1       0.742  -0.512   1.244  0.00  0.00    +0.111 C 
ATOM     17  C   UNL     1       1.746  -2.740   1.395  0.00  0.00    +0.234 C 
ATOM     18  O   UNL     1       2.838  -2.217   1.455  0.00  0.00    -0.274 OA
ENDBRANCH   9  17
ENDBRANCH   1   9
BRANCH   4  19
ATOM     19  C   UNL     1       5.193  -7.202   0.677  0.00  0.00    +0.065 C 
BRANCH  19  20
ATOM     20  C   UNL     1       6.523  -7.702   1.178  0.00  0.00    -0.039 C 
ATOM     21  C   UNL     1       6.757  -8.386   2.321  0.00  0.00    -0.001 A 
ATOM     22  C   UNL     1       5.876  -8.851   3.399  0.00  0.00    +0.010 A 
ATOM     23  C   UNL     1       6.414  -9.526   4.440  0.00  0.00    +0.001 A 
ATOM     24  C   UNL     1       7.788  -9.793   4.515  0.00  0.00    +0.002 A 
ATOM     25  C   UNL     1       8.660  -9.399   3.563  0.00  0.00    +0.026 A 
ATOM     26  C   UNL     1       8.204  -8.681   2.423  0.00  0.00    +0.043 A 
ATOM     27  N   UNL     1       8.840  -8.198   1.384  0.00  0.00    -0.380 N 
ATOM     28  C   UNL     1       7.867  -7.546   0.501  0.00  0.00    +0.144 C 
ATOM     29  H   UNL     1       9.795  -8.263   1.224  0.00  0.00    +0.160 HD
ENDBRANCH  19  20
ENDBRANCH   4  19
TORSDOF 4
