REMARK  Name = ZINC60944413
REMARK  2 active torsions:
REMARK  status: ('A' for Active; 'I' for Inactive)
REMARK    1  A    between atoms: C_9  and  S_11
REMARK    2  A    between atoms: S_11  and  N_14
REMARK                            x       y       z     vdW  Elec       q    Type
REMARK                         _______ _______ _______ _____ _____    ______ ____
ROOT
ATOM      1  C   UNL     1      -0.017   1.380   0.010  0.00  0.00    +0.000 A 
ATOM      2  C   UNL     1       1.168   2.095   0.002  0.00  0.00    +0.001 A 
ATOM      3  C   UNL     1       2.378   1.432  -0.022  0.00  0.00    +0.008 A 
ATOM      4  C   UNL     1       2.403   0.041  -0.044  0.00  0.00    -0.020 A 
ATOM      5  C   UNL     1       1.205  -0.677  -0.016  0.00  0.00    -0.040 A 
ATOM      6  C   UNL     1       0.002  -0.004   0.002  0.00  0.00    +0.004 A 
ATOM      7  C   UNL     1       1.244  -2.182   0.016  0.00  0.00    +0.042 C 
ATOM      8  C   UNL     1       2.426  -2.691  -0.806  0.00  0.00    +0.061 C 
ATOM      9  C   UNL     1       3.692  -1.978  -0.416  0.00  0.00    +0.091 C 
ATOM     10  C   UNL     1       3.681  -0.699  -0.076  0.00  0.00    +0.032 C 
ENDROOT
BRANCH   9  11
ATOM     11  S   UNL     1       5.216  -2.862  -0.411  0.00  0.00    +0.097 S 
ATOM     12  O   UNL     1       6.180  -2.007   0.189  0.00  0.00    -0.147 OA
ATOM     13  O   UNL     1       4.932  -4.160   0.091  0.00  0.00    -0.147 OA
BRANCH  11  14
ATOM     14  N   UNL     1       5.675  -3.056  -1.991  0.00  0.00    -0.104 NA
ATOM     15  C   UNL     1       6.786  -3.687  -2.278  0.00  0.00    +0.191 A 
ATOM     16  N   UNL     1       7.707  -4.265  -1.430  0.00  0.00    -0.339 N 
ATOM     17  C   UNL     1       8.800  -4.873  -1.974  0.00  0.00    +0.092 A 
ATOM     18  C   UNL     1       8.964  -4.900  -3.297  0.00  0.00    +0.066 A 
ATOM     19  S   UNL     1       7.511  -4.036  -3.873  0.00  0.00    -0.057 S 
ATOM     20  H   UNL     1       7.580  -4.240  -0.469  0.00  0.00    +0.167 HD
ENDBRANCH  11  14
ENDBRANCH   9  11
TORSDOF 2
