REMARK  Name = ZINC02438830
REMARK  5 active torsions:
REMARK  status: ('A' for Active; 'I' for Inactive)
REMARK    1  A    between atoms: C_1  and  C_2
REMARK    2  A    between atoms: C_5  and  C_8
REMARK    3  A    between atoms: N_10  and  C_11
REMARK    4  A    between atoms: C_11  and  C_25
REMARK    5  A    between atoms: N_14  and  C_18
REMARK                            x       y       z     vdW  Elec       q    Type
REMARK                         _______ _______ _______ _____ _____    ______ ____
ROOT
ATOM      1  C   UNL     1      -0.045  -6.405   1.094  0.00  0.00    +0.305 C 
ATOM      2  C   UNL     1      -1.415  -6.713   0.525  0.00  0.00    +0.283 C 
ATOM      3  O   UNL     1      -1.806  -6.516  -0.606  0.00  0.00    -0.270 OA
ATOM      4  N   UNL     1      -2.107  -7.255   1.550  0.00  0.00    -0.187 N 
ATOM      5  C   UNL     1      -1.328  -7.317   2.679  0.00  0.00    +0.345 C 
ATOM      6  O   UNL     1      -1.760  -7.814   3.859  0.00  0.00    -0.247 OA
ATOM      7  N   UNL     1      -0.135  -6.849   2.494  0.00  0.00    -0.188 NA
ENDROOT
BRANCH   4   8
ATOM      8  C   UNL     1      -3.436  -7.693   1.473  0.00  0.00    +0.046 A 
ATOM      9  C   UNL     1      -4.016  -8.348   2.550  0.00  0.00    +0.025 A 
ATOM     10  C   UNL     1      -5.326  -8.779   2.472  0.00  0.00    +0.022 A 
ATOM     11  C   UNL     1      -6.061  -8.557   1.320  0.00  0.00    +0.041 A 
ATOM     12  C   UNL     1      -5.484  -7.905   0.244  0.00  0.00    +0.022 A 
ATOM     13  C   UNL     1      -4.177  -7.467   0.320  0.00  0.00    +0.025 A 
ATOM     14 CL   UNL     1      -7.707  -9.100   1.224  0.00  0.00    -0.084 Cl
ENDBRANCH   4   8
BRANCH   1  17
ATOM     15  C   UNL     1       0.101  -4.311  -0.143  0.00  0.00    +0.246 C 
ATOM     16  O   UNL     1      -0.153  -4.926  -1.160  0.00  0.00    -0.270 OA
ATOM     17  N   UNL     1       0.228  -4.967   1.027  0.00  0.00    -0.273 N 
ATOM     18  H   UNL     1       0.501  -4.487   1.825  0.00  0.00    +0.152 HD
BRANCH  15  23
ATOM     19  C   UNL     1       0.762   1.403  -0.325  0.00  0.00    +0.044 C 
ATOM     20  C   UNL     1       0.589  -0.093  -0.277  0.00  0.00    -0.050 A 
ATOM     21  C   UNL     1       0.300  -0.790  -1.437  0.00  0.00    +0.004 A 
ATOM     22  C   UNL     1       0.140  -2.160  -1.400  0.00  0.00    +0.013 A 
ATOM     23  C   UNL     1       0.271  -2.843  -0.190  0.00  0.00    +0.037 A 
ATOM     24  C   UNL     1       0.563  -2.134   0.976  0.00  0.00    +0.013 A 
ATOM     25  C   UNL     1       0.726  -0.765   0.925  0.00  0.00    +0.004 A 
ENDBRANCH  15  23
ENDBRANCH   1  17
BRANCH   1  26
ATOM     26  C   UNL     1       1.038  -7.191   0.351  0.00  0.00    +0.440 C 
ATOM     27  F   UNL     1       2.271  -6.997   0.982  0.00  0.00    -0.166 F 
ATOM     28  F   UNL     1       0.717  -8.552   0.363  0.00  0.00    -0.166 F 
ATOM     29  F   UNL     1       1.115  -6.741  -0.972  0.00  0.00    -0.166 F 
ENDBRANCH   1  26
TORSDOF 4
