REMARK  Name = ZINC02726751
REMARK  4 active torsions:
REMARK  status: ('A' for Active; 'I' for Inactive)
REMARK    1  A    between atoms: C_6  and  C_7
REMARK    2  A    between atoms: C_7  and  O_8
REMARK    3  A    between atoms: O_8  and  C_9
REMARK    4  A    between atoms: C_12  and  C_16
REMARK                            x       y       z     vdW  Elec       q    Type
REMARK                         _______ _______ _______ _____ _____    ______ ____
ROOT
ATOM      1  C   UNL     1      -3.472   2.360   1.076  0.00  0.00    +0.139 A 
ATOM      2  C   UNL     1      -4.470   2.666   0.155  0.00  0.00    +0.048 A 
ATOM      3  C   UNL     1      -5.473   3.530   0.489  0.00  0.00    +0.011 A 
ATOM      4  C   UNL     1      -5.501   4.113   1.766  0.00  0.00    -0.023 A 
ATOM      5  C   UNL     1      -4.495   3.804   2.694  0.00  0.00    +0.031 A 
ATOM      6  C   UNL     1      -3.492   2.928   2.348  0.00  0.00    +0.083 A 
ATOM      7 CL   UNL     1      -2.248   2.535   3.493  0.00  0.00    -0.080 Cl
ENDROOT
BRANCH   4   8
ATOM      8  C   UNL     1      -6.575   5.038   2.127  0.00  0.00    +0.026 C 
ATOM      9  C   UNL     1      -6.950   6.037   1.248  0.00  0.00    +0.100 C 
ATOM     10  C   UNL     1      -6.151   6.347   0.046  0.00  0.00    +0.256 C 
ATOM     11  O   UNL     1      -5.134   5.729  -0.205  0.00  0.00    -0.270 OA
ATOM     12  N   UNL     1      -6.582   7.332  -0.768  0.00  0.00    -0.236 N 
ATOM     13  C   UNL     1      -7.698   8.026  -0.500  0.00  0.00    +0.313 C 
ATOM     14  O   UNL     1      -8.027   8.904  -1.272  0.00  0.00    -0.252 OA
ATOM     15  N   UNL     1      -8.468   7.803   0.573  0.00  0.00    -0.236 N 
ATOM     16  C   UNL     1      -8.165   6.845   1.474  0.00  0.00    +0.256 C 
ATOM     17  O   UNL     1      -8.873   6.653   2.444  0.00  0.00    -0.270 OA
ATOM     18  H   UNL     1      -6.072   7.546  -1.565  0.00  0.00    +0.159 HD
ATOM     19  H   UNL     1      -9.263   8.343   0.706  0.00  0.00    +0.159 HD
ENDBRANCH   4   8
BRANCH   1  20
ATOM     20  O   UNL     1      -2.480   1.501   0.735  0.00  0.00    -0.486 OA
BRANCH  20  21
ATOM     21  C   UNL     1      -2.522   0.950  -0.583  0.00  0.00    +0.264 C 
BRANCH  21  27
ATOM     22  C   UNL     1      -0.157   0.517  -1.279  0.00  0.00    +0.008 A 
ATOM     23  C   UNL     1       0.918  -0.332  -1.464  0.00  0.00    +0.020 A 
ATOM     24  C   UNL     1       0.801  -1.674  -1.150  0.00  0.00    +0.041 A 
ATOM     25  C   UNL     1      -0.391  -2.166  -0.650  0.00  0.00    +0.020 A 
ATOM     26  C   UNL     1      -1.466  -1.316  -0.464  0.00  0.00    +0.008 A 
ATOM     27  C   UNL     1      -1.349   0.025  -0.779  0.00  0.00    -0.010 A 
ATOM     28 CL   UNL     1       2.151  -2.740  -1.382  0.00  0.00    -0.084 Cl
ENDBRANCH  21  27
ENDBRANCH  20  21
ENDBRANCH   1  20
TORSDOF 4
