REMARK  Name = ZINC01180488
REMARK  7 active torsions:
REMARK  status: ('A' for Active; 'I' for Inactive)
REMARK    1  A    between atoms: C_1  and  C_2
REMARK    2  A    between atoms: C_6  and  C_23
REMARK    3  A    between atoms: C_7  and  N_8
REMARK    4  A    between atoms: N_8  and  C_9
REMARK    5  A    between atoms: C_9  and  N_11
REMARK    6  A    between atoms: C_12  and  C_14
REMARK    7  A    between atoms: C_17  and  N_20
REMARK                            x       y       z     vdW  Elec       q    Type
REMARK                         _______ _______ _______ _____ _____    ______ ____
ROOT
ATOM      1  C   UNL     1       0.860   1.661  -0.572  0.00  0.00    +0.141 C 
ATOM      2  S   UNL     1       0.353   2.933  -1.600  0.00  0.00    -0.018 S 
ENDROOT
BRANCH   1   3
ATOM      3  N   UNL     1       2.164   1.327  -0.505  0.00  0.00    -0.264 N 
ATOM      4  C   UNL     1       3.069   1.994  -1.248  0.00  0.00    +0.250 C 
ATOM      5  O   UNL     1       2.710   2.897  -1.978  0.00  0.00    -0.270 OA
ATOM      6  H   UNL     1       2.451   0.607   0.077  0.00  0.00    +0.157 HD
BRANCH   4   7
ATOM      7  C   UNL     1       4.499   1.628  -1.175  0.00  0.00    +0.037 A 
ATOM      8  C   UNL     1       4.917   0.596  -0.334  0.00  0.00    +0.015 A 
ATOM      9  C   UNL     1       6.252   0.255  -0.275  0.00  0.00    +0.033 A 
ATOM     10  C   UNL     1       7.179   0.942  -1.039  0.00  0.00    +0.126 A 
ATOM     11  C   UNL     1       6.773   1.970  -1.871  0.00  0.00    +0.033 A 
ATOM     12  C   UNL     1       5.439   2.317  -1.944  0.00  0.00    +0.015 A 
BRANCH  10  13
ATOM     13  N   UNL     1       8.611   0.575  -0.966  0.00  0.00    +0.056 N 
ATOM     14  O   UNL     1       9.429   1.178  -1.638  0.00  0.00    -0.126 OA
ATOM     15  O   UNL     1       8.971  -0.330  -0.235  0.00  0.00    -0.126 OA
ENDBRANCH  10  13
ENDBRANCH   4   7
ENDBRANCH   1   3
BRANCH   1  16
ATOM     16  N   UNL     1      -0.045   0.994   0.171  0.00  0.00    -0.296 N 
ATOM     17  H   UNL     1       0.233   0.237   0.711  0.00  0.00    +0.154 HD
BRANCH  16  24
ATOM     18  C   UNL     1      -0.653   3.703   0.794  0.00  0.00    +0.046 C 
ATOM     19  C   UNL     1      -1.728   2.702   0.458  0.00  0.00    -0.028 A 
ATOM     20  C   UNL     1      -3.054   3.090   0.440  0.00  0.00    +0.020 A 
ATOM     21  C   UNL     1      -4.042   2.170   0.137  0.00  0.00    +0.018 A 
ATOM     22  C   UNL     1      -3.705   0.860  -0.155  0.00  0.00    +0.020 A 
ATOM     23  C   UNL     1      -2.381   0.468  -0.144  0.00  0.00    -0.028 A 
ATOM     24  C   UNL     1      -1.387   1.389   0.160  0.00  0.00    +0.039 A 
ATOM     25  C   UNL     1      -2.015  -0.959  -0.463  0.00  0.00    +0.046 C 
ATOM     26 BR   UNL     1      -5.856   2.704   0.122  0.00  0.00    -0.050 Br
ENDBRANCH  16  24
ENDBRANCH   1  16
TORSDOF 5
