REMARK  Name = ZINC22011108
REMARK  9 active torsions:
REMARK  status: ('A' for Active; 'I' for Inactive)
REMARK    1  A    between atoms: C_1  and  O_2
REMARK    2  A    between atoms: O_2  and  C_3
REMARK    3  A    between atoms: C_6  and  C_11
REMARK    4  A    between atoms: C_8  and  O_9
REMARK    5  A    between atoms: O_9  and  C_10
REMARK    6  A    between atoms: C_11  and  C_12
REMARK    7  A    between atoms: C_12  and  O_13
REMARK    8  A    between atoms: O_13  and  C_14
REMARK    9  A    between atoms: C_20  and  N_22
REMARK                            x       y       z     vdW  Elec       q    Type
REMARK                         _______ _______ _______ _____ _____    ______ ____
ROOT
ATOM      1  C   UNL     1      -0.698   1.552  -3.627  0.00  0.00    +0.105 C 
ATOM      2  C   UNL     1      -0.100   2.891  -4.064  0.00  0.00    +0.030 C 
ATOM      3  C   UNL     1      -0.757   3.341  -5.371  0.00  0.00    +0.002 C 
ATOM      4  C   UNL     1      -0.505   2.292  -6.456  0.00  0.00    -0.001 C 
ATOM      5  C   UNL     1      -1.103   0.953  -6.019  0.00  0.00    -0.013 C 
ATOM      6  C   UNL     1      -0.446   0.503  -4.712  0.00  0.00    -0.039 C 
ENDROOT
BRANCH   6   7
ATOM      7  N   UNL     1      -1.020  -0.783  -4.293  0.00  0.00    +0.387 N 
ATOM      8  C   UNL     1      -0.421  -1.241  -3.020  0.00  0.00    -0.073 C 
ATOM      9  C   UNL     1      -0.381  -2.786  -3.133  0.00  0.00    +0.044 C 
ATOM     10  C   UNL     1      -0.059  -2.981  -4.630  0.00  0.00    +0.154 C 
ATOM     11  C   UNL     1      -0.796  -1.822  -5.317  0.00  0.00    -0.013 C 
ATOM     12  O   UNL     1       1.351  -2.892  -4.852  0.00  0.00    -0.348 OA
ATOM     13  C   UNL     1       1.798  -4.270  -4.910  0.00  0.00    +0.191 C 
ATOM     14  C   UNL     1       0.599  -4.964  -5.604  0.00  0.00    +0.191 C 
ATOM     15  O   UNL     1      -0.541  -4.241  -5.089  0.00  0.00    -0.348 OA
ATOM     16  H   UNL     1      -2.100  -0.619  -4.160  0.00  0.00    -0.081 HD
ENDBRANCH   6   7
BRANCH   1  17
ATOM     17  O   UNL     1      -0.084   1.132  -2.407  0.00  0.00    -0.378 OA
BRANCH  17  18
ATOM     18  C   UNL     1      -0.753   1.593  -1.232  0.00  0.00    +0.165 C 
BRANCH  18  19
ATOM     19  C   UNL     1      -0.013   1.086   0.008  0.00  0.00    +0.063 C 
BRANCH  19  23
ATOM     20  C   UNL     1      -2.011   2.470   3.526  0.00  0.00    +0.161 A 
ATOM     21  C   UNL     1      -1.007   3.232   2.952  0.00  0.00    +0.049 A 
ATOM     22  C   UNL     1      -0.359   2.779   1.817  0.00  0.00    +0.007 A 
ATOM     23  C   UNL     1      -0.718   1.572   1.248  0.00  0.00    -0.042 A 
ATOM     24  C   UNL     1      -1.719   0.807   1.817  0.00  0.00    +0.053 A 
ATOM     25  C   UNL     1      -2.369   1.252   2.957  0.00  0.00    +0.162 A 
BRANCH  20  27
ATOM     26  C   UNL     1      -2.225   4.170   5.176  0.00  0.00    +0.277 C 
ATOM     27  O   UNL     1      -2.645   2.911   4.646  0.00  0.00    -0.491 OA
ENDBRANCH  20  27
BRANCH  25  28
ATOM     28  O   UNL     1      -3.354   0.501   3.517  0.00  0.00    -0.491 OA
ATOM     29  C   UNL     1      -3.669  -0.738   2.877  0.00  0.00    +0.277 C 
ENDBRANCH  25  28
ENDBRANCH  19  23
ENDBRANCH  18  19
ENDBRANCH  17  18
ENDBRANCH   1  17
TORSDOF 7
