REMARK  Name = ZINC01363931
REMARK  7 active torsions:
REMARK  status: ('A' for Active; 'I' for Inactive)
REMARK    1  A    between atoms: C_1  and  C_2
REMARK    2  A    between atoms: C_5  and  C_8
REMARK    3  A    between atoms: C_8  and  N_9
REMARK    4  A    between atoms: C_10  and  C_12
REMARK    5  A    between atoms: N_17  and  S_19
REMARK    6  A    between atoms: S_19  and  C_22
REMARK    7  A    between atoms: C_25  and  N_28
REMARK                            x       y       z     vdW  Elec       q    Type
REMARK                         _______ _______ _______ _____ _____    ______ ____
ROOT
ATOM      1  C   UNL     1       3.137  -6.551  -0.051  0.00  0.00    +0.091 C 
ATOM      2  C   UNL     1       3.845  -6.027  -1.302  0.00  0.00    +0.015 C 
ATOM      3  C   UNL     1       5.304  -6.490  -1.297  0.00  0.00    +0.018 C 
ATOM      4  C   UNL     1       5.349  -8.022  -1.322  0.00  0.00    +0.109 C 
ATOM      5  N   UNL     1       4.548  -8.537  -0.203  0.00  0.00    -0.176 NA
ATOM      6  C   UNL     1       3.158  -8.083  -0.061  0.00  0.00    +0.122 C 
ENDROOT
BRANCH   1   8
ATOM      7  N   UNL     1       1.447  -4.746  -0.032  0.00  0.00    -0.311 N 
ATOM      8  C   UNL     1       1.710  -6.067  -0.040  0.00  0.00    +0.218 C 
ATOM      9  O   UNL     1       0.799  -6.867  -0.040  0.00  0.00    -0.275 OA
ATOM     10  H   UNL     1       2.176  -4.106  -0.032  0.00  0.00    +0.149 HD
BRANCH   7  11
ATOM     11  C   UNL     1       0.059  -4.275  -0.021  0.00  0.00    +0.139 C 
BRANCH  11  16
ATOM     12  C   UNL     1      -0.018   1.503   0.010  0.00  0.00    +0.044 C 
ATOM     13  C   UNL     1       0.002  -0.004   0.002  0.00  0.00    -0.050 A 
ATOM     14  C   UNL     1       0.006  -0.689  -1.199  0.00  0.00    +0.003 A 
ATOM     15  C   UNL     1       0.025  -2.071  -1.206  0.00  0.00    +0.005 A 
ATOM     16  C   UNL     1       0.040  -2.768  -0.013  0.00  0.00    -0.030 A 
ATOM     17  C   UNL     1       0.037  -2.084   1.188  0.00  0.00    +0.005 A 
ATOM     18  C   UNL     1       0.023  -0.702   1.195  0.00  0.00    +0.003 A 
ENDBRANCH  11  16
ENDBRANCH   7  11
ENDBRANCH   1   8
BRANCH   5  19
ATOM     19  S   UNL     1       5.200  -9.608   0.878  0.00  0.00    +0.061 S 
ATOM     20  O   UNL     1       4.112 -10.321   1.450  0.00  0.00    -0.153 OA
ATOM     21  O   UNL     1       6.270 -10.260   0.208  0.00  0.00    -0.153 OA
BRANCH  19  22
ATOM     22  C   UNL     1       5.922  -8.662   2.178  0.00  0.00    +0.106 A 
ATOM     23  C   UNL     1       7.241  -8.258   2.087  0.00  0.00    +0.030 A 
ATOM     24  C   UNL     1       7.809  -7.516   3.104  0.00  0.00    +0.030 A 
ATOM     25  C   UNL     1       7.055  -7.177   4.218  0.00  0.00    +0.069 A 
ATOM     26  C   UNL     1       5.731  -7.584   4.307  0.00  0.00    +0.030 A 
ATOM     27  C   UNL     1       5.166  -8.321   3.284  0.00  0.00    +0.030 A 
BRANCH  25  28
ATOM     28  N   UNL     1       7.629  -6.424   5.253  0.00  0.00    -0.200 N 
ATOM     29  C   UNL     1       7.038  -6.018   6.398  0.00  0.00    +0.250 A 
ATOM     30  N   UNL     1       7.929  -5.345   7.077  0.00  0.00    -0.116 NA
ATOM     31  N   UNL     1       9.043  -5.297   6.440  0.00  0.00    -0.023 NA
ATOM     32  N   UNL     1       8.945  -5.935   5.324  0.00  0.00    -0.039 NA
ENDBRANCH  25  28
ENDBRANCH  19  22
ENDBRANCH   5  19
TORSDOF 6
