REMARK  Name = ZINC49209630
REMARK  4 active torsions:
REMARK  status: ('A' for Active; 'I' for Inactive)
REMARK    1  A    between atoms: C_1  and  C_2
REMARK    2  A    between atoms: C_2  and  C_4
REMARK    3  A    between atoms: C_2  and  N_10
REMARK    4  A    between atoms: N_13  and  C_14
REMARK                            x       y       z     vdW  Elec       q    Type
REMARK                         _______ _______ _______ _____ _____    ______ ____
ROOT
ATOM      1  N   UNL     1       0.689  -0.469  -1.205  0.00  0.00    -0.292 N 
ATOM      2  C   UNL     1       0.006  -0.607  -2.359  0.00  0.00    +0.304 C 
ATOM      3  O   UNL     1      -1.179  -0.338  -2.400  0.00  0.00    -0.252 OA
ATOM      4  N   UNL     1       0.637  -1.043  -3.467  0.00  0.00    -0.268 N 
ATOM      5  H   UNL     1       1.635  -0.683  -1.173  0.00  0.00    +0.151 HD
ATOM      6  H   UNL     1       1.595  -1.192  -3.453  0.00  0.00    +0.156 HD
ENDROOT
BRANCH   4   7
ATOM      7  C   UNL     1      -0.091  -1.280  -4.640  0.00  0.00    +0.053 A 
ATOM      8  C   UNL     1      -1.178  -0.474  -4.971  0.00  0.00    +0.028 A 
ATOM      9  C   UNL     1      -1.867  -0.747  -6.141  0.00  0.00    +0.042 A 
ATOM     10  C   UNL     1      -1.457  -1.803  -6.936  0.00  0.00    +0.129 A 
ATOM     11  N   UNL     1      -0.424  -2.548  -6.593  0.00  0.00    -0.242 NA
ATOM     12  C   UNL     1       0.263  -2.317  -5.491  0.00  0.00    +0.135 A 
ATOM     13 CL   UNL     1      -2.315  -2.153  -8.404  0.00  0.00    -0.062 Cl
ENDBRANCH   4   7
BRANCH   1  15
ATOM     14  C   UNL     1      -0.023   1.534   0.003  0.00  0.00    +0.033 C 
ATOM     15  C   UNL     1       0.004   0.005  -0.000  0.00  0.00    +0.108 C 
BRANCH  15  16
ATOM     16  C   UNL     1       0.737  -0.488   1.221  0.00  0.00    +0.011 A 
ATOM     17  C   UNL     1       0.232  -0.961   2.386  0.00  0.00    +0.014 A 
ATOM     18  C   UNL     1       1.103  -1.362   3.381  0.00  0.00    +0.028 A 
ATOM     19  C   UNL     1       2.439  -1.269   3.162  0.00  0.00    +0.078 A 
ATOM     20  S   UNL     1       2.495  -0.606   1.505  0.00  0.00    -0.080 S 
ATOM     21 CL   UNL     1       3.752  -1.692   4.216  0.00  0.00    -0.076 Cl
ENDBRANCH  15  16
ENDBRANCH   1  15
TORSDOF 3
