REMARK  Name = ZINC40391466
REMARK  11 active torsions:
REMARK  status: ('A' for Active; 'I' for Inactive)
REMARK    1  A    between atoms: C_1  and  C_2
REMARK    2  A    between atoms: C_2  and  N_3
REMARK    3  A    between atoms: C_4  and  C_23
REMARK    4  A    between atoms: C_5  and  C_18
REMARK    5  A    between atoms: C_6  and  C_11
REMARK    6  A    between atoms: C_18  and  O_20
REMARK    7  A    between atoms: O_20  and  C_21
REMARK    8  A    between atoms: C_21  and  C_22
REMARK    9  A    between atoms: C_23  and  N_24
REMARK   10  A    between atoms: C_28  and  C_31
REMARK   11  A    between atoms: C_32  and  C_34
REMARK                            x       y       z     vdW  Elec       q    Type
REMARK                         _______ _______ _______ _____ _____    ______ ____
ROOT
ATOM      1  N   UNL     1      -0.384   0.365  -3.199  0.00  0.00    -0.258 N 
ATOM      2  C   UNL     1      -1.339   0.228  -4.165  0.00  0.00    +0.041 C 
ATOM      3  C   UNL     1      -1.002  -0.035  -5.446  0.00  0.00    +0.080 C 
ATOM      4  C   UNL     1       0.471  -0.173  -5.774  0.00  0.00    +0.144 C 
ATOM      5  N   UNL     1       1.420  -0.007  -4.661  0.00  0.00    -0.288 N 
ATOM      6  C   UNL     1       0.930   0.258  -3.434  0.00  0.00    +0.307 C 
ATOM      7  O   UNL     1       1.706   0.400  -2.509  0.00  0.00    -0.252 OA
ATOM      8  H   UNL     1       2.376  -0.084  -4.808  0.00  0.00    +0.151 HD
ENDROOT
BRANCH   4   9
ATOM      9  C   UNL     1       0.809   0.849  -6.829  0.00  0.00    -0.022 A 
ATOM     10  C   UNL     1       1.034   2.165  -6.468  0.00  0.00    +0.008 A 
ATOM     11  C   UNL     1       1.345   3.103  -7.435  0.00  0.00    +0.038 A 
ATOM     12  C   UNL     1       1.432   2.724  -8.764  0.00  0.00    +0.123 A 
ATOM     13  C   UNL     1       1.207   1.406  -9.123  0.00  0.00    +0.038 A 
ATOM     14  C   UNL     1       0.901   0.469  -8.155  0.00  0.00    +0.008 A 
ATOM     15  F   UNL     1       1.736   3.640  -9.709  0.00  0.00    -0.205 F 
ENDBRANCH   4   9
BRANCH   1  17
ATOM     16  C   UNL     1      -0.907   2.164  -1.627  0.00  0.00    +0.025 C 
ATOM     17  C   UNL     1      -0.821   0.650  -1.830  0.00  0.00    +0.111 C 
ENDBRANCH   1  17
BRANCH   3  18
ATOM     18  C   UNL     1      -1.991  -0.178  -6.448  0.00  0.00    +0.339 C 
ATOM     19  O   UNL     1      -2.353  -1.287  -6.792  0.00  0.00    -0.245 OA
BRANCH  18  20
ATOM     20  O   UNL     1      -2.533   0.917  -7.022  0.00  0.00    -0.462 OA
BRANCH  20  21
ATOM     21  C   UNL     1      -3.525   0.699  -8.027  0.00  0.00    +0.229 C 
ATOM     22  C   UNL     1      -4.019   2.046  -8.557  0.00  0.00    +0.048 C 
ENDBRANCH  20  21
ENDBRANCH  18  20
ENDBRANCH   3  18
BRANCH   2  23
ATOM     23  C   UNL     1      -2.793   0.373  -3.796  0.00  0.00    +0.136 C 
BRANCH  23  24
ATOM     24  N   UNL     1      -3.188  -0.737  -2.919  0.00  0.00    -0.294 NA
ATOM     25  C   UNL     1      -3.128  -2.020  -3.633  0.00  0.00    +0.104 C 
ATOM     26  C   UNL     1      -3.369  -3.164  -2.643  0.00  0.00    +0.124 C 
ATOM     27  N   UNL     1      -4.630  -2.907  -1.931  0.00  0.00    -0.292 N 
ATOM     28  C   UNL     1      -4.821  -1.590  -1.305  0.00  0.00    +0.087 C 
ATOM     29  C   UNL     1      -4.522  -0.508  -2.348  0.00  0.00    +0.107 C 
ATOM     30  C   UNL     1      -6.265  -1.456  -0.818  0.00  0.00    +0.029 C 
ATOM     31  C   UNL     1      -5.586  -3.855  -1.854  0.00  0.00    +0.250 C 
ATOM     32  O   UNL     1      -6.655  -3.599  -1.335  0.00  0.00    -0.270 OA
BRANCH  31  33
ATOM     33  C   UNL     1      -5.335  -5.204  -2.400  0.00  0.00    +0.072 A 
ATOM     34  C   UNL     1      -4.037  -5.720  -2.425  0.00  0.00    +0.016 A 
ATOM     35  C   UNL     1      -3.810  -6.980  -2.936  0.00  0.00    +0.001 A 
ATOM     36  C   UNL     1      -4.863  -7.735  -3.424  0.00  0.00    +0.003 A 
ATOM     37  C   UNL     1      -6.150  -7.233  -3.404  0.00  0.00    +0.039 A 
ATOM     38  C   UNL     1      -6.395  -5.973  -2.889  0.00  0.00    +0.135 A 
ATOM     39  F   UNL     1      -7.655  -5.484  -2.864  0.00  0.00    -0.205 F 
ENDBRANCH  31  33
ENDBRANCH  23  24
ENDBRANCH   2  23
TORSDOF 8
