REMARK  Name = ZINC01233480
REMARK  7 active torsions:
REMARK  status: ('A' for Active; 'I' for Inactive)
REMARK    1  A    between atoms: C_1  and  C_2
REMARK    2  A    between atoms: C_5  and  N_8
REMARK    3  A    between atoms: C_17  and  C_23
REMARK    4  A    between atoms: C_23  and  N_24
REMARK    5  A    between atoms: C_25  and  O_27
REMARK    6  A    between atoms: O_27  and  C_28
REMARK    7  A    between atoms: C_28  and  C_29
REMARK                            x       y       z     vdW  Elec       q    Type
REMARK                         _______ _______ _______ _____ _____    ______ ____
ROOT
ATOM      1  N   UNL     1       4.784   2.016  -1.938  0.00  0.00    -0.210 N 
ATOM      2  C   UNL     1       5.247   0.773  -1.761  0.00  0.00    +0.233 C 
ATOM      3  O   UNL     1       5.971   0.180  -2.531  0.00  0.00    -0.274 OA
ATOM      4  C   UNL     1       4.728   0.222  -0.452  0.00  0.00    +0.123 C 
ATOM      5  C   UNL     1       3.639  -0.849  -0.768  0.00  0.00    +0.155 C 
ATOM      6  C   UNL     1       3.123  -1.308   0.598  0.00  0.00    +0.004 C 
ATOM      7  C   UNL     1       2.385  -0.302   1.089  0.00  0.00    +0.008 C 
ATOM      8  C   UNL     1       2.426   0.796   0.024  0.00  0.00    +0.116 C 
ATOM      9  C   UNL     1       3.864   1.395   0.110  0.00  0.00    +0.128 C 
ATOM     10  C   UNL     1       4.000   2.463  -0.950  0.00  0.00    +0.233 C 
ATOM     11  O   UNL     1       3.478   3.556  -0.912  0.00  0.00    -0.274 OA
ATOM     12  O   UNL     1       2.525   0.001  -1.206  0.00  0.00    -0.359 OA
ENDROOT
BRANCH   1  17
ATOM     13  C   UNL     1       6.042   5.136  -6.508  0.00  0.00    +0.044 C 
ATOM     14  C   UNL     1       5.708   4.308  -5.295  0.00  0.00    -0.050 A 
ATOM     15  C   UNL     1       4.412   3.872  -5.093  0.00  0.00    +0.005 A 
ATOM     16  C   UNL     1       4.102   3.112  -3.981  0.00  0.00    +0.024 A 
ATOM     17  C   UNL     1       5.095   2.787  -3.067  0.00  0.00    +0.044 A 
ATOM     18  C   UNL     1       6.394   3.231  -3.269  0.00  0.00    +0.024 A 
ATOM     19  C   UNL     1       6.698   3.986  -4.385  0.00  0.00    +0.005 A 
ENDBRANCH   1  17
BRANCH   8  20
ATOM     20  C   UNL     1       1.283   1.811   0.074  0.00  0.00    +0.147 C 
BRANCH  20  21
ATOM     21  N   UNL     1       0.001   1.102   0.104  0.00  0.00    -0.278 N 
ATOM     22  C   UNL     1      -1.153   1.797   0.144  0.00  0.00    +0.401 C 
ATOM     23  O   UNL     1      -1.130   3.012   0.162  0.00  0.00    -0.226 OA
ATOM     24  H   UNL     1      -0.017   0.132   0.090  0.00  0.00    +0.152 HD
BRANCH  22  25
ATOM     25  O   UNL     1      -2.331   1.146   0.166  0.00  0.00    -0.446 OA
BRANCH  25  26
ATOM     26  C   UNL     1      -3.533   1.959   0.210  0.00  0.00    +0.269 C 
BRANCH  26  27
ATOM     27  C   UNL     1      -4.745   1.063   0.228  0.00  0.00    -0.010 A 
ATOM     28  C   UNL     1      -5.335   0.674  -0.960  0.00  0.00    +0.007 A 
ATOM     29  C   UNL     1      -6.444  -0.151  -0.943  0.00  0.00    +0.000 A 
ATOM     30  C   UNL     1      -6.968  -0.580   0.263  0.00  0.00    +0.000 A 
ATOM     31  C   UNL     1      -6.380  -0.187   1.451  0.00  0.00    +0.000 A 
ATOM     32  C   UNL     1      -5.269   0.634   1.433  0.00  0.00    +0.007 A 
ENDBRANCH  26  27
ENDBRANCH  25  26
ENDBRANCH  22  25
ENDBRANCH  20  21
ENDBRANCH   8  20
TORSDOF 6
