REMARK  Name = ZINC09953019
REMARK  7 active torsions:
REMARK  status: ('A' for Active; 'I' for Inactive)
REMARK    1  A    between atoms: C_4  and  C_7
REMARK    2  A    between atoms: C_10  and  S_18
REMARK    3  A    between atoms: N_11  and  C_12
REMARK    4  A    between atoms: S_18  and  C_19
REMARK    5  A    between atoms: C_19  and  C_20
REMARK    6  A    between atoms: N_22  and  C_23
REMARK    7  A    between atoms: C_31  and  C_32
REMARK                            x       y       z     vdW  Elec       q    Type
REMARK                         _______ _______ _______ _____ _____    ______ ____
ROOT
ATOM      1  C   UNL     1       1.324  -1.319   2.235  0.00  0.00    +0.169 A 
ATOM      2  N   UNL     1       0.729  -1.635   1.108  0.00  0.00    -0.128 NA
ATOM      3  N   UNL     1      -0.417  -1.057   1.039  0.00  0.00    -0.122 NA
ATOM      4  C   UNL     1      -0.626  -0.336   2.118  0.00  0.00    +0.197 A 
ATOM      5  N   UNL     1       0.475  -0.476   2.918  0.00  0.00    -0.270 N 
ENDROOT
BRANCH   1   9
ATOM      6  C   UNL     1       5.147  -2.642   3.528  0.00  0.00    +0.000 A 
ATOM      7  C   UNL     1       4.776  -2.797   2.204  0.00  0.00    +0.001 A 
ATOM      8  C   UNL     1       3.536  -2.369   1.777  0.00  0.00    +0.011 A 
ATOM      9  C   UNL     1       2.655  -1.780   2.685  0.00  0.00    +0.020 A 
ATOM     10  C   UNL     1       3.037  -1.621   4.018  0.00  0.00    +0.011 A 
ATOM     11  C   UNL     1       4.278  -2.058   4.432  0.00  0.00    +0.001 A 
ENDBRANCH   1   9
BRANCH   5  12
ATOM     12  C   UNL     1       0.693   0.114   4.170  0.00  0.00    +0.051 A 
ATOM     13  C   UNL     1       1.719   1.034   4.337  0.00  0.00    +0.026 A 
ATOM     14  C   UNL     1       1.928   1.618   5.570  0.00  0.00    +0.002 A 
ATOM     15  C   UNL     1       1.123   1.280   6.643  0.00  0.00    +0.000 A 
ATOM     16  C   UNL     1       0.104   0.359   6.482  0.00  0.00    +0.002 A 
ATOM     17  C   UNL     1      -0.114  -0.224   5.249  0.00  0.00    +0.026 A 
ENDBRANCH   5  12
BRANCH   4  18
ATOM     18  S   UNL     1      -2.054   0.636   2.465  0.00  0.00    -0.076 S 
BRANCH  18  19
ATOM     19  C   UNL     1      -3.022   0.319   0.969  0.00  0.00    +0.173 C 
BRANCH  19  20
ATOM     20  C   UNL     1      -4.326   1.071   1.045  0.00  0.00    +0.228 C 
ATOM     21  O   UNL     1      -4.576   1.754   2.015  0.00  0.00    -0.275 OA
ATOM     22  N   UNL     1      -5.214   0.984   0.035  0.00  0.00    -0.281 N 
ATOM     23  H   UNL     1      -4.984   0.497  -0.772  0.00  0.00    +0.155 HD
BRANCH  22  24
ATOM     24  C   UNL     1      -6.461   1.593   0.149  0.00  0.00    +0.098 A 
ATOM     25  C   UNL     1      -7.719   0.962   0.565  0.00  0.00    +0.043 A 
ATOM     26  C   UNL     1      -8.072  -0.328   0.963  0.00  0.00    +0.013 A 
ATOM     27  C   UNL     1      -9.367  -0.601   1.306  0.00  0.00    +0.001 A 
ATOM     28  C   UNL     1     -10.330   0.398   1.264  0.00  0.00    +0.004 A 
ATOM     29  C   UNL     1      -9.999   1.679   0.879  0.00  0.00    +0.047 A 
ATOM     30  C   UNL     1      -8.688   1.979   0.527  0.00  0.00    +0.139 A 
ATOM     31  O   UNL     1      -8.081   3.112   0.120  0.00  0.00    -0.443 OA
ATOM     32  C   UNL     1      -6.765   2.901  -0.107  0.00  0.00    +0.226 A 
BRANCH  32  33
ATOM     33  C   UNL     1      -5.833   3.895  -0.549  0.00  0.00    +0.140 C 
ATOM     34  N   UNL     1      -5.095   4.684  -0.899  0.00  0.00    -0.188 NA
ENDBRANCH  32  33
ENDBRANCH  22  24
ENDBRANCH  19  20
ENDBRANCH  18  19
ENDBRANCH   4  18
TORSDOF 7
