REMARK  Name = ZINC04294175
REMARK  7 active torsions:
REMARK  status: ('A' for Active; 'I' for Inactive)
REMARK    1  A    between atoms: C_1  and  C_2
REMARK    2  A    between atoms: C_2  and  C_3
REMARK    3  A    between atoms: C_2  and  C_4
REMARK    4  A    between atoms: C_4  and  C_5
REMARK    5  A    between atoms: C_10  and  C_19
REMARK    6  A    between atoms: C_15  and  C_17
REMARK    7  A    between atoms: C_15  and  C_18
REMARK                            x       y       z     vdW  Elec       q    Type
REMARK                         _______ _______ _______ _____ _____    ______ ____
ROOT
ATOM      1  C   UNL     1       0.590  -1.893  -1.701  0.00  0.00    +0.188 C 
ATOM      2  C   UNL     1       1.379  -2.357  -2.909  0.00  0.00    +0.330 C 
ATOM      3  O   UNL     1       1.100  -2.145  -4.065  0.00  0.00    -0.249 OA
ATOM      4  O   UNL     1       2.448  -3.048  -2.463  0.00  0.00    -0.439 OA
ATOM      5  C   UNL     1       2.128  -3.555  -1.139  0.00  0.00    +0.182 C 
ATOM      6  N   UNL     1       1.204  -2.561  -0.553  0.00  0.00    -0.261 N 
ATOM      7  C   UNL     1       1.050  -2.352   0.760  0.00  0.00    +0.137 C 
ATOM      8  S   UNL     1      -0.202  -1.334   1.332  0.00  0.00    -0.019 S 
ATOM      9  N   UNL     1       1.891  -2.950   1.628  0.00  0.00    -0.321 N 
ATOM     10  C   UNL     1       2.918  -3.892   1.190  0.00  0.00    +0.033 C 
ATOM     11  C   UNL     1       3.370  -3.588  -0.242  0.00  0.00    +0.094 C 
ATOM     12  C   UNL     1       2.353  -5.313   1.247  0.00  0.00    +0.031 C 
ATOM     13  C   UNL     1       4.122  -3.793   2.129  0.00  0.00    +0.031 C 
ATOM     14  C   UNL     1       1.467  -4.932  -1.227  0.00  0.00    +0.078 C 
ATOM     15  H   UNL     1       1.811  -2.749   2.573  0.00  0.00    +0.148 HD
ENDROOT
BRANCH   1  16
ATOM     16  C   UNL     1       0.697  -0.374  -1.549  0.00  0.00    +0.037 C 
BRANCH  16  18
ATOM     17  C   UNL     1       0.155   1.819  -2.616  0.00  0.00    +0.007 C 
ATOM     18  C   UNL     1      -0.069   0.307  -2.685  0.00  0.00    -0.015 C 
ATOM     19  C   UNL     1      -1.562   0.005  -2.545  0.00  0.00    +0.007 C 
ENDBRANCH  16  18
ENDBRANCH   1  16
TORSDOF 2
