REMARK  Name = ZINC11613300
REMARK  11 active torsions:
REMARK  status: ('A' for Active; 'I' for Inactive)
REMARK    1  A    between atoms: C_1  and  C_2
REMARK    2  A    between atoms: C_5  and  N_9
REMARK    3  A    between atoms: C_7  and  C_8
REMARK    4  A    between atoms: C_14  and  C_31
REMARK    5  A    between atoms: N_16  and  C_19
REMARK    6  A    between atoms: C_19  and  C_20
REMARK    7  A    between atoms: N_22  and  C_23
REMARK    8  A    between atoms: C_25  and  C_30
REMARK    9  A    between atoms: C_27  and  C_29
REMARK   10  A    between atoms: C_31  and  C_32
REMARK   11  A    between atoms: C_31  and  C_33
REMARK                            x       y       z     vdW  Elec       q    Type
REMARK                         _______ _______ _______ _____ _____    ______ ____
ROOT
ATOM      1  N   UNL     1      -0.147   2.226  -0.151  0.00  0.00    -0.227 N 
ATOM      2  C   UNL     1       1.049   2.885  -0.099  0.00  0.00    +0.142 A 
ATOM      3  C   UNL     1       0.753   4.254  -0.029  0.00  0.00    +0.049 A 
ATOM      4  C   UNL     1      -0.649   4.377  -0.041  0.00  0.00    +0.145 A 
ATOM      5  N   UNL     1      -1.171   3.182  -0.119  0.00  0.00    -0.173 NA
ATOM      6  C   UNL     1       1.857   5.209   0.038  0.00  0.00    +0.075 A 
ATOM      7  N   UNL     1       3.085   4.773   0.031  0.00  0.00    -0.172 NA
ATOM      8  N   UNL     1       3.377   3.409  -0.039  0.00  0.00    -0.219 N 
ATOM      9  C   UNL     1       2.402   2.480  -0.103  0.00  0.00    +0.294 A 
ATOM     10  O   UNL     1       2.688   1.296  -0.163  0.00  0.00    -0.264 OA
ENDROOT
BRANCH   1  15
ATOM     11  C   UNL     1      -0.841  -3.397  -0.464  0.00  0.00    +0.044 C 
ATOM     12  C   UNL     1      -0.657  -1.903  -0.381  0.00  0.00    -0.047 A 
ATOM     13  C   UNL     1       0.410  -1.303  -1.024  0.00  0.00    +0.006 A 
ATOM     14  C   UNL     1       0.583   0.065  -0.949  0.00  0.00    +0.028 A 
ATOM     15  C   UNL     1      -0.319   0.839  -0.229  0.00  0.00    +0.066 A 
ATOM     16  C   UNL     1      -1.387   0.233   0.419  0.00  0.00    +0.031 A 
ATOM     17  C   UNL     1      -1.556  -1.136   0.337  0.00  0.00    -0.046 A 
ATOM     18  C   UNL     1      -2.718  -1.794   1.035  0.00  0.00    +0.044 C 
ENDBRANCH   1  15
BRANCH   6  19
ATOM     19  C   UNL     1       1.578   6.688   0.115  0.00  0.00    +0.034 C 
ATOM     20  C   UNL     1       2.894   7.446   0.300  0.00  0.00    +0.014 C 
ATOM     21  C   UNL     1       0.902   7.147  -1.178  0.00  0.00    +0.014 C 
ENDBRANCH   6  19
BRANCH   8  22
ATOM     22  C   UNL     1       4.777   2.977  -0.044  0.00  0.00    +0.243 C 
BRANCH  22  23
ATOM     23  C   UNL     1       5.276   2.906  -1.464  0.00  0.00    +0.239 C 
ATOM     24  O   UNL     1       4.535   3.188  -2.382  0.00  0.00    -0.273 OA
ATOM     25  N   UNL     1       6.545   2.529  -1.714  0.00  0.00    -0.284 N 
ATOM     26  H   UNL     1       7.160   2.377  -0.979  0.00  0.00    +0.155 HD
BRANCH  25  27
ATOM     27  C   UNL     1       6.977   2.356  -3.034  0.00  0.00    +0.034 A 
ATOM     28  C   UNL     1       8.287   2.655  -3.382  0.00  0.00    +0.026 A 
ATOM     29  C   UNL     1       8.712   2.479  -4.685  0.00  0.00    -0.048 A 
ATOM     30  C   UNL     1       7.830   2.015  -5.644  0.00  0.00    +0.006 A 
ATOM     31  C   UNL     1       6.523   1.721  -5.301  0.00  0.00    -0.048 A 
ATOM     32  C   UNL     1       6.094   1.890  -3.999  0.00  0.00    +0.026 A 
ATOM     33  C   UNL     1       5.565   1.216  -6.350  0.00  0.00    +0.044 C 
ATOM     34  C   UNL     1      10.135   2.798  -5.063  0.00  0.00    +0.044 C 
ENDBRANCH  25  27
ENDBRANCH  22  23
ENDBRANCH   8  22
TORSDOF 5
