REMARK  Name = ZINC61382587
REMARK  2 active torsions:
REMARK  status: ('A' for Active; 'I' for Inactive)
REMARK    1  A    between atoms: C_3  and  C_7
REMARK    2  A    between atoms: C_12  and  C_14
REMARK                            x       y       z     vdW  Elec       q    Type
REMARK                         _______ _______ _______ _____ _____    ______ ____
ROOT
ATOM      1  C   UNL     1       3.598   0.675  -0.027  0.00  0.00    +0.123 C 
ATOM      2  C   UNL     1       4.211   0.665   1.389  0.00  0.00    +0.030 C 
ATOM      3  C   UNL     1       5.499  -0.180   1.204  0.00  0.00    +0.021 C 
ATOM      4  C   UNL     1       5.037  -1.227   0.160  0.00  0.00    +0.109 C 
ATOM      5  N   UNL     1       4.141  -0.486  -0.747  0.00  0.00    -0.288 N 
ATOM      6  C   UNL     1       3.865  -0.819  -2.023  0.00  0.00    +0.265 C 
ATOM      7  O   UNL     1       3.086  -0.146  -2.672  0.00  0.00    -0.268 OA
ENDROOT
BRANCH   6   8
ATOM      8  C   UNL     1       4.504  -1.994  -2.631  0.00  0.00    +0.122 A 
ATOM      9  C   UNL     1       4.426  -2.344  -3.943  0.00  0.00    +0.078 A 
ATOM     10  C   UNL     1       5.178  -3.533  -4.117  0.00  0.00    +0.020 A 
ATOM     11  C   UNL     1       5.454  -4.342  -5.226  0.00  0.00    +0.031 A 
ATOM     12  C   UNL     1       6.232  -5.455  -5.079  0.00  0.00    +0.042 A 
ATOM     13  C   UNL     1       6.753  -5.793  -3.836  0.00  0.00    +0.022 A 
ATOM     14  C   UNL     1       6.495  -5.014  -2.731  0.00  0.00    +0.028 A 
ATOM     15  C   UNL     1       5.706  -3.874  -2.856  0.00  0.00    +0.049 A 
ATOM     16  N   UNL     1       5.287  -2.917  -1.961  0.00  0.00    -0.349 N 
ATOM     17  H   UNL     1       5.503  -2.895  -1.016  0.00  0.00    +0.166 HD
ATOM     18 CL   UNL     1       6.571  -6.455  -6.456  0.00  0.00    -0.084 Cl
ATOM     19 CL   UNL     1       3.561  -1.490  -5.181  0.00  0.00    -0.081 Cl
ENDBRANCH   6   8
BRANCH   1  22
ATOM     20  C   UNL     1      -0.067   1.057   0.189  0.00  0.00    +0.019 A 
ATOM     21  C   UNL     1       1.231   1.599   0.110  0.00  0.00    +0.024 A 
ATOM     22  C   UNL     1       2.097   0.566   0.063  0.00  0.00    +0.037 A 
ATOM     23  N   UNL     1       1.381  -0.593   0.111  0.00  0.00    -0.363 N 
ATOM     24  H   UNL     1       1.754  -1.488   0.092  0.00  0.00    +0.165 HD
ATOM     25  C   UNL     1       0.055  -0.286   0.188  0.00  0.00    +0.083 A 
ENDBRANCH   1  22
TORSDOF 2
