REMARK  Name = ZINC61645537
REMARK  8 active torsions:
REMARK  status: ('A' for Active; 'I' for Inactive)
REMARK    1  A    between atoms: C_1  and  C_2
REMARK    2  A    between atoms: C_3  and  C_18
REMARK    3  A    between atoms: C_4  and  N_8
REMARK    4  A    between atoms: N_5  and  C_7
REMARK    5  A    between atoms: C_12  and  C_14
REMARK    6  A    between atoms: C_14  and  N_15
REMARK    7  A    between atoms: N_15  and  C_16
REMARK    8  A    between atoms: N_15  and  C_17
REMARK                            x       y       z     vdW  Elec       q    Type
REMARK                         _______ _______ _______ _____ _____    ______ ____
ROOT
ATOM      1  N   UNL     1       0.261  -3.296  -1.735  0.00  0.00    -0.314 N 
ATOM      2  C   UNL     1       0.472  -3.406  -3.190  0.00  0.00    +0.107 C 
ATOM      3  C   UNL     1      -0.145  -4.772  -3.579  0.00  0.00    +0.021 C 
ATOM      4  C   UNL     1       0.230  -5.644  -2.351  0.00  0.00    +0.022 C 
ATOM      5  C   UNL     1       0.129  -4.649  -1.175  0.00  0.00    +0.058 C 
ENDROOT
BRANCH   1   9
ATOM      6  C   UNL     1      -1.473   0.727   0.650  0.00  0.00    +0.068 C 
ATOM      7  C   UNL     1      -0.543  -0.302   0.062  0.00  0.00    +0.066 A 
ATOM      8  C   UNL     1      -0.928  -1.440  -0.653  0.00  0.00    +0.029 A 
ATOM      9  C   UNL     1       0.203  -2.109  -1.011  0.00  0.00    +0.124 A 
ATOM     10  N   UNL     1       1.258  -1.412  -0.533  0.00  0.00    -0.253 N 
ATOM     11  N   UNL     1       0.763  -0.282   0.130  0.00  0.00    -0.175 NA
ATOM     12  C   UNL     1       2.670  -1.772  -0.687  0.00  0.00    +0.174 C 
BRANCH   8  13
ATOM     13  C   UNL     1      -2.342  -1.851  -0.973  0.00  0.00    +0.149 C 
ATOM     14 CL   UNL     1      -2.888  -1.012  -2.472  0.00  0.00    -0.120 Cl
ENDBRANCH   8  13
ENDBRANCH   1   9
BRANCH   5  15
ATOM     15  C   UNL     1       1.254  -4.910  -0.172  0.00  0.00    -0.057 C 
BRANCH  15  16
ATOM     16  N   UNL     1       1.060  -6.226   0.451  0.00  0.00    +0.377 N 
ATOM     17  C   UNL     1       2.214  -6.539   1.304  0.00  0.00    -0.097 C 
ATOM     18  C   UNL     1      -0.161  -6.205   1.268  0.00  0.00    -0.097 C 
ATOM     19  H   UNL     1       0.972  -6.929  -0.267  0.00  0.00    -0.083 HD
ENDBRANCH  15  16
ENDBRANCH   5  15
TORSDOF 4
