REMARK  Name = ZINC04933557
REMARK  7 active torsions:
REMARK  status: ('A' for Active; 'I' for Inactive)
REMARK    1  A    between atoms: C_1  and  C_2
REMARK    2  A    between atoms: C_8  and  N_10
REMARK    3  A    between atoms: C_11  and  C_13
REMARK    4  A    between atoms: C_13  and  N_14
REMARK    5  A    between atoms: N_14  and  C_15
REMARK    6  A    between atoms: N_14  and  S_16
REMARK    7  A    between atoms: S_16  and  C_19
REMARK                            x       y       z     vdW  Elec       q    Type
REMARK                         _______ _______ _______ _____ _____    ______ ____
ROOT
ATOM      1  S   UNL     1       1.107  -0.640   7.004  0.00  0.00    +0.061 S 
ATOM      2  O   UNL     1       1.630  -0.119   8.218  0.00  0.00    -0.153 OA
ATOM      3  O   UNL     1      -0.130  -1.336   6.944  0.00  0.00    -0.153 OA
ENDROOT
BRANCH   1   4
ATOM      4  C   UNL     1       2.330  -1.731   6.356  0.00  0.00    +0.106 A 
ATOM      5  C   UNL     1       1.963  -2.740   5.485  0.00  0.00    +0.030 A 
ATOM      6  C   UNL     1       2.919  -3.597   4.975  0.00  0.00    +0.025 A 
ATOM      7  C   UNL     1       4.250  -3.443   5.338  0.00  0.00    +0.037 A 
ATOM      8  C   UNL     1       4.616  -2.429   6.213  0.00  0.00    -0.024 A 
ATOM      9  C   UNL     1       3.656  -1.572   6.715  0.00  0.00    +0.034 A 
ATOM     10  C   UNL     1       6.060  -2.261   6.606  0.00  0.00    +0.046 C 
ATOM     11  C   UNL     1       6.734  -3.633   6.673  0.00  0.00    +0.101 C 
ATOM     12  C   UNL     1       6.421  -4.418   5.428  0.00  0.00    +0.218 C 
ATOM     13  O   UNL     1       7.259  -5.161   4.961  0.00  0.00    -0.275 OA
ATOM     14  N   UNL     1       5.223  -4.307   4.825  0.00  0.00    -0.285 N 
ATOM     15  H   UNL     1       5.033  -4.829   4.030  0.00  0.00    +0.155 HD
ENDBRANCH   1   4
BRANCH   1  16
ATOM     16  N   UNL     1       0.984   0.635   5.955  0.00  0.00    -0.171 NA
ATOM     17  C   UNL     1       1.826   1.820   6.140  0.00  0.00    +0.132 C 
BRANCH  16  18
ATOM     18  C   UNL     1       0.033   0.579   4.842  0.00  0.00    +0.204 C 
BRANCH  18  20
ATOM     19  N   UNL     1       0.056  -0.038   2.447  0.00  0.00    -0.311 N 
ATOM     20  C   UNL     1       0.738   0.093   3.602  0.00  0.00    +0.229 C 
ATOM     21  O   UNL     1       1.919  -0.179   3.644  0.00  0.00    -0.274 OA
ATOM     22  H   UNL     1      -0.888   0.180   2.413  0.00  0.00    +0.149 HD
BRANCH  19  29
ATOM     23  C   UNL     1      -0.019   1.526   0.010  0.00  0.00    +0.009 C 
ATOM     24  C   UNL     1       0.002  -0.004   0.002  0.00  0.00    +0.006 C 
ATOM     25  C   UNL     1       0.718  -0.497  -1.257  0.00  0.00    +0.005 C 
ATOM     26  C   UNL     1       0.739  -2.027  -1.265  0.00  0.00    +0.000 C 
ATOM     27  C   UNL     1       1.479  -2.534  -0.026  0.00  0.00    +0.002 C 
ATOM     28  C   UNL     1       0.763  -2.041   1.233  0.00  0.00    +0.022 C 
ATOM     29  C   UNL     1       0.742  -0.511   1.242  0.00  0.00    +0.076 C 
ENDBRANCH  19  29
ENDBRANCH  18  20
ENDBRANCH  16  18
ENDBRANCH   1  16
TORSDOF 5
