REMARK  Name = ZINC35991521
REMARK  10 active torsions:
REMARK  status: ('A' for Active; 'I' for Inactive)
REMARK    1  A    between atoms: C_1  and  C_2
REMARK    2  A    between atoms: C_2  and  N_3
REMARK    3  A    between atoms: C_4  and  C_23
REMARK    4  A    between atoms: C_5  and  C_18
REMARK    5  A    between atoms: C_6  and  C_11
REMARK    6  A    between atoms: C_18  and  O_20
REMARK    7  A    between atoms: O_20  and  C_21
REMARK    8  A    between atoms: C_21  and  C_22
REMARK    9  A    between atoms: C_23  and  N_24
REMARK   10  A    between atoms: C_27  and  C_30
REMARK                            x       y       z     vdW  Elec       q    Type
REMARK                         _______ _______ _______ _____ _____    ______ ____
ROOT
ATOM      1  N   UNL     1       0.772  -0.231  -1.570  0.00  0.00    -0.261 N 
ATOM      2  C   UNL     1      -0.111  -0.805  -2.438  0.00  0.00    +0.010 C 
ATOM      3  C   UNL     1       0.320  -1.530  -3.493  0.00  0.00    +0.076 C 
ATOM      4  C   UNL     1       1.816  -1.685  -3.678  0.00  0.00    +0.143 C 
ATOM      5  N   UNL     1       2.683  -1.026  -2.687  0.00  0.00    -0.288 N 
ATOM      6  C   UNL     1       2.102  -0.331  -1.689  0.00  0.00    +0.307 C 
ATOM      7  O   UNL     1       2.809   0.220  -0.867  0.00  0.00    -0.252 OA
ATOM      8  H   UNL     1       3.648  -1.088  -2.752  0.00  0.00    +0.151 HD
ENDROOT
BRANCH   4   9
ATOM      9  C   UNL     1       2.173  -1.144  -5.039  0.00  0.00    -0.022 A 
ATOM     10  C   UNL     1       2.311   0.219  -5.226  0.00  0.00    +0.007 A 
ATOM     11  C   UNL     1       2.639   0.715  -6.474  0.00  0.00    +0.020 A 
ATOM     12  C   UNL     1       2.829  -0.152  -7.535  0.00  0.00    +0.041 A 
ATOM     13  C   UNL     1       2.691  -1.515  -7.347  0.00  0.00    +0.020 A 
ATOM     14  C   UNL     1       2.369  -2.011  -6.098  0.00  0.00    +0.007 A 
ATOM     15 CL   UNL     1       3.241   0.471  -9.102  0.00  0.00    -0.084 Cl
ENDBRANCH   4   9
BRANCH   1  17
ATOM     16  C   UNL     1       0.061   2.003  -0.871  0.00  0.00    +0.025 C 
ATOM     17  C   UNL     1       0.235   0.543  -0.448  0.00  0.00    +0.111 C 
ENDBRANCH   1  17
BRANCH   3  18
ATOM     18  C   UNL     1      -0.594  -2.126  -4.393  0.00  0.00    +0.339 C 
ATOM     19  O   UNL     1      -1.787  -1.917  -4.277  0.00  0.00    -0.245 OA
BRANCH  18  20
ATOM     20  O   UNL     1      -0.143  -2.928  -5.380  0.00  0.00    -0.462 OA
BRANCH  20  21
ATOM     21  C   UNL     1      -1.122  -3.496  -6.253  0.00  0.00    +0.229 C 
ATOM     22  C   UNL     1      -0.426  -4.368  -7.300  0.00  0.00    +0.048 C 
ENDBRANCH  20  21
ENDBRANCH  18  20
ENDBRANCH   3  18
BRANCH   2  23
ATOM     23  C   UNL     1      -1.591  -0.626  -2.217  0.00  0.00    -0.026 C 
BRANCH  23  24
ATOM     24  N   UNL     1      -2.138  -1.828  -1.574  0.00  0.00    +0.383 N 
ATOM     25  C   UNL     1      -1.568  -1.964  -0.228  0.00  0.00    -0.078 C 
ATOM     26  C   UNL     1      -2.072  -3.258   0.415  0.00  0.00    -0.016 C 
ATOM     27  C   UNL     1      -3.600  -3.213   0.509  0.00  0.00    -0.018 C 
ATOM     28  C   UNL     1      -4.181  -2.997  -0.891  0.00  0.00    -0.016 C 
ATOM     29  C   UNL     1      -3.599  -1.713  -1.486  0.00  0.00    -0.078 C 
ATOM     30  C   UNL     1      -4.117  -4.536   1.078  0.00  0.00    +0.007 C 
ATOM     31  H   UNL     1      -1.899  -2.641  -2.122  0.00  0.00    -0.081 HD
ENDBRANCH  23  24
ENDBRANCH   2  23
TORSDOF 7
