REMARK  Name = ZINC05171053
REMARK  5 active torsions:
REMARK  status: ('A' for Active; 'I' for Inactive)
REMARK    1  A    between atoms: C_1  and  C_2
REMARK    2  A    between atoms: C_5  and  N_9
REMARK    3  A    between atoms: C_7  and  C_8
REMARK    4  A    between atoms: C_10  and  S_14
REMARK    5  A    between atoms: S_14  and  C_15
REMARK                            x       y       z     vdW  Elec       q    Type
REMARK                         _______ _______ _______ _____ _____    ______ ____
ROOT
ATOM      1  N   UNL     1       0.002  -0.004   0.002  0.00  0.00    -0.187 N 
ATOM      2  C   UNL     1       1.322  -0.341  -0.012  0.00  0.00    +0.215 A 
ATOM      3  N   UNL     1       2.005   0.784  -0.013  0.00  0.00    -0.101 NA
ATOM      4  N   UNL     1       1.211   1.793   0.000  0.00  0.00    -0.022 NA
ATOM      5  N   UNL     1      -0.017   1.402   0.010  0.00  0.00    -0.038 NA
ENDROOT
BRANCH   1  10
ATOM      6  C   UNL     1      -4.457  -3.517   0.028  0.00  0.00    +0.044 C 
ATOM      7  C   UNL     1      -3.273  -2.584   0.021  0.00  0.00    -0.047 A 
ATOM      8  C   UNL     1      -2.130  -2.925  -0.679  0.00  0.00    +0.006 A 
ATOM      9  C   UNL     1      -1.044  -2.072  -0.688  0.00  0.00    +0.028 A 
ATOM     10  C   UNL     1      -1.099  -0.872   0.008  0.00  0.00    +0.070 A 
ATOM     11  C   UNL     1      -2.246  -0.535   0.715  0.00  0.00    +0.031 A 
ATOM     12  C   UNL     1      -3.331  -1.390   0.715  0.00  0.00    -0.046 A 
ATOM     13  C   UNL     1      -4.578  -1.023   1.478  0.00  0.00    +0.044 C 
ENDBRANCH   1  10
BRANCH   2  14
ATOM     14  S   UNL     1       1.988  -1.972  -0.027  0.00  0.00    -0.073 S 
BRANCH  14  15
ATOM     15  C   UNL     1       3.757  -1.590  -0.042  0.00  0.00    +0.120 C 
ATOM     16  C   UNL     1       4.563  -2.886  -0.173  0.00  0.00    +0.022 C 
ATOM     17  C   UNL     1       6.054  -2.573  -0.038  0.00  0.00    +0.002 C 
ATOM     18  C   UNL     1       6.348  -2.016   1.355  0.00  0.00    +0.008 C 
ATOM     19  C   UNL     1       5.609  -0.686   1.538  0.00  0.00    +0.075 C 
ATOM     20  C   UNL     1       4.140  -0.909   1.253  0.00  0.00    +0.147 C 
ATOM     21  O   UNL     1       3.296  -0.551   2.039  0.00  0.00    -0.296 OA
ENDBRANCH  14  15
ENDBRANCH   2  14
TORSDOF 3
