REMARK  Name = ZINC09441270
REMARK  7 active torsions:
REMARK  status: ('A' for Active; 'I' for Inactive)
REMARK    1  A    between atoms: C_1  and  C_2
REMARK    2  A    between atoms: C_8  and  C_12
REMARK    3  A    between atoms: C_12  and  O_14
REMARK    4  A    between atoms: O_14  and  C_15
REMARK    5  A    between atoms: C_15  and  C_16
REMARK    6  A    between atoms: N_18  and  C_19
REMARK    7  A    between atoms: C_20  and  C_29
REMARK                            x       y       z     vdW  Elec       q    Type
REMARK                         _______ _______ _______ _____ _____    ______ ____
ROOT
ATOM      1  C   UNL     1      -1.896   5.920  -0.001  0.00  0.00    +0.255 C 
ATOM      2  O   UNL     1      -0.739   6.286  -0.015  0.00  0.00    -0.272 OA
ATOM      3  N   UNL     1      -2.185   4.604   0.012  0.00  0.00    -0.276 N 
ATOM      4  H   UNL     1      -3.110   4.311   0.024  0.00  0.00    +0.155 HD
ENDROOT
BRANCH   3   5
ATOM      5  C   UNL     1      -1.161   3.667   0.009  0.00  0.00    +0.090 A 
ATOM      6  C   UNL     1      -1.257   2.286   0.020  0.00  0.00    +0.084 A 
ATOM      7  C   UNL     1      -0.019   1.519   0.010  0.00  0.00    -0.018 A 
ATOM      8  C   UNL     1       1.110   2.262   0.004  0.00  0.00    -0.004 A 
ATOM      9  S   UNL     1       0.549   3.943  -0.010  0.00  0.00    -0.077 S 
ATOM     10  C   UNL     1       2.526   1.775   0.012  0.00  0.00    +0.043 C 
ATOM     11  C   UNL     1       2.696   0.694  -1.064  0.00  0.00    +0.005 C 
ATOM     12  C   UNL     1       2.380  -0.662  -0.439  0.00  0.00    +0.001 C 
ATOM     13  C   UNL     1       1.297  -0.510   0.627  0.00  0.00    +0.005 C 
ATOM     14  C   UNL     1       0.002  -0.004   0.002  0.00  0.00    +0.037 C 
BRANCH   6  15
ATOM     15  C   UNL     1      -2.531   1.633   0.041  0.00  0.00    +0.102 C 
ATOM     16  N   UNL     1      -3.542   1.115   0.057  0.00  0.00    -0.191 NA
ENDBRANCH   6  15
ENDBRANCH   3   5
BRANCH   1  17
ATOM     17  C   UNL     1      -3.008   6.936   0.003  0.00  0.00    +0.328 C 
BRANCH  17  18
ATOM     18  O   UNL     1      -2.442   8.273  -0.013  0.00  0.00    -0.454 OA
BRANCH  18  19
ATOM     19  C   UNL     1      -3.306   9.301  -0.013  0.00  0.00    +0.329 C 
ATOM     20  O   UNL     1      -4.496   9.090   0.001  0.00  0.00    -0.249 OA
BRANCH  19  28
ATOM     21  C   UNL     1      -5.116  11.703   2.127  0.00  0.00    +0.044 C 
ATOM     22  C   UNL     1      -4.180  12.404   1.141  0.00  0.00    +0.082 C 
ATOM     23  C   UNL     1      -4.725  13.755   0.649  0.00  0.00    +0.046 C 
ATOM     24  C   UNL     1      -5.540  13.294  -0.586  0.00  0.00    +0.099 C 
ATOM     25  C   UNL     1      -4.866  12.019  -1.021  0.00  0.00    +0.217 C 
ATOM     26  O   UNL     1      -5.130  11.415  -2.039  0.00  0.00    -0.276 OA
ATOM     27  N   UNL     1      -3.941  11.625  -0.104  0.00  0.00    -0.273 N 
ATOM     28  C   UNL     1      -2.792  10.717  -0.028  0.00  0.00    +0.196 C 
ATOM     29  C   UNL     1      -1.884  10.921   1.207  0.00  0.00    +0.105 C 
ATOM     30  S   UNL     1      -2.460  12.582   1.773  0.00  0.00    -0.133 S 
ENDBRANCH  19  28
ENDBRANCH  18  19
ENDBRANCH  17  18
ENDBRANCH   1  17
TORSDOF 6
