REMARK  Name = ZINC46634250
REMARK  6 active torsions:
REMARK  status: ('A' for Active; 'I' for Inactive)
REMARK    1  A    between atoms: C_1  and  C_2
REMARK    2  A    between atoms: N_6  and  C_14
REMARK    3  A    between atoms: C_14  and  C_15
REMARK    4  A    between atoms: C_23  and  C_25
REMARK    5  A    between atoms: C_28  and  O_31
REMARK    6  A    between atoms: O_31  and  C_32
REMARK                            x       y       z     vdW  Elec       q    Type
REMARK                         _______ _______ _______ _____ _____    ______ ____
ROOT
ATOM      1  C   UNL     1      -3.241  -3.090  -0.694  0.00  0.00    +0.234 C 
ATOM      2  O   UNL     1      -2.333  -3.223  -1.487  0.00  0.00    -0.274 OA
ATOM      3  N   UNL     1      -4.428  -3.686  -0.922  0.00  0.00    -0.293 N 
ATOM      4  C   UNL     1      -5.472  -3.606   0.119  0.00  0.00    +0.108 C 
ATOM      5  C   UNL     1      -6.205  -4.946   0.310  0.00  0.00    +0.019 C 
ATOM      6  C   UNL     1      -5.222  -6.089   0.247  0.00  0.00    +0.002 C 
ATOM      7  C   UNL     1      -5.127  -6.596  -1.189  0.00  0.00    +0.002 C 
ATOM      8  C   UNL     1      -4.178  -5.853  -2.032  0.00  0.00    +0.027 C 
ATOM      9  C   UNL     1      -4.629  -4.373  -2.178  0.00  0.00    +0.106 C 
ENDROOT
BRANCH   9  10
ATOM     10  C   UNL     1      -3.817  -3.699  -3.254  0.00  0.00    -0.027 A 
ATOM     11  C   UNL     1      -3.969  -2.344  -3.486  0.00  0.00    +0.009 A 
ATOM     12  C   UNL     1      -3.226  -1.724  -4.472  0.00  0.00    +0.046 A 
ATOM     13  C   UNL     1      -2.327  -2.461  -5.229  0.00  0.00    +0.120 A 
ATOM     14  C   UNL     1      -2.176  -3.820  -4.994  0.00  0.00    +0.046 A 
ATOM     15  C   UNL     1      -2.917  -4.434  -4.003  0.00  0.00    +0.009 A 
BRANCH  13  16
ATOM     16  O   UNL     1      -1.595  -1.853  -6.199  0.00  0.00    -0.495 OA
ATOM     17  C   UNL     1      -0.690  -2.674  -6.939  0.00  0.00    +0.277 C 
ENDBRANCH  13  16
ENDBRANCH   9  10
BRANCH   1  18
ATOM     18  C   UNL     1      -3.042  -2.258   0.547  0.00  0.00    +0.209 C 
BRANCH  18  23
ATOM     19  C   UNL     1      -0.003   1.518  -0.020  0.00  0.00    +0.062 C 
ATOM     20  C   UNL     1       0.013  -0.012  -0.013  0.00  0.00    +0.256 C 
ATOM     21  C   UNL     1      -1.404  -0.528  -0.005  0.00  0.00    +0.261 C 
ATOM     22  O   UNL     1      -2.293   0.126  -0.507  0.00  0.00    -0.271 OA
ATOM     23  N   UNL     1      -1.678  -1.723   0.562  0.00  0.00    -0.256 N 
ATOM     24  C   UNL     1      -0.638  -2.443   1.167  0.00  0.00    +0.079 A 
ATOM     25  C   UNL     1      -0.791  -3.785   1.473  0.00  0.00    +0.027 A 
ATOM     26  C   UNL     1       0.247  -4.477   2.070  0.00  0.00    +0.002 A 
ATOM     27  C   UNL     1       1.435  -3.832   2.361  0.00  0.00    +0.004 A 
ATOM     28  C   UNL     1       1.594  -2.492   2.058  0.00  0.00    +0.047 A 
ATOM     29  C   UNL     1       0.560  -1.794   1.460  0.00  0.00    +0.143 A 
ATOM     30  O   UNL     1       0.699  -0.476   1.153  0.00  0.00    -0.478 OA
ENDBRANCH  18  23
ENDBRANCH   1  18
TORSDOF 4
