REMARK  Name = ZINC36645536
REMARK  9 active torsions:
REMARK  status: ('A' for Active; 'I' for Inactive)
REMARK    1  A    between atoms: C_1  and  C_2
REMARK    2  A    between atoms: N_11  and  C_12
REMARK    3  A    between atoms: C_12  and  C_13
REMARK    4  A    between atoms: C_13  and  C_14
REMARK    5  A    between atoms: C_14  and  N_15
REMARK    6  A    between atoms: N_15  and  C_16
REMARK    7  A    between atoms: N_15  and  C_17
REMARK    8  A    between atoms: C_18  and  C_20
REMARK    9  A    between atoms: C_22  and  C_32
REMARK                            x       y       z     vdW  Elec       q    Type
REMARK                         _______ _______ _______ _____ _____    ______ ____
ROOT
ATOM      1  C   UNL     1      -0.965   1.842   0.065  0.00  0.00    +0.047 C 
ATOM      2  C   UNL     1      -0.691   0.364  -0.045  0.00  0.00    -0.006 A 
ATOM      3  C   UNL     1      -0.713  -0.241  -1.276  0.00  0.00    +0.046 A 
ATOM      4  C   UNL     1      -0.466  -1.599  -1.420  0.00  0.00    +0.021 A 
ATOM      5  C   UNL     1      -0.192  -2.361  -0.299  0.00  0.00    +0.019 A 
ATOM      6  C   UNL     1      -0.169  -1.764   0.936  0.00  0.00    +0.041 A 
ATOM      7  C   UNL     1      -0.410  -0.384   1.122  0.00  0.00    +0.085 A 
ATOM      8  N   UNL     1      -0.346   0.055   2.398  0.00  0.00    -0.224 NA
ATOM      9  C   UNL     1      -0.074  -0.742   3.405  0.00  0.00    +0.168 A 
ATOM     10  S   UNL     1       0.126  -2.323   2.597  0.00  0.00    -0.052 S 
ATOM     11  N   UNL     1       0.024  -0.436   4.753  0.00  0.00    -0.247 N 
ATOM     12  C   UNL     1      -0.172   0.830   5.173  0.00  0.00    +0.266 C 
ATOM     13  O   UNL     1      -0.504   1.686   4.381  0.00  0.00    -0.271 OA
ATOM     14 CL   UNL     1      -1.057   0.714  -2.684  0.00  0.00    -0.083 Cl
ENDROOT
BRANCH  12  15
ATOM     15  C   UNL     1       0.020   1.179   6.626  0.00  0.00    +0.299 C 
ATOM     16  C   UNL     1      -1.330   1.129   7.354  0.00  0.00    +0.220 C 
ATOM     17  O   UNL     1      -2.208   2.075   6.735  0.00  0.00    -0.481 OA
ATOM     18  C   UNL     1      -1.698   3.312   6.487  0.00  0.00    +0.163 A 
ATOM     19  C   UNL     1      -2.563   4.367   6.236  0.00  0.00    +0.049 A 
ATOM     20  C   UNL     1      -2.060   5.629   5.979  0.00  0.00    +0.004 A 
ATOM     21  C   UNL     1      -0.694   5.843   5.973  0.00  0.00    +0.004 A 
ATOM     22  C   UNL     1       0.173   4.796   6.224  0.00  0.00    +0.049 A 
ATOM     23  C   UNL     1      -0.326   3.528   6.484  0.00  0.00    +0.163 A 
ATOM     24  O   UNL     1       0.541   2.508   6.737  0.00  0.00    -0.472 OA
ATOM     25  C   UNL     1      -1.923  -0.277   7.243  0.00  0.00    +0.056 C 
ENDBRANCH  12  15
BRANCH  11  26
ATOM     26  C   UNL     1       0.341  -1.488   5.721  0.00  0.00    +0.114 C 
BRANCH  26  27
ATOM     27  C   UNL     1       1.858  -1.679   5.789  0.00  0.00    +0.001 C 
BRANCH  27  28
ATOM     28  C   UNL     1       2.189  -2.779   6.800  0.00  0.00    -0.078 C 
BRANCH  28  29
ATOM     29  N   UNL     1       3.645  -2.962   6.865  0.00  0.00    +0.376 N 
ATOM     30  C   UNL     1       4.269  -1.743   7.397  0.00  0.00    -0.097 C 
ATOM     31  C   UNL     1       3.957  -4.096   7.745  0.00  0.00    -0.097 C 
ATOM     32  H   UNL     1       4.002  -3.146   5.939  0.00  0.00    -0.083 HD
ENDBRANCH  28  29
ENDBRANCH  27  28
ENDBRANCH  26  27
ENDBRANCH  11  26
TORSDOF 5
