REMARK  Name = ZINC03849928
REMARK  7 active torsions:
REMARK  status: ('A' for Active; 'I' for Inactive)
REMARK    1  A    between atoms: C_1  and  C_2
REMARK    2  A    between atoms: C_2  and  O_4
REMARK    3  A    between atoms: O_4  and  C_5
REMARK    4  A    between atoms: C_11  and  C_31
REMARK    5  A    between atoms: C_22  and  C_30
REMARK    6  A    between atoms: C_25  and  C_27
REMARK    7  A    between atoms: C_25  and  O_29
REMARK                            x       y       z     vdW  Elec       q    Type
REMARK                         _______ _______ _______ _____ _____    ______ ____
ROOT
ATOM      1  C   UNL     1      -0.013   1.086   0.008  0.00  0.00    +0.183 C 
ATOM      2  C   UNL     1      -0.676   1.616  -1.279  0.00  0.00    +0.045 C 
ATOM      3  C   UNL     1       0.395   2.453  -2.011  0.00  0.00    +0.008 C 
ATOM      4  C   UNL     1       1.743   1.875  -1.486  0.00  0.00    +0.002 C 
ATOM      5  C   UNL     1       1.420   1.635  -0.003  0.00  0.00    +0.008 C 
ATOM      6  C   UNL     1       2.409   0.694   0.648  0.00  0.00    +0.011 C 
ATOM      7  C   UNL     1       2.513  -0.612  -0.099  0.00  0.00    +0.005 C 
ATOM      8  C   UNL     1       2.995  -0.316  -1.526  0.00  0.00    -0.001 C 
ATOM      9  C   UNL     1       1.967   0.555  -2.233  0.00  0.00    -0.004 C 
ATOM     10  C   UNL     1       2.395   0.892  -3.662  0.00  0.00    +0.004 C 
ATOM     11  C   UNL     1       3.046  -0.316  -4.341  0.00  0.00    +0.004 C 
ATOM     12  C   UNL     1       2.558  -1.580  -3.644  0.00  0.00    -0.001 C 
ATOM     13  C   UNL     1       3.180  -1.644  -2.248  0.00  0.00    -0.026 C 
ATOM     14  C   UNL     1       2.531  -2.807  -1.498  0.00  0.00    +0.011 C 
ATOM     15  C   UNL     1       2.900  -4.106  -2.233  0.00  0.00    +0.048 C 
ATOM     16  C   UNL     1       2.359  -4.055  -3.661  0.00  0.00    +0.126 C 
ATOM     17  C   UNL     1       2.934  -2.845  -4.408  0.00  0.00    +0.052 C 
ATOM     18  C   UNL     1       4.678  -1.924  -2.389  0.00  0.00    +0.012 C 
ATOM     19  C   UNL     1       1.445   2.974   0.736  0.00  0.00    +0.015 C 
ENDROOT
BRANCH  16  20
ATOM     20  C   UNL     1       2.738  -5.289  -4.369  0.00  0.00    -0.071 C 
ATOM     21  C   UNL     1       3.039  -6.273  -4.934  0.00  0.00    +0.007 C 
ENDBRANCH  16  20
BRANCH  16  22
ATOM     22  O   UNL     1       0.935  -3.951  -3.620  0.00  0.00    -0.377 OA
ATOM     23  H   UNL     1       0.500  -4.684  -3.162  0.00  0.00    +0.211 HD
ENDBRANCH  16  22
BRANCH   1  24
ATOM     24  O   UNL     1      -0.726   1.570   1.177  0.00  0.00    -0.461 OA
BRANCH  24  26
ATOM     25  C   UNL     1      -2.481   1.221   2.877  0.00  0.00    +0.136 C 
ATOM     26  C   UNL     1      -1.698   0.785   1.666  0.00  0.00    +0.304 C 
ATOM     27  O   UNL     1      -1.946  -0.272   1.135  0.00  0.00    -0.251 OA
ENDBRANCH  24  26
ENDBRANCH   1  24
TORSDOF 4
