REMARK  Name = ZINC03557542
REMARK  6 active torsions:
REMARK  status: ('A' for Active; 'I' for Inactive)
REMARK    1  A    between atoms: C_1  and  N_2
REMARK    2  A    between atoms: C_6  and  C_8
REMARK    3  A    between atoms: C_8  and  C_10
REMARK    4  A    between atoms: C_8  and  O_16
REMARK    5  A    between atoms: O_16  and  C_17
REMARK    6  A    between atoms: C_17  and  C_19
REMARK                            x       y       z     vdW  Elec       q    Type
REMARK                         _______ _______ _______ _____ _____    ______ ____
ROOT
ATOM      1  C   UNL     1       1.268   2.020   0.001  0.00  0.00    +0.292 C 
ENDROOT
BRANCH   1   7
ATOM      2  C   UNL     1       3.066   7.412   2.295  0.00  0.00    +0.129 C 
ATOM      3  N   UNL     1       3.185   6.129   1.597  0.00  0.00    -0.302 N 
ATOM      4  C   UNL     1       2.111   5.324   1.480  0.00  0.00    +0.306 C 
ATOM      5  O   UNL     1       1.044   5.661   1.953  0.00  0.00    -0.252 OA
ATOM      6  N   UNL     1       2.220   4.144   0.837  0.00  0.00    -0.237 N 
ATOM      7  C   UNL     1       1.146   3.339   0.720  0.00  0.00    +0.266 C 
ATOM      8  O   UNL     1       0.082   3.675   1.192  0.00  0.00    -0.271 OA
ATOM      9  H   UNL     1       4.037   5.860   1.218  0.00  0.00    +0.150 HD
ATOM     10  H   UNL     1       3.072   3.875   0.459  0.00  0.00    +0.159 HD
ENDBRANCH   1   7
BRANCH   1  11
ATOM     11  C   UNL     1       1.699   2.261  -1.423  0.00  0.00    +0.002 A 
ATOM     12  C   UNL     1       0.769   2.646  -2.371  0.00  0.00    +0.008 A 
ATOM     13  C   UNL     1       1.165   2.872  -3.676  0.00  0.00    +0.000 A 
ATOM     14  C   UNL     1       2.490   2.705  -4.035  0.00  0.00    +0.000 A 
ATOM     15  C   UNL     1       3.419   2.315  -3.088  0.00  0.00    +0.000 A 
ATOM     16  C   UNL     1       3.023   2.093  -1.782  0.00  0.00    +0.008 A 
ENDBRANCH   1  11
BRANCH   1  17
ATOM     17  O   UNL     1      -0.016   1.343   0.009  0.00  0.00    -0.444 OA
BRANCH  17  18
ATOM     18  C   UNL     1       0.002  -0.004   0.002  0.00  0.00    +0.341 C 
ATOM     19  O   UNL     1       1.062  -0.597  -0.011  0.00  0.00    -0.245 OA
BRANCH  18  20
ATOM     20  C   UNL     1      -1.267  -0.760   0.010  0.00  0.00    +0.072 A 
ATOM     21  C   UNL     1      -2.487  -0.081   0.031  0.00  0.00    +0.016 A 
ATOM     22  C   UNL     1      -3.668  -0.793   0.033  0.00  0.00    +0.001 A 
ATOM     23  C   UNL     1      -3.647  -2.177   0.025  0.00  0.00    +0.001 A 
ATOM     24  C   UNL     1      -2.442  -2.856   0.010  0.00  0.00    +0.015 A 
ATOM     25  C   UNL     1      -1.252  -2.157   0.002  0.00  0.00    +0.027 A 
ATOM     26  I   UNL     1       0.572  -3.187  -0.020  0.00  0.00    -0.043 I 
ENDBRANCH  18  20
ENDBRANCH  17  18
ENDBRANCH   1  17
TORSDOF 5
