REMARK  Name = ZINC03600646
REMARK  4 active torsions:
REMARK  status: ('A' for Active; 'I' for Inactive)
REMARK    1  A    between atoms: N_13  and  C_17
REMARK    2  A    between atoms: C_17  and  C_18
REMARK    3  A    between atoms: N_20  and  C_21
REMARK    4  A    between atoms: C_26  and  C_27
REMARK                            x       y       z     vdW  Elec       q    Type
REMARK                         _______ _______ _______ _____ _____    ______ ____
ROOT
ATOM      1  C   UNL     1      -4.924   0.785   1.161  0.00  0.00    +0.000 A 
ATOM      2  C   UNL     1      -4.291   1.103   2.349  0.00  0.00    +0.000 A 
ATOM      3  C   UNL     1      -2.936   1.361   2.356  0.00  0.00    +0.006 A 
ATOM      4  C   UNL     1      -2.200   1.303   1.179  0.00  0.00    -0.012 A 
ATOM      5  C   UNL     1      -2.831   0.984  -0.004  0.00  0.00    -0.042 A 
ATOM      6  C   UNL     1      -4.195   0.726  -0.008  0.00  0.00    +0.004 A 
ATOM      7  C   UNL     1      -2.094   0.898  -1.314  0.00  0.00    +0.035 C 
ATOM      8  C   UNL     1      -0.754   1.627  -1.229  0.00  0.00    +0.008 C 
ATOM      9  C   UNL     1      -0.000   1.114   0.005  0.00  0.00    +0.040 C 
ATOM     10  C   UNL     1      -0.728   1.599   1.252  0.00  0.00    +0.138 C 
ATOM     11  C   UNL     1      -0.128   0.968   2.488  0.00  0.00    +0.251 C 
ATOM     12  O   UNL     1      -0.083  -0.213   2.760  0.00  0.00    -0.272 OA
ATOM     13  N   UNL     1       0.346   1.994   3.224  0.00  0.00    -0.215 N 
ATOM     14  C   UNL     1       0.128   3.171   2.626  0.00  0.00    +0.310 C 
ATOM     15  O   UNL     1       0.466   4.240   3.096  0.00  0.00    -0.252 OA
ATOM     16  N   UNL     1      -0.507   3.039   1.446  0.00  0.00    -0.281 N 
ATOM     17  H   UNL     1      -0.766   3.753   0.843  0.00  0.00    +0.152 HD
ENDROOT
BRANCH  13  18
ATOM     18  C   UNL     1       1.016   1.839   4.518  0.00  0.00    +0.214 C 
BRANCH  18  19
ATOM     19  C   UNL     1      -0.007   1.889   5.623  0.00  0.00    +0.235 C 
ATOM     20  O   UNL     1      -1.181   2.040   5.356  0.00  0.00    -0.274 OA
ATOM     21  N   UNL     1       0.381   1.767   6.907  0.00  0.00    -0.283 N 
ATOM     22  H   UNL     1       1.307   1.566   7.117  0.00  0.00    +0.155 HD
BRANCH  21  23
ATOM     23  C   UNL     1      -0.547   1.928   7.935  0.00  0.00    +0.051 A 
ATOM     24  C   UNL     1      -1.689   2.689   7.730  0.00  0.00    +0.024 A 
ATOM     25  C   UNL     1      -2.607   2.848   8.749  0.00  0.00    +0.002 A 
ATOM     26  C   UNL     1      -2.397   2.251   9.981  0.00  0.00    +0.001 A 
ATOM     27  C   UNL     1      -1.268   1.492  10.203  0.00  0.00    +0.021 A 
ATOM     28  C   UNL     1      -0.333   1.317   9.180  0.00  0.00    +0.073 A 
BRANCH  28  29
ATOM     29  C   UNL     1       0.839   0.525   9.402  0.00  0.00    +0.101 C 
ATOM     30  N   UNL     1       1.768  -0.104   9.578  0.00  0.00    -0.191 NA
ENDBRANCH  28  29
ENDBRANCH  21  23
ENDBRANCH  18  19
ENDBRANCH  13  18
TORSDOF 4
