REMARK  Name = ZINC20867615
REMARK  6 active torsions:
REMARK  status: ('A' for Active; 'I' for Inactive)
REMARK    1  A    between atoms: C_1  and  C_2
REMARK    2  A    between atoms: C_2  and  N_3
REMARK    3  A    between atoms: N_12  and  C_13
REMARK    4  A    between atoms: C_13  and  C_14
REMARK    5  A    between atoms: N_16  and  C_24
REMARK    6  A    between atoms: C_18  and  C_19
REMARK                            x       y       z     vdW  Elec       q    Type
REMARK                         _______ _______ _______ _____ _____    ______ ____
ROOT
ATOM      1  C   UNL     1      -4.146   4.804  -1.071  0.00  0.00    +0.016 A 
ATOM      2  C   UNL     1      -4.354   6.019  -0.518  0.00  0.00    +0.120 A 
ATOM      3  N   UNL     1      -3.971   6.960  -1.421  0.00  0.00    -0.239 N 
ATOM      4  N   UNL     1      -3.511   6.300  -2.567  0.00  0.00    -0.166 NA
ATOM      5  C   UNL     1      -3.608   5.002  -2.361  0.00  0.00    +0.104 A 
ENDROOT
BRANCH   3   6
ATOM      6  C   UNL     1      -4.026   8.347  -1.236  0.00  0.00    +0.065 A 
ATOM      7  C   UNL     1      -4.512   8.872  -0.045  0.00  0.00    +0.028 A 
ATOM      8  C   UNL     1      -4.559  10.240   0.136  0.00  0.00    +0.002 A 
ATOM      9  C   UNL     1      -4.135  11.088  -0.871  0.00  0.00    +0.000 A 
ATOM     10  C   UNL     1      -3.655  10.569  -2.059  0.00  0.00    +0.002 A 
ATOM     11  C   UNL     1      -3.600   9.201  -2.245  0.00  0.00    +0.028 A 
ENDBRANCH   3   6
BRANCH   5  12
ATOM     12  C   UNL     1      -3.226   3.939  -3.315  0.00  0.00    +0.040 A 
ATOM     13  C   UNL     1      -3.320   3.931  -4.681  0.00  0.00    +0.018 A 
ATOM     14  C   UNL     1      -2.895   2.814  -5.367  0.00  0.00    +0.008 A 
ATOM     15  C   UNL     1      -2.399   1.759  -4.672  0.00  0.00    +0.046 A 
ATOM     16  S   UNL     1      -2.514   2.335  -2.986  0.00  0.00    -0.095 S 
ENDBRANCH   5  12
BRANCH   1  17
ATOM     17  C   UNL     1      -4.431   3.474  -0.424  0.00  0.00    +0.143 C 
BRANCH  17  27
ATOM     18  N   UNL     1      -2.103   1.072   1.277  0.00  0.00    -0.314 N 
ATOM     19  C   UNL     1      -2.534  -0.121   1.833  0.00  0.00    +0.068 A 
ATOM     20  C   UNL     1      -1.899  -1.154   2.504  0.00  0.00    +0.028 A 
ATOM     21  C   UNL     1      -2.629  -2.239   2.945  0.00  0.00    +0.002 A 
ATOM     22  C   UNL     1      -3.996  -2.304   2.721  0.00  0.00    +0.002 A 
ATOM     23  C   UNL     1      -4.644  -1.287   2.055  0.00  0.00    +0.028 A 
ATOM     24  C   UNL     1      -3.919  -0.182   1.603  0.00  0.00    +0.065 A 
ATOM     25  N   UNL     1      -4.263   0.950   0.933  0.00  0.00    -0.327 N 
ATOM     26  C   UNL     1      -3.199   1.691   0.746  0.00  0.00    +0.174 A 
ATOM     27  N   UNL     1      -3.186   2.912   0.105  0.00  0.00    -0.312 N 
ATOM     28  H   UNL     1      -2.241   3.463  -0.009  0.00  0.00    +0.149 HD
ATOM     29  H   UNL     1      -5.309   1.119   0.640  0.00  0.00    +0.169 HD
BRANCH  18  31
ATOM     30  C   UNL     1      -0.013   1.086   0.008  0.00  0.00    +0.027 C 
ATOM     31  C   UNL     1      -0.729   1.579   1.267  0.00  0.00    +0.122 C 
ENDBRANCH  18  31
ENDBRANCH  17  27
ENDBRANCH   1  17
TORSDOF 5
