REMARK  Name = ZINC22101113
REMARK  7 active torsions:
REMARK  status: ('A' for Active; 'I' for Inactive)
REMARK    1  A    between atoms: C_1  and  C_2
REMARK    2  A    between atoms: C_2  and  S_3
REMARK    3  A    between atoms: S_3  and  C_6
REMARK    4  A    between atoms: C_9  and  O_27
REMARK    5  A    between atoms: C_10  and  N_12
REMARK    6  A    between atoms: C_13  and  C_15
REMARK    7  A    between atoms: C_17  and  C_20
REMARK                            x       y       z     vdW  Elec       q    Type
REMARK                         _______ _______ _______ _____ _____    ______ ____
ROOT
ATOM      1  N   UNL     1      -1.253  -5.164   2.398  0.00  0.00    -0.277 N 
ATOM      2  C   UNL     1      -1.202  -4.495   3.567  0.00  0.00    +0.270 C 
ATOM      3  O   UNL     1      -1.315  -3.285   3.579  0.00  0.00    -0.268 OA
ATOM      4  H   UNL     1      -1.225  -6.264   2.393  0.00  0.00    +0.155 HD
ENDROOT
BRANCH   1   9
ATOM      5  C   UNL     1      -2.146  -2.582  -0.065  0.00  0.00    +0.090 A 
ATOM      6  C   UNL     1      -1.522  -3.070  -1.198  0.00  0.00    +0.030 A 
ATOM      7  C   UNL     1      -0.799  -4.247  -1.142  0.00  0.00    +0.049 A 
ATOM      8  C   UNL     1      -0.709  -4.948   0.050  0.00  0.00    +0.138 A 
ATOM      9  C   UNL     1      -1.342  -4.460   1.191  0.00  0.00    +0.077 A 
ATOM     10  C   UNL     1      -2.060  -3.275   1.128  0.00  0.00    +0.054 A 
BRANCH   5  11
ATOM     11  S   UNL     1      -3.059  -1.077  -0.143  0.00  0.00    -0.003 S 
ATOM     12  O   UNL     1      -4.024  -1.185   0.895  0.00  0.00    -0.169 OA
ATOM     13  O   UNL     1      -3.465  -0.970  -1.501  0.00  0.00    -0.169 OA
BRANCH  11  15
ATOM     14  C   UNL     1      -2.545   1.585   0.216  0.00  0.00    +0.028 C 
ATOM     15  C   UNL     1      -1.856   0.220   0.255  0.00  0.00    +0.168 C 
ENDBRANCH  11  15
ENDBRANCH   5  11
BRANCH   8  16
ATOM     16  O   UNL     1      -0.003  -6.109   0.105  0.00  0.00    -0.505 OA
ATOM     17  H   UNL     1       0.069  -6.664   1.052  0.00  0.00    +0.292 HD
ENDBRANCH   8  16
ENDBRANCH   1   9
BRANCH   2  18
ATOM     18  C   UNL     1      -1.009  -5.234   4.837  0.00  0.00    +0.168 A 
ATOM     19  C   UNL     1      -0.928  -4.679   6.141  0.00  0.00    +0.086 A 
ATOM     20  C   UNL     1      -0.753  -5.768   6.949  0.00  0.00    +0.168 A 
ATOM     21  O   UNL     1      -0.730  -6.841   6.139  0.00  0.00    -0.354 OA
ATOM     22  N   UNL     1      -0.872  -6.530   4.980  0.00  0.00    -0.073 NA
BRANCH  20  23
ATOM     23  C   UNL     1      -0.610  -5.765   8.421  0.00  0.00    +0.020 A 
ATOM     24  C   UNL     1      -0.650  -4.562   9.126  0.00  0.00    +0.013 A 
ATOM     25  C   UNL     1      -0.522  -4.566  10.500  0.00  0.00    +0.021 A 
ATOM     26  C   UNL     1      -0.344  -5.761  11.177  0.00  0.00    +0.041 A 
ATOM     27  C   UNL     1      -0.297  -6.957  10.482  0.00  0.00    +0.021 A 
ATOM     28  C   UNL     1      -0.430  -6.966   9.109  0.00  0.00    +0.013 A 
ATOM     29 CL   UNL     1      -0.176  -5.758  12.905  0.00  0.00    -0.084 Cl
ENDBRANCH  20  23
ENDBRANCH   2  18
TORSDOF 6
