REMARK  Name = ZINC53995065
REMARK  7 active torsions:
REMARK  status: ('A' for Active; 'I' for Inactive)
REMARK    1  A    between atoms: C_1  and  C_2
REMARK    2  A    between atoms: C_2  and  O_3
REMARK    3  A    between atoms: O_3  and  C_4
REMARK    4  A    between atoms: C_7  and  N_10
REMARK    5  A    between atoms: C_22  and  C_29
REMARK    6  A    between atoms: C_26  and  O_28
REMARK    7  A    between atoms: C_30  and  C_31
REMARK                            x       y       z     vdW  Elec       q    Type
REMARK                         _______ _______ _______ _____ _____    ______ ____
ROOT
ATOM      1  N   UNL     1       1.136  -5.967   1.755  0.00  0.00    -0.231 N 
ATOM      2  C   UNL     1       0.580  -6.843   0.845  0.00  0.00    +0.227 C 
ATOM      3  O   UNL     1      -0.189  -6.496  -0.025  0.00  0.00    -0.275 OA
ATOM      4  C   UNL     1       1.083  -8.284   1.015  0.00  0.00    +0.090 C 
ATOM      5  C   UNL     1       0.054  -9.261   1.725  0.00  0.00    +0.033 C 
ATOM      6  C   UNL     1      -1.117  -8.230   1.878  0.00  0.00    +0.013 C 
ATOM      7  C   UNL     1      -0.159  -7.281   2.632  0.00  0.00    +0.030 C 
ATOM      8  C   UNL     1       1.351  -7.975   2.440  0.00  0.00    +0.071 C 
ATOM      9  C   UNL     1       1.903  -6.599   2.837  0.00  0.00    +0.210 C 
ATOM     10  O   UNL     1       1.334  -7.011   4.126  0.00  0.00    -0.338 OA
ATOM     11  C   UNL     1       0.209  -7.940   3.998  0.00  0.00    +0.154 C 
ATOM     12  C   UNL     1       0.292  -9.324   3.297  0.00  0.00    +0.147 C 
ENDROOT
BRANCH   1  16
ATOM     13  C   UNL     1       0.804  -1.825   1.305  0.00  0.00    +0.121 A 
ATOM     14  C   UNL     1       1.435  -2.352   2.422  0.00  0.00    +0.047 A 
ATOM     15  C   UNL     1       1.545  -3.721   2.571  0.00  0.00    +0.027 A 
ATOM     16  C   UNL     1       1.024  -4.569   1.603  0.00  0.00    +0.040 A 
ATOM     17  C   UNL     1       0.392  -4.040   0.485  0.00  0.00    +0.027 A 
ATOM     18  C   UNL     1       0.278  -2.671   0.340  0.00  0.00    +0.047 A 
BRANCH  13  19
ATOM     19  O   UNL     1       0.696  -0.477   1.158  0.00  0.00    -0.492 OA
BRANCH  19  21
ATOM     20  C   UNL     1       1.042   1.811   1.853  0.00  0.00    +0.048 C 
ATOM     21  C   UNL     1       1.260   0.335   2.190  0.00  0.00    +0.225 C 
ENDBRANCH  19  21
ENDBRANCH  13  19
ENDBRANCH   1  16
BRANCH  12  22
ATOM     22  O   UNL     1       1.281 -10.225   3.739  0.00  0.00    -0.389 OA
ATOM     23  H   UNL     1       1.400 -10.239   4.698  0.00  0.00    +0.210 HD
ENDBRANCH  12  22
BRANCH   9  24
ATOM     24  C   UNL     1       3.374  -6.362   2.819  0.00  0.00    -0.041 C 
ATOM     25  C   UNL     1       4.533  -6.175   2.805  0.00  0.00    -0.062 C 
BRANCH  25  26
ATOM     26  C   UNL     1       5.947  -5.947   2.789  0.00  0.00    +0.025 A 
ATOM     27  C   UNL     1       6.517  -5.159   1.788  0.00  0.00    +0.017 A 
ATOM     28  C   UNL     1       7.880  -4.943   1.778  0.00  0.00    +0.001 A 
ATOM     29  C   UNL     1       8.680  -5.506   2.757  0.00  0.00    +0.000 A 
ATOM     30  C   UNL     1       8.120  -6.288   3.751  0.00  0.00    +0.001 A 
ATOM     31  C   UNL     1       6.758  -6.507   3.776  0.00  0.00    +0.017 A 
ENDBRANCH  25  26
ENDBRANCH   9  24
TORSDOF 6
