REMARK  Name = ZINC36810119
REMARK  1 active torsions:
REMARK  status: ('A' for Active; 'I' for Inactive)
REMARK    1  A    between atoms: C_6  and  N_7
REMARK                            x       y       z     vdW  Elec       q    Type
REMARK                         _______ _______ _______ _____ _____    ______ ____
ROOT
ATOM      1  C   UNL     1      -0.017   1.390  -0.008  0.00  0.00    +0.024 A 
ATOM      2  C   UNL     1       1.155   2.092  -0.016  0.00  0.00    +0.015 A 
ATOM      3  C   UNL     1       2.376   1.411  -0.013  0.00  0.00    +0.048 A 
ATOM      4  C   UNL     1       2.407   0.004  -0.003  0.00  0.00    +0.047 A 
ATOM      5  C   UNL     1       1.212  -0.695   0.005  0.00  0.00    +0.047 A 
ATOM      6  C   UNL     1       0.002  -0.004   0.002  0.00  0.00    +0.031 A 
ATOM      7  N   UNL     1       3.730  -0.433  -0.003  0.00  0.00    -0.278 N 
ATOM      8  C   UNL     1       4.587   0.602  -0.013  0.00  0.00    +0.289 C 
ATOM      9  O   UNL     1       5.798   0.530  -0.015  0.00  0.00    -0.266 OA
ATOM     10  C   UNL     1       3.775   1.862  -0.020  0.00  0.00    +0.249 C 
ATOM     11  O   UNL     1       4.183   3.006  -0.029  0.00  0.00    -0.282 OA
ATOM     12  H   UNL     1       3.998  -1.365   0.004  0.00  0.00    +0.155 HD
ENDROOT
BRANCH   6  13
ATOM     13  N   UNL     1      -1.193  -0.709   0.010  0.00  0.00    -0.330 N 
ATOM     14  C   UNL     1      -1.200  -2.174  -0.102  0.00  0.00    +0.105 C 
ATOM     15  C   UNL     1      -2.119  -2.575  -1.260  0.00  0.00    +0.023 C 
ATOM     16  C   UNL     1      -3.503  -1.958  -1.046  0.00  0.00    -0.005 C 
ATOM     17  C   UNL     1      -4.425  -2.377  -2.195  0.00  0.00    +0.004 C 
ATOM     18  C   UNL     1      -3.831  -1.899  -3.522  0.00  0.00    +0.000 C 
ATOM     19  C   UNL     1      -3.702  -0.374  -3.503  0.00  0.00    +0.000 C 
ATOM     20  C   UNL     1      -2.788   0.048  -2.351  0.00  0.00    +0.005 C 
ATOM     21  C   UNL     1      -3.384  -0.432  -1.019  0.00  0.00    +0.009 C 
ATOM     22  C   UNL     1      -2.477  -0.006   0.136  0.00  0.00    +0.109 C 
ENDBRANCH   6  13
TORSDOF 1
