REMARK  Name = ZINC35268845
REMARK  8 active torsions:
REMARK  status: ('A' for Active; 'I' for Inactive)
REMARK    1  A    between atoms: C_1  and  C_2
REMARK    2  A    between atoms: C_2  and  C_4
REMARK    3  A    between atoms: C_2  and  N_14
REMARK    4  A    between atoms: N_6  and  C_7
REMARK    5  A    between atoms: N_17  and  S_20
REMARK    6  A    between atoms: S_20  and  C_23
REMARK    7  A    between atoms: C_26  and  O_29
REMARK    8  A    between atoms: O_29  and  C_30
REMARK                            x       y       z     vdW  Elec       q    Type
REMARK                         _______ _______ _______ _____ _____    ______ ____
ROOT
ATOM      1  N   UNL     1       1.037  -0.553  -0.884  0.00  0.00    -0.289 NA
ATOM      2  C   UNL     1       1.022  -2.022  -0.865  0.00  0.00    +0.102 C 
ATOM      3  C   UNL     1       2.224  -2.552  -1.654  0.00  0.00    +0.125 C 
ATOM      4  N   UNL     1       2.206  -1.947  -2.995  0.00  0.00    -0.174 NA
ATOM      5  C   UNL     1       2.083  -0.485  -3.098  0.00  0.00    +0.125 C 
ATOM      6  C   UNL     1       0.887  -0.036  -2.251  0.00  0.00    +0.102 C 
ENDROOT
BRANCH   4   7
ATOM      7  S   UNL     1       2.321  -2.888  -4.353  0.00  0.00    +0.061 S 
ATOM      8  O   UNL     1       2.828  -2.052  -5.384  0.00  0.00    -0.153 OA
ATOM      9  O   UNL     1       2.967  -4.091  -3.961  0.00  0.00    -0.153 OA
BRANCH   7  10
ATOM     10  C   UNL     1       0.680  -3.327  -4.823  0.00  0.00    +0.106 A 
ATOM     11  C   UNL     1       0.102  -4.477  -4.318  0.00  0.00    +0.032 A 
ATOM     12  C   UNL     1      -1.183  -4.824  -4.685  0.00  0.00    +0.047 A 
ATOM     13  C   UNL     1      -1.895  -4.018  -5.561  0.00  0.00    +0.120 A 
ATOM     14  C   UNL     1      -1.313  -2.864  -6.066  0.00  0.00    +0.047 A 
ATOM     15  C   UNL     1      -0.029  -2.519  -5.692  0.00  0.00    +0.032 A 
BRANCH  13  16
ATOM     16  O   UNL     1      -3.160  -4.357  -5.924  0.00  0.00    -0.495 OA
ATOM     17  C   UNL     1      -3.833  -3.480  -6.829  0.00  0.00    +0.277 C 
ENDBRANCH  13  16
ENDBRANCH   7  10
ENDBRANCH   4   7
BRANCH   1  19
ATOM     18  C   UNL     1      -1.366  -0.131  -0.671  0.00  0.00    +0.034 C 
ATOM     19  C   UNL     1       0.002  -0.004   0.002  0.00  0.00    +0.140 C 
BRANCH  19  20
ATOM     20  C   UNL     1       0.294   1.449   0.276  0.00  0.00    +0.230 C 
ATOM     21  O   UNL     1       1.095   2.046  -0.411  0.00  0.00    -0.274 OA
ATOM     22  N   UNL     1      -0.335   2.084   1.285  0.00  0.00    -0.311 N 
ATOM     23  H   UNL     1      -0.975   1.606   1.835  0.00  0.00    +0.149 HD
BRANCH  22  24
ATOM     24  C   UNL     1      -0.050   3.496   1.552  0.00  0.00    +0.073 C 
ATOM     25  C   UNL     1       1.238   3.596   2.394  0.00  0.00    +0.022 C 
ATOM     26  C   UNL     1       1.804   4.981   2.238  0.00  0.00    +0.002 C 
ATOM     27  C   UNL     1       1.341   5.936   3.355  0.00  0.00    +0.000 C 
ATOM     28  C   UNL     1      -0.150   5.769   3.704  0.00  0.00    +0.000 C 
ATOM     29  C   UNL     1      -1.012   5.598   2.482  0.00  0.00    +0.002 C 
ATOM     30  C   UNL     1      -1.198   4.090   2.221  0.00  0.00    +0.022 C 
ENDBRANCH  22  24
ENDBRANCH  19  20
ENDBRANCH   1  19
TORSDOF 6
