REMARK  Name = ZINC66454954
REMARK  5 active torsions:
REMARK  status: ('A' for Active; 'I' for Inactive)
REMARK    1  A    between atoms: N_4  and  C_8
REMARK    2  A    between atoms: C_8  and  C_9
REMARK    3  A    between atoms: C_12  and  C_15
REMARK    4  A    between atoms: C_15  and  N_16
REMARK    5  A    between atoms: C_22  and  N_26
REMARK                            x       y       z     vdW  Elec       q    Type
REMARK                         _______ _______ _______ _____ _____    ______ ____
ROOT
ATOM      1  C   UNL     1       5.406  -1.643   5.390  0.00  0.00    +0.138 C 
ENDROOT
BRANCH   1   2
ATOM      2  N   UNL     1       4.415  -1.101   6.324  0.00  0.00    -0.319 N 
ATOM      3  C   UNL     1       4.616  -1.214   7.685  0.00  0.00    +0.159 A 
ATOM      4  N   UNL     1       5.624  -1.760   8.326  0.00  0.00    -0.225 NA
ATOM      5  C   UNL     1       5.690  -1.799   9.675  0.00  0.00    +0.080 A 
ATOM      6  C   UNL     1       6.709  -2.352  10.484  0.00  0.00    +0.031 A 
ATOM      7  C   UNL     1       6.620  -2.308  11.851  0.00  0.00    +0.035 A 
ATOM      8  C   UNL     1       5.536  -1.723  12.488  0.00  0.00    +0.127 A 
ATOM      9  C   UNL     1       4.521  -1.171  11.728  0.00  0.00    +0.050 A 
ATOM     10  C   UNL     1       4.601  -1.211  10.358  0.00  0.00    +0.043 A 
ATOM     11  S   UNL     1       3.576  -0.646   9.022  0.00  0.00    -0.052 S 
ATOM     12  H   UNL     1       3.618  -0.664   5.986  0.00  0.00    +0.148 HD
BRANCH   8  13
ATOM     13  N   UNL     1       5.466  -1.690  13.966  0.00  0.00    +0.056 N 
ATOM     14  O   UNL     1       6.357  -2.174  14.625  0.00  0.00    -0.126 OA
ATOM     15  O   UNL     1       4.518  -1.178  14.515  0.00  0.00    -0.126 OA
ENDBRANCH   8  13
ENDBRANCH   1   2
BRANCH   1  19
ATOM     16  C   UNL     1       4.121  -0.932   1.379  0.00  0.00    -0.028 A 
ATOM     17  C   UNL     1       4.903   0.004   2.030  0.00  0.00    +0.006 A 
ATOM     18  C   UNL     1       5.319  -0.226   3.328  0.00  0.00    +0.005 A 
ATOM     19  C   UNL     1       4.952  -1.391   3.975  0.00  0.00    -0.030 A 
ATOM     20  C   UNL     1       4.169  -2.326   3.324  0.00  0.00    +0.005 A 
ATOM     21  C   UNL     1       3.750  -2.095   2.028  0.00  0.00    +0.006 A 
BRANCH  16  22
ATOM     22  C   UNL     1       3.668  -0.681  -0.037  0.00  0.00    +0.160 C 
BRANCH  22  26
ATOM     23  C   UNL     1      -0.016   1.360   0.009  0.00  0.00    +0.007 A 
ATOM     24  C   UNL     1       1.197   2.062   0.002  0.00  0.00    +0.018 A 
ATOM     25  C   UNL     1       2.369   1.385  -0.013  0.00  0.00    +0.089 A 
ATOM     26  N   UNL     1       2.385   0.027  -0.021  0.00  0.00    -0.311 N 
ATOM     27  C   UNL     1       1.237  -0.675  -0.014  0.00  0.00    +0.252 A 
ATOM     28  O   UNL     1       1.268  -1.895  -0.021  0.00  0.00    -0.268 OA
ATOM     29  C   UNL     1       0.002  -0.004   0.002  0.00  0.00    +0.070 A 
ENDBRANCH  22  26
ENDBRANCH  16  22
ENDBRANCH   1  19
TORSDOF 5
