REMARK  Name = ZINC20756455
REMARK  5 active torsions:
REMARK  status: ('A' for Active; 'I' for Inactive)
REMARK    1  A    between atoms: C_1  and  C_2
REMARK    2  A    between atoms: N_5  and  S_8
REMARK    3  A    between atoms: S_8  and  C_11
REMARK    4  A    between atoms: C_24  and  C_27
REMARK    5  A    between atoms: C_30  and  N_33
REMARK                            x       y       z     vdW  Elec       q    Type
REMARK                         _______ _______ _______ _____ _____    ______ ____
ROOT
ATOM      1  C   UNL     1      -1.277   3.024   4.027  0.00  0.00    +0.106 A 
ATOM      2  C   UNL     1      -1.952   4.145   3.577  0.00  0.00    +0.030 A 
ATOM      3  C   UNL     1      -3.051   4.606   4.274  0.00  0.00    +0.025 A 
ATOM      4  C   UNL     1      -3.468   3.953   5.427  0.00  0.00    +0.031 A 
ATOM      5  C   UNL     1      -2.793   2.832   5.883  0.00  0.00    -0.018 A 
ATOM      6  C   UNL     1      -1.692   2.374   5.171  0.00  0.00    +0.034 A 
ATOM      7  C   UNL     1      -3.209   2.093   7.115  0.00  0.00    +0.049 C 
ATOM      8  C   UNL     1      -2.278   2.377   8.270  0.00  0.00    -0.023 C 
ATOM      9  C   UNL     1      -2.950   2.425   9.393  0.00  0.00    -0.030 C 
ATOM     10  C   UNL     1      -4.424   2.175   9.142  0.00  0.00    +0.033 C 
ATOM     11  C   UNL     1      -4.596   2.520   7.633  0.00  0.00    +0.029 C 
ATOM     12  C   UNL     1      -4.747   4.040   7.528  0.00  0.00    +0.105 C 
ATOM     13  N   UNL     1      -4.578   4.438   6.126  0.00  0.00    -0.336 N 
ATOM     14  H   UNL     1      -5.315   5.102   5.651  0.00  0.00    +0.147 HD
ENDROOT
BRANCH  12  15
ATOM     15  C   UNL     1      -3.696   4.712   8.373  0.00  0.00    -0.027 A 
ATOM     16  C   UNL     1      -3.966   5.024   9.692  0.00  0.00    +0.008 A 
ATOM     17  C   UNL     1      -3.000   5.636  10.469  0.00  0.00    +0.033 A 
ATOM     18  C   UNL     1      -1.767   5.944   9.924  0.00  0.00    +0.126 A 
ATOM     19  C   UNL     1      -1.499   5.636   8.603  0.00  0.00    +0.033 A 
ATOM     20  C   UNL     1      -2.464   5.020   7.828  0.00  0.00    +0.008 A 
BRANCH  18  21
ATOM     21  N   UNL     1      -0.735   6.604  10.755  0.00  0.00    +0.056 N 
ATOM     22  O   UNL     1       0.351   6.875  10.274  0.00  0.00    -0.126 OA
ATOM     23  O   UNL     1      -0.971   6.875  11.918  0.00  0.00    -0.126 OA
ENDBRANCH  18  21
ENDBRANCH  12  15
BRANCH   1  24
ATOM     24  S   UNL     1       0.123   2.428   3.138  0.00  0.00    +0.061 S 
ATOM     25  O   UNL     1       0.910   1.695   4.066  0.00  0.00    -0.153 OA
ATOM     26  O   UNL     1       0.638   3.531   2.405  0.00  0.00    -0.153 OA
BRANCH  24  31
ATOM     27  C   UNL     1       0.421  -1.389  -1.131  0.00  0.00    +0.007 C 
ATOM     28  C   UNL     1      -0.310  -0.548  -0.082  0.00  0.00    -0.012 C 
ATOM     29  C   UNL     1       0.211  -0.906   1.312  0.00  0.00    +0.020 C 
ATOM     30  C   UNL     1      -0.546  -0.088   2.363  0.00  0.00    +0.110 C 
ATOM     31  N   UNL     1      -0.433   1.337   2.023  0.00  0.00    -0.177 NA
ATOM     32  C   UNL     1      -0.823   1.776   0.676  0.00  0.00    +0.110 C 
ATOM     33  C   UNL     1      -0.062   0.937  -0.355  0.00  0.00    +0.020 C 
ENDBRANCH  24  31
ENDBRANCH   1  24
TORSDOF 4
