REMARK  Name = ZINC65814619
REMARK  4 active torsions:
REMARK  status: ('A' for Active; 'I' for Inactive)
REMARK    1  A    between atoms: C_3  and  S_10
REMARK    2  A    between atoms: C_6  and  N_7
REMARK    3  A    between atoms: S_10  and  C_11
REMARK    4  A    between atoms: C_11  and  C_12
REMARK                            x       y       z     vdW  Elec       q    Type
REMARK                         _______ _______ _______ _____ _____    ______ ____
ROOT
ATOM      1  C   UNL     1       6.535   1.661  -0.052  0.00  0.00    +0.226 C 
ATOM      2  O   UNL     1       6.636   2.870  -0.047  0.00  0.00    -0.275 OA
ATOM      3  N   UNL     1       7.643   0.892  -0.067  0.00  0.00    -0.297 N 
ATOM      4  C   UNL     1       7.483  -0.534  -0.078  0.00  0.00    +0.111 C 
ATOM      5  C   UNL     1       8.561  -1.250   0.677  0.00  0.00    +0.007 C 
ATOM      6  C   UNL     1       8.851  -0.622   2.031  0.00  0.00    +0.008 C 
ATOM      7  C   UNL     1       9.880   0.490   1.995  0.00  0.00    -0.009 C 
ATOM      8  C   UNL     1      11.137   0.052   1.237  0.00  0.00    +0.007 C 
ATOM      9  C   UNL     1      10.702  -0.316  -0.184  0.00  0.00    -0.009 C 
ATOM     10  C   UNL     1       9.806  -1.552  -0.108  0.00  0.00    +0.008 C 
ATOM     11  C   UNL     1       9.996   0.834  -0.866  0.00  0.00    +0.026 C 
ATOM     12  C   UNL     1       8.938   1.548  -0.076  0.00  0.00    +0.077 C 
ATOM     13  C   UNL     1       9.362   1.782   1.381  0.00  0.00    +0.026 C 
ENDROOT
BRANCH   1  14
ATOM     14  C   UNL     1       5.172   1.019  -0.042  0.00  0.00    +0.170 C 
BRANCH  14  15
ATOM     15  S   UNL     1       3.897   2.308  -0.023  0.00  0.00    -0.116 S 
BRANCH  15  18
ATOM     16  C   UNL     1      -0.017   1.379   0.010  0.00  0.00    +0.034 A 
ATOM     17  C   UNL     1       1.169   2.087   0.002  0.00  0.00    +0.017 A 
ATOM     18  C   UNL     1       2.381   1.409  -0.013  0.00  0.00    +0.008 A 
ATOM     19  C   UNL     1       2.396   0.019  -0.021  0.00  0.00    +0.017 A 
ATOM     20  C   UNL     1       1.207  -0.683  -0.013  0.00  0.00    +0.034 A 
ATOM     21  C   UNL     1       0.002  -0.004   0.002  0.00  0.00    +0.126 A 
BRANCH  21  22
ATOM     22  N   UNL     1      -1.270  -0.760   0.010  0.00  0.00    +0.056 N 
ATOM     23  O   UNL     1      -2.325  -0.168   0.023  0.00  0.00    -0.126 OA
ATOM     24  O   UNL     1      -1.256  -1.969   0.003  0.00  0.00    -0.126 OA
ENDBRANCH  21  22
ENDBRANCH  15  18
ENDBRANCH  14  15
ENDBRANCH   1  14
TORSDOF 4
