REMARK  Name = ZINC00843641
REMARK  7 active torsions:
REMARK  status: ('A' for Active; 'I' for Inactive)
REMARK    1  A    between atoms: C_1  and  C_2
REMARK    2  A    between atoms: C_10  and  C_18
REMARK    3  A    between atoms: C_24  and  C_27
REMARK    4  A    between atoms: C_30  and  O_35
REMARK    5  A    between atoms: C_31  and  O_33
REMARK    6  A    between atoms: O_33  and  C_34
REMARK    7  A    between atoms: O_35  and  C_36
REMARK                            x       y       z     vdW  Elec       q    Type
REMARK                         _______ _______ _______ _____ _____    ______ ____
ROOT
ATOM      1  C   UNL     1      -0.018   1.503   0.010  0.00  0.00    +0.044 C 
ATOM      2  C   UNL     1       0.002  -0.004   0.002  0.00  0.00    -0.050 A 
ATOM      3  C   UNL     1       0.006  -0.687  -1.202  0.00  0.00    +0.007 A 
ATOM      4  C   UNL     1       0.025  -2.070  -1.225  0.00  0.00    +0.046 A 
ATOM      5  C   UNL     1       0.041  -2.779  -0.037  0.00  0.00    +0.131 A 
ATOM      6  C   UNL     1       0.037  -2.087   1.181  0.00  0.00    +0.043 A 
ATOM      7  C   UNL     1       0.023  -0.699   1.196  0.00  0.00    +0.017 A 
ATOM      8  C   UNL     1       0.060  -2.876   2.439  0.00  0.00    +0.083 C 
ATOM      9  C   UNL     1       0.405  -4.177   2.351  0.00  0.00    +0.027 C 
ATOM     10  C   UNL     1       0.424  -4.997   3.622  0.00  0.00    +0.159 C 
ATOM     11  N   UNL     1       0.058  -4.283   4.852  0.00  0.00    -0.208 N 
ATOM     12  C   UNL     1      -0.268  -2.944   4.775  0.00  0.00    +0.237 C 
ATOM     13  N   UNL     1      -0.258  -2.307   3.628  0.00  0.00    -0.213 NA
ATOM     14  N   UNL     1      -0.559  -2.538   6.031  0.00  0.00    -0.205 NA
ATOM     15  C   UNL     1      -0.436  -3.530   6.869  0.00  0.00    +0.203 C 
ATOM     16  N   UNL     1      -0.053  -4.649   6.195  0.00  0.00    -0.251 N 
ATOM     17  C   UNL     1       0.768  -4.783   1.027  0.00  0.00    +0.234 C 
ATOM     18  O   UNL     1       0.056  -4.136  -0.030  0.00  0.00    -0.479 OA
ATOM     19  H   UNL     1       0.110  -5.528   6.573  0.00  0.00    +0.171 HD
ENDROOT
BRANCH  10  20
ATOM     20  C   UNL     1      -0.530  -6.151   3.451  0.00  0.00    -0.021 A 
ATOM     21  C   UNL     1      -1.889  -5.955   3.613  0.00  0.00    +0.006 A 
ATOM     22  C   UNL     1      -2.764  -7.013   3.456  0.00  0.00    +0.000 A 
ATOM     23  C   UNL     1      -2.280  -8.268   3.137  0.00  0.00    +0.000 A 
ATOM     24  C   UNL     1      -0.921  -8.465   2.975  0.00  0.00    +0.000 A 
ATOM     25  C   UNL     1      -0.047  -7.405   3.127  0.00  0.00    +0.006 A 
ENDBRANCH  10  20
BRANCH  17  26
ATOM     26  C   UNL     1       2.248  -4.625   0.795  0.00  0.00    +0.001 A 
ATOM     27  C   UNL     1       2.752  -3.417   0.350  0.00  0.00    +0.011 A 
ATOM     28  C   UNL     1       4.109  -3.266   0.136  0.00  0.00    +0.050 A 
ATOM     29  C   UNL     1       4.969  -4.328   0.368  0.00  0.00    +0.162 A 
ATOM     30  C   UNL     1       4.462  -5.544   0.816  0.00  0.00    +0.162 A 
ATOM     31  C   UNL     1       3.101  -5.686   1.034  0.00  0.00    +0.057 A 
BRANCH  30  32
ATOM     32  O   UNL     1       5.302  -6.589   1.046  0.00  0.00    -0.491 OA
ATOM     33  C   UNL     1       4.712  -7.806   1.505  0.00  0.00    +0.277 C 
ENDBRANCH  30  32
BRANCH  29  34
ATOM     34  O   UNL     1       6.304  -4.182   0.157  0.00  0.00    -0.491 OA
ATOM     35  C   UNL     1       6.753  -2.906  -0.304  0.00  0.00    +0.277 C 
ENDBRANCH  29  34
ENDBRANCH  17  26
TORSDOF 4
