REMARK  Name = ZINC35921054
REMARK  7 active torsions:
REMARK  status: ('A' for Active; 'I' for Inactive)
REMARK    1  A    between atoms: C_1  and  C_2
REMARK    2  A    between atoms: C_2  and  C_3
REMARK    3  A    between atoms: C_2  and  N_4
REMARK    4  A    between atoms: C_10  and  C_12
REMARK    5  A    between atoms: C_15  and  C_18
REMARK    6  A    between atoms: N_22  and  C_26
REMARK    7  A    between atoms: C_26  and  C_27
REMARK                            x       y       z     vdW  Elec       q    Type
REMARK                         _______ _______ _______ _____ _____    ______ ____
ROOT
ATOM      1  C   UNL     1      -5.641  -1.625  -2.251  0.00  0.00    +0.037 A 
ATOM      2  C   UNL     1      -5.471  -0.348  -2.792  0.00  0.00    +0.013 A 
ATOM      3  C   UNL     1      -6.184   0.026  -3.902  0.00  0.00    +0.009 A 
ATOM      4  C   UNL     1      -7.081  -0.872  -4.493  0.00  0.00    -0.024 A 
ATOM      5  C   UNL     1      -7.250  -2.151  -3.949  0.00  0.00    +0.009 A 
ATOM      6  C   UNL     1      -6.532  -2.524  -2.842  0.00  0.00    +0.013 A 
ENDROOT
BRANCH   1  13
ATOM      7  N   UNL     1      -5.320   0.167   2.365  0.00  0.00    +0.383 N 
ATOM      8  C   UNL     1      -6.137   0.431   1.174  0.00  0.00    -0.059 C 
ATOM      9  C   UNL     1      -5.298   0.185  -0.085  0.00  0.00    +0.089 C 
ATOM     10  N   UNL     1      -4.745  -1.176  -0.018  0.00  0.00    -0.301 N 
ATOM     11  C   UNL     1      -4.048  -1.581   1.213  0.00  0.00    +0.089 C 
ATOM     12  C   UNL     1      -4.946  -1.253   2.410  0.00  0.00    -0.059 C 
ATOM     13  C   UNL     1      -4.872  -2.027  -1.054  0.00  0.00    +0.246 C 
ATOM     14  O   UNL     1      -4.355  -3.127  -1.006  0.00  0.00    -0.270 OA
ATOM     15  H   UNL     1      -4.485   0.732   2.329  0.00  0.00    -0.081 HD
BRANCH   7  17
ATOM     16  C   UNL     1      -5.235   0.243   4.811  0.00  0.00    -0.014 C 
ATOM     17  C   UNL     1      -6.089   0.507   3.569  0.00  0.00    -0.075 C 
ATOM     18  C   UNL     1      -6.480   1.986   3.524  0.00  0.00    -0.014 C 
ENDBRANCH   7  17
ENDBRANCH   1  13
BRANCH   4  19
ATOM     19  C   UNL     1      -7.846  -0.471  -5.682  0.00  0.00    +0.028 C 
ATOM     20  C   UNL     1      -7.442   0.590  -6.423  0.00  0.00    +0.080 C 
ATOM     21  C   UNL     1      -8.120   1.266  -7.553  0.00  0.00    +0.261 C 
ATOM     22  O   UNL     1      -9.205   0.899  -7.960  0.00  0.00    -0.269 OA
ATOM     23  N   UNL     1      -7.483   2.291  -8.095  0.00  0.00    -0.224 N 
ATOM     24  C   UNL     1      -6.280   2.695  -7.639  0.00  0.00    +0.286 C 
ATOM     25  O   UNL     1      -5.590   3.612  -8.041  0.00  0.00    -0.262 OA
ATOM     26  S   UNL     1      -5.946   1.562  -6.301  0.00  0.00    -0.026 S 
BRANCH  23  27
ATOM     27  C   UNL     1      -8.100   3.004  -9.216  0.00  0.00    +0.152 C 
BRANCH  27  28
ATOM     28  C   UNL     1      -8.952   4.129  -8.689  0.00  0.00    -0.029 A 
ATOM     29  C   UNL     1     -10.284   3.906  -8.392  0.00  0.00    +0.008 A 
ATOM     30  C   UNL     1     -11.067   4.937  -7.908  0.00  0.00    +0.038 A 
ATOM     31  C   UNL     1     -10.517   6.194  -7.720  0.00  0.00    +0.123 A 
ATOM     32  C   UNL     1      -9.183   6.416  -8.017  0.00  0.00    +0.038 A 
ATOM     33  C   UNL     1      -8.400   5.382  -8.496  0.00  0.00    +0.008 A 
ATOM     34  F   UNL     1     -11.281   7.202  -7.247  0.00  0.00    -0.205 F 
ENDBRANCH  27  28
ENDBRANCH  23  27
ENDBRANCH   4  19
TORSDOF 5
