REMARK  Name = ZINC36635474
REMARK  8 active torsions:
REMARK  status: ('A' for Active; 'I' for Inactive)
REMARK    1  A    between atoms: C_1  and  C_2
REMARK    2  A    between atoms: C_5  and  C_26
REMARK    3  A    between atoms: C_6  and  N_8
REMARK    4  A    between atoms: C_12  and  N_16
REMARK    5  A    between atoms: N_16  and  C_17
REMARK    6  A    between atoms: C_18  and  C_25
REMARK    7  A    between atoms: C_20  and  C_24
REMARK    8  A    between atoms: C_22  and  C_23
REMARK                            x       y       z     vdW  Elec       q    Type
REMARK                         _______ _______ _______ _____ _____    ______ ____
ROOT
ATOM      1  N   UNL     1       1.924  -2.210   6.025  0.00  0.00    -0.209 N 
ATOM      2  C   UNL     1       1.723  -2.895   7.157  0.00  0.00    +0.228 C 
ATOM      3  O   UNL     1       2.500  -2.962   8.085  0.00  0.00    -0.275 OA
ATOM      4  C   UNL     1       0.371  -3.573   7.095  0.00  0.00    +0.128 C 
ATOM      5  C   UNL     1      -0.179  -3.157   5.716  0.00  0.00    +0.166 C 
ATOM      6  C   UNL     1       0.917  -2.283   5.146  0.00  0.00    +0.247 C 
ATOM      7  O   UNL     1       0.888  -1.737   4.064  0.00  0.00    -0.273 OA
ENDROOT
BRANCH   1  13
ATOM      8  C   UNL     1       4.394   2.032   6.333  0.00  0.00    +0.044 C 
ATOM      9  C   UNL     1       4.315   0.585   5.921  0.00  0.00    -0.049 A 
ATOM     10  C   UNL     1       5.395  -0.017   5.302  0.00  0.00    +0.004 A 
ATOM     11  C   UNL     1       5.326  -1.345   4.922  0.00  0.00    +0.005 A 
ATOM     12  C   UNL     1       4.177  -2.074   5.160  0.00  0.00    -0.029 A 
ATOM     13  C   UNL     1       3.092  -1.473   5.782  0.00  0.00    +0.047 A 
ATOM     14  C   UNL     1       3.166  -0.141   6.167  0.00  0.00    +0.027 A 
ATOM     15  C   UNL     1       4.103  -3.521   4.745  0.00  0.00    +0.045 C 
ENDBRANCH   1  13
BRANCH   5  16
ATOM     16  N   UNL     1      -1.420  -2.393   5.865  0.00  0.00    -0.332 N 
ATOM     17  H   UNL     1      -1.405  -1.426   5.801  0.00  0.00    +0.147 HD
BRANCH  16  18
ATOM     18  C   UNL     1      -2.626  -3.059   6.099  0.00  0.00    +0.034 A 
ATOM     19  C   UNL     1      -3.252  -2.951   7.334  0.00  0.00    -0.029 A 
ATOM     20  C   UNL     1      -4.444  -3.611   7.561  0.00  0.00    +0.008 A 
ATOM     21  C   UNL     1      -5.014  -4.378   6.561  0.00  0.00    -0.050 A 
ATOM     22  C   UNL     1      -4.393  -4.487   5.331  0.00  0.00    +0.008 A 
ATOM     23  C   UNL     1      -3.204  -3.826   5.095  0.00  0.00    -0.029 A 
ATOM     24  C   UNL     1      -2.531  -3.940   3.751  0.00  0.00    +0.045 C 
ATOM     25  C   UNL     1      -6.314  -5.096   6.814  0.00  0.00    +0.044 C 
ATOM     26  C   UNL     1      -2.632  -2.117   8.424  0.00  0.00    +0.045 C 
ENDBRANCH  16  18
ENDBRANCH   5  16
TORSDOF 3
