REMARK  Name = ZINC65387155
REMARK  6 active torsions:
REMARK  status: ('A' for Active; 'I' for Inactive)
REMARK    1  A    between atoms: C_1  and  C_2
REMARK    2  A    between atoms: C_2  and  C_3
REMARK    3  A    between atoms: C_2  and  C_4
REMARK    4  A    between atoms: C_2  and  C_5
REMARK    5  A    between atoms: C_7  and  C_11
REMARK    6  A    between atoms: C_21  and  N_23
REMARK                            x       y       z     vdW  Elec       q    Type
REMARK                         _______ _______ _______ _____ _____    ______ ____
ROOT
ATOM      1  C   UNL     1       3.328  -0.470  -3.312  0.00  0.00    +0.060 C 
ATOM      2  C   UNL     1       3.982  -0.857  -1.986  0.00  0.00    +0.106 C 
ATOM      3  C   UNL     1       3.915  -2.350  -1.802  0.00  0.00    +0.218 C 
ATOM      4  O   UNL     1       3.711  -2.812  -0.699  0.00  0.00    -0.275 OA
ATOM      5  N   UNL     1       4.080  -3.176  -2.850  0.00  0.00    -0.285 N 
ATOM      6  C   UNL     1       4.205  -2.669  -4.146  0.00  0.00    +0.039 A 
ATOM      7  C   UNL     1       3.856  -1.351  -4.414  0.00  0.00    -0.020 A 
ATOM      8  C   UNL     1       3.994  -0.847  -5.693  0.00  0.00    +0.007 A 
ATOM      9  C   UNL     1       4.458  -1.656  -6.713  0.00  0.00    +0.024 A 
ATOM     10  C   UNL     1       4.782  -2.982  -6.455  0.00  0.00    +0.040 A 
ATOM     11  C   UNL     1       4.652  -3.488  -5.173  0.00  0.00    +0.047 A 
ATOM     12  H   UNL     1       4.113  -4.135  -2.705  0.00  0.00    +0.155 HD
ENDROOT
BRANCH  10  13
ATOM     13  N   UNL     1       5.240  -3.805  -7.490  0.00  0.00    -0.254 N 
ATOM     14  C   UNL     1       5.722  -5.185  -7.332  0.00  0.00    +0.134 C 
ATOM     15  C   UNL     1       6.096  -5.613  -8.764  0.00  0.00    +0.125 C 
ATOM     16  N   UNL     1       5.785  -4.428  -9.578  0.00  0.00    -0.297 N 
ATOM     17  C   UNL     1       5.304  -3.462  -8.784  0.00  0.00    +0.307 C 
ATOM     18  O   UNL     1       4.961  -2.372  -9.199  0.00  0.00    -0.252 OA
ATOM     19  H   UNL     1       5.904  -4.358 -10.538  0.00  0.00    +0.150 HD
ENDBRANCH  10  13
BRANCH   1  22
ATOM     20  C   UNL     1       0.692  -0.473  -1.259  0.00  0.00    +0.067 C 
ATOM     21  C   UNL     1       1.232   0.322  -2.185  0.00  0.00    +0.027 C 
ATOM     22  C   UNL     1       1.812  -0.645  -3.202  0.00  0.00    +0.160 C 
ATOM     23  N   UNL     1       1.476  -1.962  -2.636  0.00  0.00    -0.179 NA
ATOM     24  N   UNL     1       0.873  -1.774  -1.577  0.00  0.00    -0.158 NA
BRANCH  20  26
ATOM     25  C   UNL     1      -0.025   1.545  -0.007  0.00  0.00    +0.017 C 
ATOM     26  C   UNL     1      -0.019   0.015  -0.022  0.00  0.00    +0.006 C 
ATOM     27  C   UNL     1       0.707  -0.504   1.221  0.00  0.00    +0.017 C 
ATOM     28  C   UNL     1      -1.459  -0.501  -0.025  0.00  0.00    +0.017 C 
ENDBRANCH  20  26
ENDBRANCH   1  22
TORSDOF 3
