REMARK  Name = ZINC41455870
REMARK  6 active torsions:
REMARK  status: ('A' for Active; 'I' for Inactive)
REMARK    1  A    between atoms: C_1  and  C_2
REMARK    2  A    between atoms: C_5  and  N_9
REMARK    3  A    between atoms: C_7  and  C_8
REMARK    4  A    between atoms: C_10  and  C_23
REMARK    5  A    between atoms: C_12  and  C_14
REMARK    6  A    between atoms: C_19  and  C_22
REMARK                            x       y       z     vdW  Elec       q    Type
REMARK                         _______ _______ _______ _____ _____    ______ ____
ROOT
ATOM      1  N   UNL     1       0.059  -4.172  -0.021  0.00  0.00    -0.236 N 
ATOM      2  C   UNL     1      -0.570  -4.953  -0.937  0.00  0.00    +0.043 A 
ATOM      3  C   UNL     1      -0.315  -6.240  -0.605  0.00  0.00    +0.058 A 
ATOM      4  C   UNL     1       0.496  -6.180   0.553  0.00  0.00    +0.148 A 
ATOM      5  N   UNL     1       0.677  -4.904   0.834  0.00  0.00    -0.161 NA
ATOM      6  C   UNL     1      -1.397  -4.477  -2.104  0.00  0.00    +0.066 C 
ENDROOT
BRANCH   4   7
ATOM      7  C   UNL     1       1.042  -7.329   1.303  0.00  0.00    +0.269 C 
ATOM      8  O   UNL     1       0.804  -8.463   0.935  0.00  0.00    -0.268 OA
ATOM      9  N   UNL     1       1.804  -7.120   2.395  0.00  0.00    -0.262 N 
ATOM     10  C   UNL     1       2.319  -8.206   3.103  0.00  0.00    +0.168 A 
ATOM     11  C   UNL     1       2.129  -9.570   2.788  0.00  0.00    +0.091 A 
ATOM     12  C   UNL     1       2.783 -10.305   3.705  0.00  0.00    +0.136 A 
ATOM     13  O   UNL     1       3.369  -9.466   4.574  0.00  0.00    -0.358 OA
ATOM     14  N   UNL     1       3.069  -8.141   4.173  0.00  0.00    -0.063 NA
ATOM     15  C   UNL     1       2.846 -11.810   3.750  0.00  0.00    +0.089 C 
ATOM     16  H   UNL     1       1.994  -6.216   2.688  0.00  0.00    +0.157 HD
ENDBRANCH   4   7
BRANCH   1  21
ATOM     17  C   UNL     1      -0.018   1.503   0.010  0.00  0.00    +0.044 C 
ATOM     18  C   UNL     1       0.002  -0.004   0.002  0.00  0.00    -0.047 A 
ATOM     19  C   UNL     1       0.006  -0.688  -1.200  0.00  0.00    +0.006 A 
ATOM     20  C   UNL     1       0.025  -2.068  -1.211  0.00  0.00    +0.028 A 
ATOM     21  C   UNL     1       0.040  -2.771  -0.013  0.00  0.00    +0.066 A 
ATOM     22  C   UNL     1       0.037  -2.082   1.192  0.00  0.00    +0.031 A 
ATOM     23  C   UNL     1       0.023  -0.700   1.196  0.00  0.00    -0.046 A 
ATOM     24  C   UNL     1       0.025   0.049   2.504  0.00  0.00    +0.044 C 
ENDBRANCH   1  21
TORSDOF 2
