REMARK  Name = ZINC36151569
REMARK  1 active torsions:
REMARK  status: ('A' for Active; 'I' for Inactive)
REMARK    1  A    between atoms: C_4  and  C_7
REMARK                            x       y       z     vdW  Elec       q    Type
REMARK                         _______ _______ _______ _____ _____    ______ ____
ROOT
ATOM      1  C   UNL     1       2.906  -0.480   2.452  0.00  0.00    +0.154 A 
ATOM      2  N   UNL     1       2.574  -0.258   3.694  0.00  0.00    -0.132 NA
ATOM      3  N   UNL     1       3.425  -0.813   4.488  0.00  0.00    -0.121 NA
ATOM      4  C   UNL     1       4.341  -1.408   3.785  0.00  0.00    +0.209 A 
ATOM      5  N   UNL     1       4.033  -1.254   2.461  0.00  0.00    -0.225 N 
ATOM      6  N   UNL     1       4.686  -1.793   1.417  0.00  0.00    -0.277 N 
ATOM      7  C   UNL     1       6.096  -2.161   1.566  0.00  0.00    +0.101 C 
ATOM      8  C   UNL     1       6.352  -3.170   0.401  0.00  0.00    +0.025 C 
ATOM      9  C   UNL     1       5.940  -4.553   0.946  0.00  0.00    +0.003 C 
ATOM     10  C   UNL     1       5.572  -4.347   2.438  0.00  0.00    +0.016 C 
ATOM     11  C   UNL     1       6.345  -3.051   2.804  0.00  0.00    +0.076 C 
ATOM     12  S   UNL     1       5.776  -2.285   4.319  0.00  0.00    -0.079 S 
ATOM     13  H   UNL     1       4.157  -2.549   1.010  0.00  0.00    +0.167 HD
ENDROOT
BRANCH   1  17
ATOM     14  C   UNL     1      -0.019   1.526   0.010  0.00  0.00    +0.000 C 
ATOM     15  C   UNL     1       1.417   2.055  -0.000  0.00  0.00    +0.001 C 
ATOM     16  C   UNL     1       2.157   1.548   1.239  0.00  0.00    +0.011 C 
ATOM     17  C   UNL     1       2.178   0.019   1.231  0.00  0.00    +0.059 C 
ATOM     18  C   UNL     1       0.742  -0.511   1.242  0.00  0.00    +0.011 C 
ATOM     19  C   UNL     1       0.002  -0.004   0.002  0.00  0.00    +0.001 C 
ENDBRANCH   1  17
TORSDOF 1
