REMARK  Name = ZINC32722515
REMARK  6 active torsions:
REMARK  status: ('A' for Active; 'I' for Inactive)
REMARK    1  A    between atoms: C_1  and  C_2
REMARK    2  A    between atoms: C_10  and  C_11
REMARK    3  A    between atoms: N_13  and  C_14
REMARK    4  A    between atoms: C_14  and  C_15
REMARK    5  A    between atoms: C_18  and  S_21
REMARK    6  A    between atoms: S_21  and  N_24
REMARK                            x       y       z     vdW  Elec       q    Type
REMARK                         _______ _______ _______ _____ _____    ______ ____
ROOT
ATOM      1  C   UNL     1      -5.344   1.818  -0.486  0.00  0.00    +0.140 C 
ENDROOT
BRANCH   1   2
ATOM      2  C   UNL     1      -6.700   2.200   0.048  0.00  0.00    -0.030 A 
ATOM      3  C   UNL     1      -7.511   1.241   0.625  0.00  0.00    +0.007 A 
ATOM      4  C   UNL     1      -8.754   1.593   1.119  0.00  0.00    +0.029 A 
ATOM      5  C   UNL     1      -9.188   2.901   1.027  0.00  0.00    +0.105 A 
ATOM      6  C   UNL     1      -8.380   3.860   0.445  0.00  0.00    +0.029 A 
ATOM      7  C   UNL     1      -7.135   3.509  -0.044  0.00  0.00    +0.007 A 
BRANCH   5   8
ATOM      8  S   UNL     1     -10.774   3.349   1.653  0.00  0.00    +0.061 S 
ATOM      9  O   UNL     1     -11.109   2.381   2.638  0.00  0.00    -0.153 OA
ATOM     10  O   UNL     1     -10.720   4.740   1.938  0.00  0.00    -0.153 OA
BRANCH   8  11
ATOM     11  N   UNL     1     -11.859   3.161   0.416  0.00  0.00    -0.172 NA
ATOM     12  C   UNL     1     -12.163   4.271  -0.500  0.00  0.00    +0.137 C 
ATOM     13  C   UNL     1     -12.021   3.755  -1.942  0.00  0.00    +0.177 C 
ATOM     14  O   UNL     1     -12.809   2.572  -2.095  0.00  0.00    -0.377 OA
ATOM     15  C   UNL     1     -12.396   1.483  -1.267  0.00  0.00    +0.177 C 
ATOM     16  C   UNL     1     -12.553   1.880   0.205  0.00  0.00    +0.137 C 
ENDBRANCH   8  11
ENDBRANCH   5   8
ENDBRANCH   1   2
BRANCH   1  19
ATOM     17  C   UNL     1      -3.049   1.680   0.322  0.00  0.00    +0.280 C 
ATOM     18  O   UNL     1      -2.714   1.296  -0.782  0.00  0.00    -0.267 OA
ATOM     19  N   UNL     1      -4.342   1.968   0.572  0.00  0.00    -0.305 N 
ATOM     20  H   UNL     1      -4.645   2.315   1.571  0.00  0.00    +0.149 HD
BRANCH  17  30
ATOM     21  C   UNL     1      -0.013   1.086   0.008  0.00  0.00    +0.048 C 
ATOM     22  C   UNL     1      -0.718   1.572   1.248  0.00  0.00    +0.008 A 
ATOM     23  C   UNL     1      -0.112   1.866   2.546  0.00  0.00    +0.027 A 
ATOM     24  C   UNL     1       1.191   1.809   3.048  0.00  0.00    +0.012 A 
ATOM     25  C   UNL     1       1.434   2.160   4.345  0.00  0.00    +0.004 A 
ATOM     26  C   UNL     1       0.396   2.574   5.169  0.00  0.00    +0.042 A 
ATOM     27  C   UNL     1      -0.898   2.638   4.693  0.00  0.00    +0.166 A 
ATOM     28  C   UNL     1      -1.169   2.284   3.374  0.00  0.00    +0.171 A 
ATOM     29  O   UNL     1      -2.300   2.244   2.643  0.00  0.00    -0.447 OA
ATOM     30  C   UNL     1      -2.044   1.831   1.384  0.00  0.00    +0.193 A 
ATOM     31  F   UNL     1      -1.899   3.042   5.506  0.00  0.00    -0.202 F 
ENDBRANCH  17  30
ENDBRANCH   1  19
TORSDOF 5
