REMARK  Name = ZINC43620194
REMARK  6 active torsions:
REMARK  status: ('A' for Active; 'I' for Inactive)
REMARK    1  A    between atoms: C_1  and  O_2
REMARK    2  A    between atoms: O_2  and  C_3
REMARK    3  A    between atoms: C_8  and  C_9
REMARK    4  A    between atoms: C_9  and  N_10
REMARK    5  A    between atoms: C_15  and  C_24
REMARK    6  A    between atoms: C_28  and  N_30
REMARK                            x       y       z     vdW  Elec       q    Type
REMARK                         _______ _______ _______ _____ _____    ______ ____
ROOT
ATOM      1  N   UNL     1      -1.398  -2.912  -0.233  0.00  0.00    -0.298 N 
ATOM      2  C   UNL     1      -2.366  -1.962   0.326  0.00  0.00    +0.110 C 
ATOM      3  C   UNL     1      -3.684  -2.193  -0.436  0.00  0.00    +0.003 C 
ATOM      4  C   UNL     1      -3.717  -1.294  -1.697  0.00  0.00    -0.007 C 
ATOM      5  C   UNL     1      -4.458  -2.205  -2.710  0.00  0.00    -0.036 C 
ATOM      6  N   UNL     1      -3.970  -3.571  -2.422  0.00  0.00    +0.394 N 
ATOM      7  C   UNL     1      -3.487  -3.615  -1.013  0.00  0.00    +0.018 C 
ATOM      8  C   UNL     1      -2.009  -3.867  -0.956  0.00  0.00    +0.206 C 
ATOM      9  O   UNL     1      -1.445  -4.801  -1.486  0.00  0.00    -0.277 OA
ATOM     10  C   UNL     1      -4.302  -4.649  -0.232  0.00  0.00    -0.004 C 
ATOM     11  C   UNL     1      -4.878  -5.558  -1.352  0.00  0.00    -0.019 C 
ATOM     12  C   UNL     1      -5.101  -4.522  -2.524  0.00  0.00    -0.077 C 
ATOM     13  H   UNL     1      -3.238  -3.826  -3.068  0.00  0.00    -0.079 HD
ENDROOT
BRANCH   5  14
ATOM     14  C   UNL     1      -4.110  -1.809  -4.122  0.00  0.00    -0.059 A 
ATOM     15  C   UNL     1      -2.908  -2.209  -4.676  0.00  0.00    +0.002 A 
ATOM     16  C   UNL     1      -2.586  -1.847  -5.971  0.00  0.00    +0.002 A 
ATOM     17  C   UNL     1      -3.465  -1.085  -6.715  0.00  0.00    +0.028 A 
ATOM     18  C   UNL     1      -4.673  -0.683  -6.162  0.00  0.00    +0.066 A 
ATOM     19  C   UNL     1      -4.995  -1.051  -4.863  0.00  0.00    +0.029 A 
BRANCH  18  20
ATOM     20  N   UNL     1      -5.567   0.090  -6.916  0.00  0.00    -0.240 N 
ATOM     21  C   UNL     1      -5.426   0.428  -8.218  0.00  0.00    +0.114 A 
ATOM     22  C   UNL     1      -6.498   1.176  -8.568  0.00  0.00    +0.041 A 
ATOM     23  C   UNL     1      -7.322   1.300  -7.444  0.00  0.00    +0.135 A 
ATOM     24  N   UNL     1      -6.768   0.645  -6.455  0.00  0.00    -0.175 NA
ENDBRANCH  18  20
ENDBRANCH   5  14
BRANCH   1  25
ATOM     25  C   UNL     1       0.051  -2.828  -0.033  0.00  0.00    +0.146 C 
BRANCH  25  31
ATOM     26  C   UNL     1       0.606  -0.607  -1.056  0.00  0.00    +0.125 A 
ATOM     27  C   UNL     1       1.173   0.161  -2.063  0.00  0.00    +0.046 A 
ATOM     28  C   UNL     1       1.786  -0.455  -3.136  0.00  0.00    +0.004 A 
ATOM     29  C   UNL     1       1.836  -1.835  -3.208  0.00  0.00    +0.001 A 
ATOM     30  C   UNL     1       1.271  -2.602  -2.207  0.00  0.00    +0.009 A 
ATOM     31  C   UNL     1       0.661  -1.991  -1.128  0.00  0.00    +0.011 A 
BRANCH  26  33
ATOM     32  C   UNL     1      -0.017   1.425   0.010  0.00  0.00    +0.277 C 
ATOM     33  O   UNL     1       0.002  -0.004   0.002  0.00  0.00    -0.495 OA
ENDBRANCH  26  33
ENDBRANCH  25  31
ENDBRANCH   1  25
TORSDOF 5
