REMARK  Name = ZINC17080114
REMARK  5 active torsions:
REMARK  status: ('A' for Active; 'I' for Inactive)
REMARK    1  A    between atoms: C_1  and  C_2
REMARK    2  A    between atoms: C_2  and  C_21
REMARK    3  A    between atoms: N_3  and  N_4
REMARK    4  A    between atoms: C_5  and  C_7
REMARK    5  A    between atoms: C_24  and  C_26
REMARK                            x       y       z     vdW  Elec       q    Type
REMARK                         _______ _______ _______ _____ _____    ______ ____
ROOT
ATOM      1  N   UNL     1       3.282   2.631  -2.006  0.00  0.00    -0.206 N 
ATOM      2  C   UNL     1       3.063   1.441  -1.413  0.00  0.00    +0.244 C 
ATOM      3  O   UNL     1       3.323   0.413  -2.002  0.00  0.00    -0.273 OA
ATOM      4  H   UNL     1       3.074   3.453  -1.535  0.00  0.00    +0.177 HD
ENDROOT
BRANCH   2   5
ATOM      5  C   UNL     1       2.496   1.387  -0.018  0.00  0.00    +0.143 C 
ATOM      6  C   UNL     1       1.161   2.080   0.002  0.00  0.00    +0.011 A 
ATOM      7  C   UNL     1       1.115   3.463   0.011  0.00  0.00    +0.008 A 
ATOM      8  C   UNL     1      -0.102   4.118   0.027  0.00  0.00    +0.001 A 
ATOM      9  C   UNL     1      -1.278   3.392   0.032  0.00  0.00    +0.004 A 
ATOM     10  C   UNL     1      -1.239   2.013   0.019  0.00  0.00    +0.046 A 
ATOM     11  C   UNL     1      -0.016   1.350   0.009  0.00  0.00    +0.133 A 
ATOM     12  O   UNL     1       0.002  -0.004   0.002  0.00  0.00    -0.455 OA
ATOM     13  C   UNL     1       1.114  -0.671   0.394  0.00  0.00    +0.133 A 
ATOM     14  C   UNL     1       2.352  -0.050   0.404  0.00  0.00    +0.011 A 
ATOM     15  C   UNL     1       3.473  -0.755   0.806  0.00  0.00    +0.008 A 
ATOM     16  C   UNL     1       3.361  -2.075   1.199  0.00  0.00    +0.001 A 
ATOM     17  C   UNL     1       2.126  -2.696   1.193  0.00  0.00    +0.004 A 
ATOM     18  C   UNL     1       1.004  -1.999   0.791  0.00  0.00    +0.046 A 
ENDBRANCH   2   5
BRANCH   1  21
ATOM     19  C   UNL     1       3.697   5.107  -3.143  0.00  0.00    +0.068 C 
ATOM     20  C   UNL     1       4.020   3.830  -3.875  0.00  0.00    +0.070 C 
ATOM     21  N   UNL     1       3.809   2.681  -3.303  0.00  0.00    -0.184 NA
BRANCH  20  22
ATOM     22  C   UNL     1       4.571   3.883  -5.233  0.00  0.00    +0.035 A 
ATOM     23  C   UNL     1       4.938   2.833  -6.068  0.00  0.00    +0.018 A 
ATOM     24  C   UNL     1       5.430   3.123  -7.307  0.00  0.00    +0.023 A 
ATOM     25  C   UNL     1       5.556   4.455  -7.680  0.00  0.00    +0.101 A 
ATOM     26  S   UNL     1       4.952   5.311  -6.234  0.00  0.00    -0.080 S 
BRANCH  25  27
ATOM     27  C   UNL     1       6.058   5.014  -8.936  0.00  0.00    +0.393 C 
ATOM     28  O   UNL     1       6.434   4.273  -9.824  0.00  0.00    -0.240 OA
ATOM     29  O   UNL     1       6.103   6.352  -9.108  0.00  0.00    -0.240 OA
ENDBRANCH  25  27
ENDBRANCH  20  22
ENDBRANCH   1  21
TORSDOF 4
