REMARK  Name = ZINC60867817
REMARK  4 active torsions:
REMARK  status: ('A' for Active; 'I' for Inactive)
REMARK    1  A    between atoms: C_3  and  O_13
REMARK    2  A    between atoms: C_6  and  N_7
REMARK    3  A    between atoms: O_13  and  C_14
REMARK    4  A    between atoms: C_14  and  C_16
REMARK                            x       y       z     vdW  Elec       q    Type
REMARK                         _______ _______ _______ _____ _____    ______ ____
ROOT
ATOM      1  C   UNL     1      -0.023   1.419  -0.105  0.00  0.00    +0.027 A 
ATOM      2  C   UNL     1       1.171   2.113  -0.106  0.00  0.00    +0.048 A 
ATOM      3  C   UNL     1       2.373   1.426  -0.020  0.00  0.00    +0.132 A 
ATOM      4  C   UNL     1       2.377   0.041   0.067  0.00  0.00    +0.048 A 
ATOM      5  C   UNL     1       1.184  -0.654   0.068  0.00  0.00    +0.027 A 
ATOM      6  C   UNL     1      -0.020   0.033  -0.018  0.00  0.00    +0.040 A 
ENDROOT
BRANCH   6   7
ATOM      7  N   UNL     1      -1.231  -0.672  -0.016  0.00  0.00    -0.234 N 
ATOM      8  C   UNL     1      -1.385  -2.137   0.076  0.00  0.00    +0.158 C 
ATOM      9  C   UNL     1      -2.888  -2.287   0.412  0.00  0.00    +0.253 C 
ATOM     10  O   UNL     1      -3.436  -1.060  -0.107  0.00  0.00    -0.448 OA
ATOM     11  C   UNL     1      -2.463  -0.133  -0.093  0.00  0.00    +0.407 C 
ATOM     12  O   UNL     1      -2.671   1.062  -0.147  0.00  0.00    -0.226 OA
ENDBRANCH   6   7
BRANCH   3  13
ATOM     13  O   UNL     1       3.548   2.109  -0.022  0.00  0.00    -0.422 OA
BRANCH  13  14
ATOM     14  C   UNL     1       3.846   2.861   1.059  0.00  0.00    +0.351 C 
ATOM     15  O   UNL     1       3.125   2.830   2.038  0.00  0.00    -0.244 OA
BRANCH  14  16
ATOM     16  C   UNL     1       5.035   3.712   1.052  0.00  0.00    +0.098 A 
ATOM     17  C   UNL     1       5.518   4.548   2.050  0.00  0.00    +0.024 A 
ATOM     18  C   UNL     1       6.671   5.230   1.751  0.00  0.00    +0.028 A 
ATOM     19  C   UNL     1       7.248   5.048   0.535  0.00  0.00    +0.079 A 
ATOM     20  S   UNL     1       6.246   3.941  -0.235  0.00  0.00    -0.070 S 
ATOM     21 CL   UNL     1       8.694   5.786  -0.081  0.00  0.00    -0.076 Cl
ENDBRANCH  14  16
ENDBRANCH  13  14
ENDBRANCH   3  13
TORSDOF 4
