REMARK  Name = ZINC56939946
REMARK  4 active torsions:
REMARK  status: ('A' for Active; 'I' for Inactive)
REMARK    1  A    between atoms: C_5  and  C_7
REMARK    2  A    between atoms: C_9  and  C_12
REMARK    3  A    between atoms: C_12  and  S_13
REMARK    4  A    between atoms: S_13  and  C_14
REMARK                            x       y       z     vdW  Elec       q    Type
REMARK                         _______ _______ _______ _____ _____    ______ ____
ROOT
ATOM      1  C   UNL     1      -0.324  -5.424  -0.034  0.00  0.00    +0.155 C 
ENDROOT
BRANCH   1   4
ATOM      2  C   UNL     1       1.250  -2.160  -0.023  0.00  0.00    +0.260 A 
ATOM      3  N   UNL     1       0.201  -2.952  -0.023  0.00  0.00    -0.191 NA
ATOM      4  C   UNL     1       0.593  -4.228  -0.032  0.00  0.00    +0.182 A 
ATOM      5  N   UNL     1       1.895  -4.274  -0.039  0.00  0.00    -0.060 NA
ATOM      6  O   UNL     1       2.352  -2.930  -0.039  0.00  0.00    -0.333 OA
BRANCH   2  11
ATOM      7  C   UNL     1      -0.017   1.375   0.010  0.00  0.00    +0.001 A 
ATOM      8  C   UNL     1       1.170   2.087   0.002  0.00  0.00    +0.001 A 
ATOM      9  C   UNL     1       2.383   1.422  -0.013  0.00  0.00    +0.021 A 
ATOM     10  C   UNL     1       2.417   0.041  -0.021  0.00  0.00    +0.053 A 
ATOM     11  C   UNL     1       1.222  -0.683  -0.014  0.00  0.00    +0.058 A 
ATOM     12  C   UNL     1       0.002  -0.004   0.002  0.00  0.00    +0.015 A 
ATOM     13 CL   UNL     1       3.939  -0.792  -0.042  0.00  0.00    -0.083 Cl
ENDBRANCH   2  11
ENDBRANCH   1   4
BRANCH   1  14
ATOM     14  S   UNL     1      -0.701  -5.894  -1.745  0.00  0.00    -0.096 S 
BRANCH  14  15
ATOM     15  C   UNL     1      -1.768  -7.287  -1.580  0.00  0.00    +0.128 C 
ATOM     16  N   UNL     1      -2.098  -7.724  -0.405  0.00  0.00    -0.122 NA
ATOM     17  S   UNL     1      -3.103  -9.035  -0.671  0.00  0.00    +0.100 S 
ATOM     18  O   UNL     1      -4.405  -8.680  -0.227  0.00  0.00    -0.146 OA
ATOM     19  O   UNL     1      -2.418 -10.202  -0.234  0.00  0.00    -0.146 OA
ATOM     20  C   UNL     1      -3.121  -9.050  -2.443  0.00  0.00    +0.122 A 
ATOM     21  C   UNL     1      -2.298  -7.964  -2.773  0.00  0.00    +0.035 A 
ATOM     22  C   UNL     1      -2.104  -7.692  -4.136  0.00  0.00    +0.012 A 
ATOM     23  C   UNL     1      -2.712  -8.473  -5.093  0.00  0.00    +0.001 A 
ATOM     24  C   UNL     1      -3.523  -9.535  -4.737  0.00  0.00    +0.002 A 
ATOM     25  C   UNL     1      -3.718  -9.825  -3.393  0.00  0.00    +0.030 A 
ENDBRANCH  14  15
ENDBRANCH   1  14
TORSDOF 4
