REMARK  Name = ZINC63005127
REMARK  2 active torsions:
REMARK  status: ('A' for Active; 'I' for Inactive)
REMARK    1  A    between atoms: C_6  and  C_7
REMARK    2  A    between atoms: C_7  and  C_9
REMARK                            x       y       z     vdW  Elec       q    Type
REMARK                         _______ _______ _______ _____ _____    ______ ____
ROOT
ATOM      1  C   UNL     1       0.000   1.357  -0.333  0.00  0.00    +0.014 A 
ATOM      2  C   UNL     1       1.178   2.070  -0.322  0.00  0.00    +0.030 A 
ATOM      3  C   UNL     1       2.365   1.446   0.042  0.00  0.00    +0.087 A 
ATOM      4  C   UNL     1       2.370   0.095   0.398  0.00  0.00    +0.157 A 
ATOM      5  C   UNL     1       1.191  -0.625   0.389  0.00  0.00    +0.060 A 
ATOM      6  C   UNL     1      -0.003   0.004   0.022  0.00  0.00    +0.026 A 
ATOM      7  O   UNL     1       3.650  -0.236   0.701  0.00  0.00    -0.408 OA
ATOM      8  C   UNL     1       4.430   0.846   0.548  0.00  0.00    +0.419 A 
ATOM      9  O   UNL     1       5.630   0.879   0.742  0.00  0.00    -0.223 OA
ATOM     10  N   UNL     1       3.678   1.889   0.147  0.00  0.00    -0.288 N 
ATOM     11  H   UNL     1       3.996   2.788  -0.035  0.00  0.00    +0.172 HD
ENDROOT
BRANCH   6  12
ATOM     12  C   UNL     1      -1.265  -0.759   0.011  0.00  0.00    +0.193 C 
ATOM     13  O   UNL     1      -2.276  -0.255  -0.438  0.00  0.00    -0.287 OA
BRANCH  12  14
ATOM     14  C   UNL     1      -1.301  -2.136   0.544  0.00  0.00    +0.028 A 
ATOM     15  C   UNL     1      -0.497  -2.487   1.632  0.00  0.00    +0.053 A 
ATOM     16  C   UNL     1      -0.534  -3.775   2.127  0.00  0.00    +0.162 A 
ATOM     17  C   UNL     1      -1.368  -4.721   1.546  0.00  0.00    +0.193 A 
ATOM     18  C   UNL     1      -2.167  -4.377   0.465  0.00  0.00    +0.162 A 
ATOM     19  C   UNL     1      -2.142  -3.090  -0.034  0.00  0.00    +0.053 A 
ATOM     20  F   UNL     1      -2.976  -5.302  -0.097  0.00  0.00    -0.202 F 
ATOM     21  F   UNL     1      -1.400  -5.980   2.034  0.00  0.00    -0.199 F 
ATOM     22  F   UNL     1       0.243  -4.115   3.179  0.00  0.00    -0.202 F 
ENDBRANCH  12  14
ENDBRANCH   6  12
TORSDOF 2
