REMARK  Name = ZINC53711179
REMARK  3 active torsions:
REMARK  status: ('A' for Active; 'I' for Inactive)
REMARK    1  A    between atoms: C_1  and  C_2
REMARK    2  A    between atoms: C_6  and  C_7
REMARK    3  A    between atoms: C_15  and  C_17
REMARK                            x       y       z     vdW  Elec       q    Type
REMARK                         _______ _______ _______ _____ _____    ______ ____
ROOT
ATOM      1  C   UNL     1       0.031  -0.390   2.497  0.00  0.00    +0.200 A 
ATOM      2  N   UNL     1       0.013   0.855   2.941  0.00  0.00    -0.126 NA
ATOM      3  N   UNL     1       0.029   0.859   4.230  0.00  0.00    -0.132 NA
ATOM      4  C   UNL     1       0.059  -0.358   4.677  0.00  0.00    +0.155 A 
ATOM      5  N   UNL     1       0.053  -1.193   3.594  0.00  0.00    -0.306 N 
ATOM      6  C   UNL     1       0.068  -2.652   3.690  0.00  0.00    +0.140 C 
ATOM      7  C   UNL     1      -0.321  -3.041   5.123  0.00  0.00    +0.103 C 
ATOM      8  N   UNL     1       0.483  -2.272   6.082  0.00  0.00    -0.302 NA
ATOM      9  C   UNL     1       0.090  -0.853   6.101  0.00  0.00    +0.153 C 
ATOM     10  H   UNL     1       0.429  -2.675   7.005  0.00  0.00    +0.123 HD
ENDROOT
BRANCH   1  16
ATOM     11  C   UNL     1      -0.018   1.503   0.010  0.00  0.00    +0.048 C 
ATOM     12  C   UNL     1       0.002  -0.004   0.002  0.00  0.00    -0.002 A 
ATOM     13  C   UNL     1       0.009  -0.838  -1.132  0.00  0.00    +0.045 A 
ATOM     14  C   UNL     1       0.028  -2.111  -0.688  0.00  0.00    +0.196 A 
ATOM     15  O   UNL     1       0.033  -2.098   0.655  0.00  0.00    -0.460 OA
ATOM     16  C   UNL     1       0.024  -0.823   1.091  0.00  0.00    +0.175 A 
ENDBRANCH   1  16
BRANCH   9  17
ATOM     17  C   UNL     1       1.084  -0.048   6.898  0.00  0.00    -0.023 A 
ATOM     18  C   UNL     1       2.434  -0.328   6.805  0.00  0.00    +0.005 A 
ATOM     19  C   UNL     1       3.346   0.410   7.537  0.00  0.00    +0.000 A 
ATOM     20  C   UNL     1       2.907   1.430   8.360  0.00  0.00    +0.000 A 
ATOM     21  C   UNL     1       1.556   1.711   8.452  0.00  0.00    +0.000 A 
ATOM     22  C   UNL     1       0.645   0.975   7.718  0.00  0.00    +0.005 A 
ENDBRANCH   9  17
TORSDOF 2
