REMARK  Name = ZINC00808446
REMARK  6 active torsions:
REMARK  status: ('A' for Active; 'I' for Inactive)
REMARK    1  A    between atoms: C_1  and  C_2
REMARK    2  A    between atoms: N_13  and  C_14
REMARK    3  A    between atoms: C_14  and  C_15
REMARK    4  A    between atoms: C_15  and  C_16
REMARK    5  A    between atoms: C_16  and  C_17
REMARK    6  A    between atoms: N_29  and  C_30
REMARK                            x       y       z     vdW  Elec       q    Type
REMARK                         _______ _______ _______ _____ _____    ______ ____
ROOT
ATOM      1  C   UNL     1      -1.819  -1.977   4.907  0.00  0.00    +0.028 C 
ATOM      2  C   UNL     1      -2.532  -3.082   4.124  0.00  0.00    +0.073 C 
ATOM      3  C   UNL     1      -1.493  -4.037   3.531  0.00  0.00    +0.022 C 
ATOM      4  C   UNL     1      -2.209  -5.129   2.732  0.00  0.00    +0.003 C 
ATOM      5  C   UNL     1      -3.063  -4.476   1.641  0.00  0.00    +0.019 C 
ATOM      6  C   UNL     1      -4.056  -3.508   2.289  0.00  0.00    +0.108 C 
ATOM      7  N   UNL     1      -3.322  -2.483   3.041  0.00  0.00    -0.298 N 
ATOM      8  C   UNL     1      -4.178  -1.522   3.529  0.00  0.00    +0.201 A 
ATOM      9  N   UNL     1      -5.069  -1.708   4.482  0.00  0.00    -0.196 NA
ATOM     10  C   UNL     1      -5.735  -0.576   4.710  0.00  0.00    +0.170 A 
ATOM     11  C   UNL     1      -5.228   0.391   3.848  0.00  0.00    +0.153 A 
ATOM     12  N   UNL     1      -4.233  -0.231   3.105  0.00  0.00    -0.306 N 
ATOM     13  C   UNL     1      -5.763   1.691   3.884  0.00  0.00    +0.280 A 
ATOM     14  O   UNL     1      -5.334   2.553   3.137  0.00  0.00    -0.265 OA
ATOM     15  N   UNL     1      -6.755   1.973   4.753  0.00  0.00    -0.273 N 
ATOM     16  H   UNL     1      -7.138   2.897   4.780  0.00  0.00    +0.173 HD
ATOM     17  C   UNL     1      -7.238   1.031   5.581  0.00  0.00    +0.331 A 
ATOM     18  O   UNL     1      -8.134   1.322   6.351  0.00  0.00    -0.246 OA
ATOM     19  N   UNL     1      -6.755  -0.225   5.580  0.00  0.00    -0.280 N 
ATOM     20  C   UNL     1      -7.309  -1.223   6.499  0.00  0.00    +0.155 C 
ENDROOT
BRANCH  12  21
ATOM     21  C   UNL     1      -3.408   0.383   2.062  0.00  0.00    +0.125 C 
BRANCH  21  22
ATOM     22  C   UNL     1      -2.207   1.079   2.706  0.00  0.00    +0.026 C 
BRANCH  22  23
ATOM     23  C   UNL     1      -1.351   1.730   1.618  0.00  0.00    +0.037 C 
BRANCH  23  24
ATOM     24  C   UNL     1      -0.169   2.416   2.252  0.00  0.00    -0.047 A 
ATOM     25  C   UNL     1       1.012   1.723   2.442  0.00  0.00    +0.003 A 
ATOM     26  C   UNL     1       2.099   2.353   3.019  0.00  0.00    +0.000 A 
ATOM     27  C   UNL     1       2.003   3.676   3.410  0.00  0.00    +0.000 A 
ATOM     28  C   UNL     1       0.820   4.367   3.225  0.00  0.00    +0.000 A 
ATOM     29  C   UNL     1      -0.267   3.736   2.649  0.00  0.00    +0.003 A 
ENDBRANCH  23  24
ENDBRANCH  22  23
ENDBRANCH  21  22
ENDBRANCH  12  21
TORSDOF 4
