REMARK  Name = ZINC01476611
REMARK  8 active torsions:
REMARK  status: ('A' for Active; 'I' for Inactive)
REMARK    1  A    between atoms: C_1  and  C_2
REMARK    2  A    between atoms: C_2  and  N_3
REMARK    3  A    between atoms: N_3  and  C_4
REMARK    4  A    between atoms: C_4  and  C_5
REMARK    5  A    between atoms: C_6  and  C_8
REMARK    6  A    between atoms: C_8  and  S_9
REMARK    7  A    between atoms: S_9  and  C_10
REMARK    8  A    between atoms: N_22  and  C_23
REMARK                            x       y       z     vdW  Elec       q    Type
REMARK                         _______ _______ _______ _____ _____    ______ ____
ROOT
ATOM      1  C   UNL     1      -0.396   1.532  -5.274  0.00  0.00    +0.178 A 
ATOM      2  N   UNL     1      -1.531   1.804  -4.661  0.00  0.00    -0.215 NA
ATOM      3  C   UNL     1      -1.536   2.258  -3.412  0.00  0.00    +0.117 A 
ATOM      4  C   UNL     1      -0.352   2.471  -2.691  0.00  0.00    +0.076 A 
ATOM      5  C   UNL     1      -0.515   2.977  -1.318  0.00  0.00    -0.023 A 
ATOM      6  C   UNL     1      -1.771   3.186  -0.893  0.00  0.00    -0.004 A 
ATOM      7  S   UNL     1      -2.804   2.728  -2.266  0.00  0.00    -0.073 S 
ATOM      8  C   UNL     1      -1.815   3.706   0.519  0.00  0.00    +0.043 C 
ATOM      9  C   UNL     1      -0.379   4.213   0.790  0.00  0.00    +0.010 C 
ATOM     10  C   UNL     1       0.445   3.348  -0.184  0.00  0.00    +0.037 C 
ATOM     11  C   UNL     1       0.865   2.170  -3.379  0.00  0.00    +0.268 A 
ATOM     12  O   UNL     1       1.942   2.325  -2.829  0.00  0.00    -0.267 OA
ATOM     13  N   UNL     1       0.803   1.712  -4.643  0.00  0.00    -0.255 N 
ENDROOT
BRANCH  13  14
ATOM     14  C   UNL     1       1.990   1.414  -5.326  0.00  0.00    +0.052 A 
ATOM     15  C   UNL     1       2.534   0.139  -5.251  0.00  0.00    +0.028 A 
ATOM     16  C   UNL     1       3.701  -0.154  -5.929  0.00  0.00    +0.022 A 
ATOM     17  C   UNL     1       4.335   0.826  -6.673  0.00  0.00    +0.041 A 
ATOM     18  C   UNL     1       3.798   2.099  -6.745  0.00  0.00    +0.022 A 
ATOM     19  C   UNL     1       2.628   2.395  -6.073  0.00  0.00    +0.028 A 
ATOM     20 CL   UNL     1       5.806   0.457  -7.518  0.00  0.00    -0.084 Cl
ENDBRANCH  13  14
BRANCH   1  21
ATOM     21  S   UNL     1      -0.426   0.930  -6.929  0.00  0.00    -0.078 S 
BRANCH  21  22
ATOM     22  C   UNL     1      -2.212   0.898  -7.220  0.00  0.00    +0.173 C 
BRANCH  22  24
ATOM     23  N   UNL     1      -3.754   0.292  -9.057  0.00  0.00    -0.301 N 
ATOM     24  C   UNL     1      -2.485   0.400  -8.616  0.00  0.00    +0.226 C 
ATOM     25  O   UNL     1      -1.562   0.097  -9.343  0.00  0.00    -0.275 OA
BRANCH  23  27
ATOM     26  C   UNL     1      -5.200   2.140  -8.367  0.00  0.00    +0.024 C 
ATOM     27  C   UNL     1      -4.868   0.658  -8.179  0.00  0.00    +0.104 C 
ENDBRANCH  23  27
BRANCH  23  28
ATOM     28  C   UNL     1      -4.019  -0.192 -10.414  0.00  0.00    +0.104 C 
ATOM     29  C   UNL     1      -4.167  -1.714 -10.393  0.00  0.00    +0.024 C 
ENDBRANCH  23  28
ENDBRANCH  22  24
ENDBRANCH  21  22
ENDBRANCH   1  21
TORSDOF 6
