REMARK  Name = ZINC56053159
REMARK  6 active torsions:
REMARK  status: ('A' for Active; 'I' for Inactive)
REMARK    1  A    between atoms: C_1  and  C_2
REMARK    2  A    between atoms: C_2  and  O_3
REMARK    3  A    between atoms: O_3  and  C_4
REMARK    4  A    between atoms: C_4  and  C_6
REMARK    5  A    between atoms: C_8  and  C_14
REMARK    6  A    between atoms: C_19  and  C_21
REMARK                            x       y       z     vdW  Elec       q    Type
REMARK                         _______ _______ _______ _____ _____    ______ ____
ROOT
ATOM      1  C   UNL     1      -3.338  -2.295   0.216  0.00  0.00    +0.148 C 
ATOM      2  C   UNL     1      -3.267  -3.596  -0.318  0.00  0.00    +0.054 C 
ATOM      3  C   UNL     1      -4.576  -4.245  -0.728  0.00  0.00    +0.139 C 
ATOM      4  N   UNL     1      -5.795  -3.442  -0.525  0.00  0.00    -0.314 N 
ATOM      5  C   UNL     1      -5.671  -2.209   0.001  0.00  0.00    +0.155 C 
ATOM      6  S   UNL     1      -7.086  -1.276   0.237  0.00  0.00    -0.017 S 
ATOM      7  N   UNL     1      -4.500  -1.685   0.350  0.00  0.00    -0.186 NA
ATOM      8  C   UNL     1      -2.062  -4.251  -0.461  0.00  0.00    +0.195 C 
ATOM      9  O   UNL     1      -0.904  -3.595  -0.230  0.00  0.00    -0.287 OA
ATOM     10  H   UNL     1      -6.666  -3.794  -0.766  0.00  0.00    +0.149 HD
ENDROOT
BRANCH   8  11
ATOM     11  C   UNL     1      -2.037  -5.668  -0.867  0.00  0.00    +0.040 A 
ATOM     12  C   UNL     1      -1.259  -6.084  -1.958  0.00  0.00    +0.015 A 
ATOM     13  C   UNL     1      -1.270  -7.424  -2.296  0.00  0.00    +0.020 A 
ATOM     14  C   UNL     1      -2.041  -8.304  -1.556  0.00  0.00    +0.111 A 
ATOM     15  N   UNL     1      -2.764  -7.885  -0.535  0.00  0.00    -0.263 NA
ATOM     16  C   UNL     1      -2.784  -6.621  -0.168  0.00  0.00    +0.122 A 
ENDBRANCH   8  11
BRANCH   3  17
ATOM     17  C   UNL     1      -4.487  -4.594  -2.192  0.00  0.00    -0.016 A 
ATOM     18  C   UNL     1      -4.517  -5.913  -2.602  0.00  0.00    +0.013 A 
ATOM     19  C   UNL     1      -4.435  -6.192  -3.926  0.00  0.00    +0.045 A 
ATOM     20  S   UNL     1      -4.312  -4.561  -4.640  0.00  0.00    -0.105 S 
ATOM     21  C   UNL     1      -4.384  -3.617  -3.126  0.00  0.00    +0.051 A 
ENDBRANCH   3  17
BRANCH   1  22
ATOM     22  C   UNL     1      -2.092  -1.603   0.637  0.00  0.00    +0.356 C 
ATOM     23  O   UNL     1      -1.439  -0.980  -0.174  0.00  0.00    -0.243 OA
BRANCH  22  24
ATOM     24  O   UNL     1      -1.687  -1.669   1.920  0.00  0.00    -0.461 OA
BRANCH  24  26
ATOM     25  C   UNL     1      -0.183  -1.168   3.744  0.00  0.00    +0.048 C 
ATOM     26  C   UNL     1      -0.480  -0.981   2.255  0.00  0.00    +0.229 C 
ENDBRANCH  24  26
ENDBRANCH  22  24
ENDBRANCH   1  22
TORSDOF 5
