REMARK  Name = ZINC63438552
REMARK  4 active torsions:
REMARK  status: ('A' for Active; 'I' for Inactive)
REMARK    1  A    between atoms: C_1  and  C_2
REMARK    2  A    between atoms: N_4  and  C_5
REMARK    3  A    between atoms: C_8  and  C_11
REMARK    4  A    between atoms: C_16  and  C_18
REMARK                            x       y       z     vdW  Elec       q    Type
REMARK                         _______ _______ _______ _____ _____    ______ ____
ROOT
ATOM      1  C   UNL     1      -0.425  -5.126  -3.011  0.00  0.00    +0.063 C 
ATOM      2  C   UNL     1      -0.459  -4.677  -4.319  0.00  0.00    +0.154 C 
ATOM      3  C   UNL     1      -0.563  -5.494  -5.538  0.00  0.00    +0.364 C 
ATOM      4  O   UNL     1      -0.639  -6.707  -5.610  0.00  0.00    -0.243 OA
ATOM      5  O   UNL     1      -0.558  -4.612  -6.560  0.00  0.00    -0.402 OA
ATOM      6  C   UNL     1      -0.461  -3.367  -6.054  0.00  0.00    +0.235 C 
ATOM      7  N   UNL     1      -0.408  -3.384  -4.751  0.00  0.00    -0.205 NA
ENDROOT
BRANCH   1  15
ATOM      8  C   UNL     1      -0.043   1.503   0.011  0.00  0.00    +0.110 C 
ATOM      9  C   UNL     1      -0.008  -0.004   0.003  0.00  0.00    +0.218 C 
ATOM     10  O   UNL     1       0.105  -0.613   1.045  0.00  0.00    -0.276 OA
ATOM     11  N   UNL     1      -0.102  -0.673  -1.163  0.00  0.00    -0.254 N 
ATOM     12  C   UNL     1      -0.124   0.062  -2.430  0.00  0.00    +0.140 C 
ATOM     13  C   UNL     1      -0.177  -2.059  -1.164  0.00  0.00    +0.167 A 
ATOM     14  N   UNL     1      -0.267  -2.882  -2.187  0.00  0.00    -0.225 NA
ATOM     15  C   UNL     1      -0.327  -4.196  -1.946  0.00  0.00    +0.075 A 
ATOM     16  C   UNL     1      -0.292  -4.627  -0.631  0.00  0.00    +0.076 A 
ATOM     17  S   UNL     1      -0.170  -3.181   0.222  0.00  0.00    -0.060 S 
ENDBRANCH   1  15
BRANCH   6  18
ATOM     18  C   UNL     1      -0.425  -2.138  -6.871  0.00  0.00    +0.072 A 
ATOM     19  C   UNL     1      -0.499  -2.219  -8.264  0.00  0.00    +0.016 A 
ATOM     20  C   UNL     1      -0.466  -1.067  -9.021  0.00  0.00    +0.001 A 
ATOM     21  C   UNL     1      -0.358   0.168  -8.406  0.00  0.00    +0.003 A 
ATOM     22  C   UNL     1      -0.284   0.258  -7.029  0.00  0.00    +0.039 A 
ATOM     23  C   UNL     1      -0.322  -0.887  -6.255  0.00  0.00    +0.136 A 
ATOM     24  F   UNL     1      -0.255  -0.798  -4.909  0.00  0.00    -0.205 F 
ENDBRANCH   6  18
TORSDOF 2
