REMARK  Name = ZINC03843327
REMARK  4 active torsions:
REMARK  status: ('A' for Active; 'I' for Inactive)
REMARK    1  A    between atoms: C_1  and  O_2
REMARK    2  A    between atoms: O_2  and  C_3
REMARK    3  A    between atoms: C_8  and  C_9
REMARK    4  A    between atoms: N_15  and  C_18
REMARK                            x       y       z     vdW  Elec       q    Type
REMARK                         _______ _______ _______ _____ _____    ______ ____
ROOT
ATOM      1  C   UNL     1      -1.314  -0.388   0.003  0.00  0.00    +0.170 A 
ATOM      2  N   UNL     1      -2.027   0.708   0.144  0.00  0.00    -0.128 NA
ATOM      3  N   UNL     1      -1.260   1.743   0.102  0.00  0.00    -0.122 NA
ATOM      4  C   UNL     1      -0.022   1.367  -0.064  0.00  0.00    +0.195 A 
ATOM      5  N   UNL     1      -0.006   0.000  -0.131  0.00  0.00    -0.285 N 
ATOM      6  C   UNL     1       1.174  -0.839  -0.305  0.00  0.00    +0.235 C 
ATOM      7  N   UNL     1       2.291  -0.069  -0.859  0.00  0.00    -0.302 N 
ATOM      8  C   UNL     1       2.667   1.063   0.003  0.00  0.00    +0.184 C 
ATOM      9  S   UNL     1       1.423   2.372  -0.195  0.00  0.00    -0.067 S 
ENDROOT
BRANCH   1  15
ATOM     10  C   UNL     1      -2.941  -2.107  -0.785  0.00  0.00    +0.131 A 
ATOM     11  C   UNL     1      -3.413  -3.409  -0.788  0.00  0.00    +0.046 A 
ATOM     12  C   UNL     1      -2.784  -4.376  -0.028  0.00  0.00    +0.004 A 
ATOM     13  C   UNL     1      -1.679  -4.052   0.741  0.00  0.00    +0.001 A 
ATOM     14  C   UNL     1      -1.194  -2.761   0.752  0.00  0.00    +0.015 A 
ATOM     15  C   UNL     1      -1.825  -1.775  -0.008  0.00  0.00    +0.061 A 
BRANCH  10  17
ATOM     16  C   UNL     1      -4.692  -1.568  -2.299  0.00  0.00    +0.277 C 
ATOM     17  O   UNL     1      -3.560  -1.155  -1.532  0.00  0.00    -0.494 OA
ENDBRANCH  10  17
ENDBRANCH   1  15
BRANCH   7  18
ATOM     18  C   UNL     1       3.390  -0.892  -1.112  0.00  0.00    +0.032 A 
ATOM     19  C   UNL     1       3.322  -2.251  -0.831  0.00  0.00    +0.023 A 
ATOM     20  C   UNL     1       4.409  -3.063  -1.087  0.00  0.00    +0.002 A 
ATOM     21  C   UNL     1       5.568  -2.523  -1.613  0.00  0.00    +0.000 A 
ATOM     22  C   UNL     1       5.641  -1.171  -1.890  0.00  0.00    +0.002 A 
ATOM     23  C   UNL     1       4.556  -0.353  -1.641  0.00  0.00    +0.023 A 
ENDBRANCH   7  18
TORSDOF 3
