REMARK  Name = ZINC35900268
REMARK  6 active torsions:
REMARK  status: ('A' for Active; 'I' for Inactive)
REMARK    1  A    between atoms: C_1  and  C_2
REMARK    2  A    between atoms: N_13  and  C_16
REMARK    3  A    between atoms: C_19  and  O_22
REMARK    4  A    between atoms: O_22  and  C_23
REMARK    5  A    between atoms: C_23  and  C_25
REMARK    6  A    between atoms: N_30  and  C_32
REMARK                            x       y       z     vdW  Elec       q    Type
REMARK                         _______ _______ _______ _____ _____    ______ ____
ROOT
ATOM      1  C   UNL     1       1.063  -5.018   3.191  0.00  0.00    +0.044 A 
ATOM      2  C   UNL     1       2.313  -5.066   3.793  0.00  0.00    +0.027 A 
ATOM      3  C   UNL     1       2.678  -6.171   4.537  0.00  0.00    +0.048 A 
ATOM      4  C   UNL     1       1.796  -7.232   4.682  0.00  0.00    +0.132 A 
ATOM      5  C   UNL     1       0.547  -7.184   4.081  0.00  0.00    +0.048 A 
ATOM      6  C   UNL     1       0.179  -6.077   3.342  0.00  0.00    +0.027 A 
ENDROOT
BRANCH   1  16
ATOM      7  C   UNL     1       0.240   1.535  -0.053  0.00  0.00    +0.007 C 
ATOM      8  C   UNL     1       0.207   0.005  -0.046  0.00  0.00    -0.013 C 
ATOM      9  C   UNL     1      -1.246  -0.459  -0.028  0.00  0.00    +0.004 C 
ATOM     10  C   UNL     1      -1.364  -1.985   0.137  0.00  0.00    +0.014 C 
ATOM     11  C   UNL     1      -0.626  -2.343   1.406  0.00  0.00    +0.088 C 
ATOM     12  C   UNL     1       0.875  -2.017   1.151  0.00  0.00    +0.088 C 
ATOM     13  C   UNL     1       0.987  -0.508   1.181  0.00  0.00    +0.016 C 
ATOM     14  C   UNL     1       1.505  -2.821   2.244  0.00  0.00    +0.230 C 
ATOM     15  O   UNL     1       2.531  -2.568   2.838  0.00  0.00    -0.275 OA
ATOM     16  N   UNL     1       0.692  -3.896   2.435  0.00  0.00    -0.210 N 
ATOM     17  C   UNL     1      -0.523  -3.775   1.825  0.00  0.00    +0.230 C 
ATOM     18  O   UNL     1      -1.348  -4.646   1.655  0.00  0.00    -0.275 OA
ENDBRANCH   1  16
BRANCH   4  19
ATOM     19  O   UNL     1       2.157  -8.319   5.414  0.00  0.00    -0.426 OA
BRANCH  19  20
ATOM     20  C   UNL     1       2.335  -8.160   6.735  0.00  0.00    +0.317 C 
ATOM     21  O   UNL     1       2.084  -7.098   7.254  0.00  0.00    -0.250 OA
BRANCH  20  22
ATOM     22  C   UNL     1       2.848  -9.304   7.570  0.00  0.00    +0.125 C 
ATOM     23  C   UNL     1       1.839 -10.476   7.582  0.00  0.00    +0.112 C 
ATOM     24  C   UNL     1       1.924 -11.024   8.990  0.00  0.00    +0.221 C 
ATOM     25  O   UNL     1       1.509 -12.109   9.339  0.00  0.00    -0.275 OA
ATOM     26  N   UNL     1       2.526 -10.134   9.797  0.00  0.00    -0.271 N 
ATOM     27  C   UNL     1       2.901  -8.918   9.065  0.00  0.00    +0.128 C 
BRANCH  26  28
ATOM     28  C   UNL     1       2.767 -10.341  11.160  0.00  0.00    +0.036 A 
ATOM     29  C   UNL     1       2.498 -11.576  11.735  0.00  0.00    +0.023 A 
ATOM     30  C   UNL     1       2.736 -11.777  13.080  0.00  0.00    +0.002 A 
ATOM     31  C   UNL     1       3.243 -10.749  13.855  0.00  0.00    +0.000 A 
ATOM     32  C   UNL     1       3.511  -9.518  13.286  0.00  0.00    +0.002 A 
ATOM     33  C   UNL     1       3.281  -9.313  11.939  0.00  0.00    +0.023 A 
ENDBRANCH  26  28
ENDBRANCH  20  22
ENDBRANCH  19  20
ENDBRANCH   4  19
TORSDOF 5
