REMARK  Name = ZINC05202062
REMARK  10 active torsions:
REMARK  status: ('A' for Active; 'I' for Inactive)
REMARK    1  A    between atoms: C_1  and  C_2
REMARK    2  A    between atoms: C_5  and  N_12
REMARK    3  A    between atoms: C_8  and  C_10
REMARK    4  A    between atoms: C_8  and  C_11
REMARK    5  A    between atoms: N_15  and  C_16
REMARK    6  A    between atoms: N_21  and  C_23
REMARK    7  A    between atoms: C_26  and  O_31
REMARK    8  A    between atoms: C_27  and  O_29
REMARK    9  A    between atoms: O_29  and  C_30
REMARK   10  A    between atoms: O_31  and  C_32
REMARK                            x       y       z     vdW  Elec       q    Type
REMARK                         _______ _______ _______ _____ _____    ______ ____
ROOT
ATOM      1  C   UNL     1       2.292  -2.040   7.175  0.00  0.00    +0.101 C 
ATOM      2  C   UNL     1       1.619  -0.830   7.863  0.00  0.00    +0.120 C 
ATOM      3  C   UNL     1       0.793  -0.190   6.769  0.00  0.00    +0.222 C 
ATOM      4  O   UNL     1      -0.096   0.615   6.950  0.00  0.00    -0.275 OA
ATOM      5  N   UNL     1       1.186  -0.646   5.567  0.00  0.00    -0.269 N 
ATOM      6  C   UNL     1       2.296  -1.597   5.694  0.00  0.00    +0.136 C 
ENDROOT
BRANCH   1  10
ATOM      7  N   UNL     1       1.017  -5.198   8.560  0.00  0.00    -0.297 N 
ATOM      8  C   UNL     1       1.749  -4.079   8.394  0.00  0.00    +0.300 C 
ATOM      9  O   UNL     1       2.637  -3.810   9.179  0.00  0.00    -0.253 OA
ATOM     10  N   UNL     1       1.496  -3.256   7.356  0.00  0.00    -0.295 N 
ATOM     11  H   UNL     1       0.309  -5.412   7.934  0.00  0.00    +0.151 HD
ATOM     12  H   UNL     1       0.788  -3.470   6.729  0.00  0.00    +0.151 HD
BRANCH   7  16
ATOM     13  C   UNL     1      -1.699  -8.466   9.198  0.00  0.00    +0.007 C 
ATOM     14  C   UNL     1      -0.955  -7.145   9.402  0.00  0.00    -0.012 C 
ATOM     15  C   UNL     1       0.549  -7.413   9.485  0.00  0.00    +0.025 C 
ATOM     16  C   UNL     1       1.292  -6.091   9.688  0.00  0.00    +0.075 C 
ATOM     17  C   UNL     1       0.819  -5.434  10.986  0.00  0.00    +0.028 C 
ATOM     18  C   UNL     1      -0.685  -5.166  10.903  0.00  0.00    -0.033 C 
ATOM     19  C   UNL     1      -1.429  -6.488  10.700  0.00  0.00    +0.009 C 
ATOM     20  C   UNL     1      -0.973  -4.233   9.725  0.00  0.00    +0.011 C 
ATOM     21  C   UNL     1      -1.159  -4.509  12.201  0.00  0.00    +0.011 C 
ENDBRANCH   7  16
ENDBRANCH   1  10
BRANCH   5  22
ATOM     22  C   UNL     1       0.613  -0.258   4.348  0.00  0.00    +0.040 A 
ATOM     23  C   UNL     1      -0.452   0.632   4.335  0.00  0.00    +0.027 A 
ATOM     24  C   UNL     1      -1.014   1.020   3.133  0.00  0.00    +0.051 A 
ATOM     25  C   UNL     1      -0.523   0.514   1.941  0.00  0.00    +0.162 A 
ATOM     26  C   UNL     1       0.545  -0.379   1.952  0.00  0.00    +0.163 A 
ATOM     27  C   UNL     1       1.111  -0.763   3.155  0.00  0.00    +0.073 A 
BRANCH  26  28
ATOM     28  O   UNL     1       1.031  -0.872   0.782  0.00  0.00    -0.491 OA
ATOM     29  C   UNL     1       2.128  -1.784   0.868  0.00  0.00    +0.277 C 
ENDBRANCH  26  28
BRANCH  25  30
ATOM     30  O   UNL     1      -1.081   0.893   0.759  0.00  0.00    -0.491 OA
ATOM     31  C   UNL     1      -2.173   1.812   0.823  0.00  0.00    +0.277 C 
ENDBRANCH  25  30
ENDBRANCH   5  22
TORSDOF 5
