REMARK  Name = ZINC20170640
REMARK  1 active torsions:
REMARK  status: ('A' for Active; 'I' for Inactive)
REMARK    1  A    between atoms: C_7  and  N_12
REMARK                            x       y       z     vdW  Elec       q    Type
REMARK                         _______ _______ _______ _____ _____    ______ ____
ROOT
ATOM      1  C   UNL     1      -0.017   1.381   0.010  0.00  0.00    +0.000 A 
ATOM      2  C   UNL     1       1.169   2.094   0.002  0.00  0.00    +0.001 A 
ATOM      3  C   UNL     1       2.380   1.432  -0.013  0.00  0.00    +0.015 A 
ATOM      4  C   UNL     1       2.406   0.037  -0.021  0.00  0.00    +0.067 A 
ATOM      5  C   UNL     1       1.203  -0.674  -0.013  0.00  0.00    +0.025 A 
ATOM      6  C   UNL     1       0.002  -0.004   0.002  0.00  0.00    +0.010 A 
ATOM      7  C   UNL     1       1.578  -2.134  -0.024  0.00  0.00    +0.297 C 
ATOM      8  O   UNL     1       3.007  -2.192  -0.038  0.00  0.00    -0.435 OA
ATOM      9  C   UNL     1       3.506  -0.945  -0.037  0.00  0.00    +0.342 C 
ATOM     10  O   UNL     1       4.688  -0.667  -0.047  0.00  0.00    -0.245 OA
ENDROOT
BRANCH   7  11
ATOM     11  N   UNL     1       1.060  -2.793   1.178  0.00  0.00    -0.291 N 
ATOM     12  C   UNL     1       0.617  -4.109   1.112  0.00  0.00    +0.122 A 
ATOM     13  C   UNL     1       0.672  -4.796  -0.097  0.00  0.00    +0.044 A 
ATOM     14  C   UNL     1       0.227  -6.104  -0.149  0.00  0.00    +0.020 A 
ATOM     15  C   UNL     1      -0.260  -6.685   1.016  0.00  0.00    +0.036 A 
ATOM     16  C   UNL     1      -0.286  -5.945   2.181  0.00  0.00    +0.128 A 
ATOM     17  N   UNL     1       0.150  -4.699   2.201  0.00  0.00    -0.239 NA
ATOM     18 BR   UNL     1      -0.882  -8.471   1.004  0.00  0.00    -0.049 Br
ATOM     19  H   UNL     1       1.028  -2.312   2.019  0.00  0.00    +0.151 HD
ENDBRANCH   7  11
TORSDOF 1
