REMARK  Name = ZINC21040225
REMARK  6 active torsions:
REMARK  status: ('A' for Active; 'I' for Inactive)
REMARK    1  A    between atoms: C_3  and  N_8
REMARK    2  A    between atoms: C_9  and  C_11
REMARK    3  A    between atoms: C_11  and  C_12
REMARK    4  A    between atoms: C_12  and  C_13
REMARK    5  A    between atoms: C_13  and  C_14
REMARK    6  A    between atoms: N_21  and  C_24
REMARK                            x       y       z     vdW  Elec       q    Type
REMARK                         _______ _______ _______ _____ _____    ______ ____
ROOT
ATOM      1  C   UNL     1      -0.627   1.530   1.331  0.00  0.00    +0.138 A 
ATOM      2  N   UNL     1      -1.553   0.981   2.081  0.00  0.00    -0.134 NA
ATOM      3  N   UNL     1      -1.877   1.781   3.038  0.00  0.00    -0.124 NA
ATOM      4  C   UNL     1      -1.167   2.883   2.941  0.00  0.00    +0.227 A 
ATOM      5  N   UNL     1      -0.348   2.740   1.847  0.00  0.00    -0.281 N 
ATOM      6  C   UNL     1       0.513   3.763   1.499  0.00  0.00    +0.112 A 
ATOM      7  C   UNL     1       0.572   4.883   2.211  0.00  0.00    +0.113 A 
ATOM      8  N   UNL     1      -0.223   5.081   3.324  0.00  0.00    -0.280 N 
ATOM      9  C   UNL     1      -1.093   4.125   3.720  0.00  0.00    +0.301 A 
ATOM     10  O   UNL     1      -1.797   4.290   4.699  0.00  0.00    -0.263 OA
ENDROOT
BRANCH   8  11
ATOM     11  C   UNL     1      -0.128   6.277   4.044  0.00  0.00    +0.052 A 
ATOM     12  C   UNL     1       1.097   6.684   4.559  0.00  0.00    +0.026 A 
ATOM     13  C   UNL     1       1.190   7.867   5.266  0.00  0.00    +0.005 A 
ATOM     14  C   UNL     1       0.064   8.643   5.469  0.00  0.00    +0.038 A 
ATOM     15  C   UNL     1      -1.160   8.239   4.962  0.00  0.00    +0.125 A 
ATOM     16  C   UNL     1      -1.258   7.057   4.250  0.00  0.00    +0.064 A 
ATOM     17  F   UNL     1      -2.259   8.999   5.163  0.00  0.00    -0.205 F 
ENDBRANCH   8  11
BRANCH   1  18
ATOM     18  C   UNL     1       0.014   0.913   0.114  0.00  0.00    +0.077 C 
BRANCH  18  19
ATOM     19  C   UNL     1      -0.791   1.288  -1.132  0.00  0.00    +0.017 C 
BRANCH  19  20
ATOM     20  C   UNL     1      -0.141   0.662  -2.367  0.00  0.00    +0.096 C 
BRANCH  20  22
ATOM     21  N   UNL     1      -0.544   0.589  -4.806  0.00  0.00    -0.285 N 
ATOM     22  C   UNL     1      -0.933   1.032  -3.594  0.00  0.00    +0.217 C 
ATOM     23  O   UNL     1      -1.921   1.728  -3.491  0.00  0.00    -0.275 OA
ATOM     24  H   UNL     1       0.388   0.015  -4.909  0.00  0.00    +0.155 HD
BRANCH  21  27
ATOM     25  C   UNL     1      -2.195   0.193  -8.068  0.00  0.00    +0.003 A 
ATOM     26  C   UNL     1      -1.418  -0.074  -6.958  0.00  0.00    +0.023 A 
ATOM     27  C   UNL     1      -1.327   0.860  -5.934  0.00  0.00    +0.035 A 
ATOM     28  C   UNL     1      -2.010   2.065  -6.034  0.00  0.00    +0.043 A 
ATOM     29  C   UNL     1      -2.782   2.329  -7.150  0.00  0.00    +0.043 A 
ATOM     30  C   UNL     1      -2.874   1.393  -8.166  0.00  0.00    +0.020 A 
ATOM     31 CL   UNL     1      -3.636   3.835  -7.277  0.00  0.00    -0.083 Cl
ENDBRANCH  21  27
ENDBRANCH  20  22
ENDBRANCH  19  20
ENDBRANCH  18  19
ENDBRANCH   1  18
TORSDOF 6
