REMARK  Name = ZINC66854856
REMARK  6 active torsions:
REMARK  status: ('A' for Active; 'I' for Inactive)
REMARK    1  A    between atoms: C_1  and  C_2
REMARK    2  A    between atoms: C_4  and  C_22
REMARK    3  A    between atoms: N_8  and  C_12
REMARK    4  A    between atoms: C_12  and  C_13
REMARK    5  A    between atoms: N_15  and  C_16
REMARK    6  A    between atoms: C_18  and  C_21
REMARK                            x       y       z     vdW  Elec       q    Type
REMARK                         _______ _______ _______ _____ _____    ______ ____
ROOT
ATOM      1  C   UNL     1      -0.018   1.503   0.010  0.00  0.00    +0.044 C 
ATOM      2  C   UNL     1       0.002  -0.004   0.002  0.00  0.00    -0.048 A 
ATOM      3  C   UNL     1       0.006  -0.690  -1.199  0.00  0.00    +0.007 A 
ATOM      4  C   UNL     1       0.022  -2.071  -1.209  0.00  0.00    -0.045 A 
ATOM      5  C   UNL     1       0.036  -2.779  -0.019  0.00  0.00    -0.023 A 
ATOM      6  C   UNL     1       0.036  -2.092   1.185  0.00  0.00    +0.034 A 
ATOM      7  C   UNL     1       0.023  -0.702   1.193  0.00  0.00    +0.026 A 
ATOM      8  N   UNL     1       0.058  -2.780   2.403  0.00  0.00    -0.321 N 
ATOM      9  C   UNL     1      -0.221  -4.223   2.410  0.00  0.00    +0.106 C 
ATOM     10  C   UNL     1       0.564  -4.857   1.254  0.00  0.00    +0.024 C 
ATOM     11  C   UNL     1       0.048  -4.284  -0.066  0.00  0.00    +0.039 C 
ATOM     12  C   UNL     1       0.025  -2.811  -2.522  0.00  0.00    +0.044 C 
ENDROOT
BRANCH   8  13
ATOM     13  C   UNL     1       0.356  -2.074   3.652  0.00  0.00    +0.201 C 
BRANCH  13  14
ATOM     14  C   UNL     1      -0.926  -1.563   4.257  0.00  0.00    +0.237 C 
ATOM     15  O   UNL     1      -1.983  -1.768   3.701  0.00  0.00    -0.274 OA
ATOM     16  N   UNL     1      -0.896  -0.877   5.418  0.00  0.00    -0.253 N 
ATOM     17  H   UNL     1      -0.050  -0.713   5.862  0.00  0.00    +0.158 HD
BRANCH  16  18
ATOM     18  C   UNL     1      -2.076  -0.406   5.975  0.00  0.00    +0.224 A 
ATOM     19  C   UNL     1      -2.189   0.299   7.130  0.00  0.00    +0.092 A 
ATOM     20  C   UNL     1      -3.548   0.579   7.335  0.00  0.00    +0.082 A 
ATOM     21  N   UNL     1      -4.225   0.064   6.346  0.00  0.00    -0.081 NA
ATOM     22  O   UNL     1      -3.310  -0.562   5.466  0.00  0.00    -0.339 OA
ATOM     23  C   UNL     1      -4.126   1.343   8.499  0.00  0.00    +0.069 C 
ENDBRANCH  16  18
ENDBRANCH  13  14
ENDBRANCH   8  13
TORSDOF 3
