REMARK  Name = ZINC20798751
REMARK  6 active torsions:
REMARK  status: ('A' for Active; 'I' for Inactive)
REMARK    1  A    between atoms: C_1  and  C_2
REMARK    2  A    between atoms: C_2  and  O_3
REMARK    3  A    between atoms: O_3  and  C_4
REMARK    4  A    between atoms: C_4  and  C_6
REMARK    5  A    between atoms: N_9  and  C_12
REMARK    6  A    between atoms: N_17  and  C_20
REMARK                            x       y       z     vdW  Elec       q    Type
REMARK                         _______ _______ _______ _____ _____    ______ ____
ROOT
ATOM      1  C   UNL     1       1.265  -4.274  -0.803  0.00  0.00    +0.029 C 
ATOM      2  C   UNL     1       1.279  -4.282   0.739  0.00  0.00    +0.090 C 
ATOM      3  C   UNL     1       1.259  -2.813   1.101  0.00  0.00    +0.225 C 
ATOM      4  O   UNL     1       1.263  -2.368   2.229  0.00  0.00    -0.275 OA
ATOM      5  N   UNL     1       1.237  -2.083  -0.021  0.00  0.00    -0.210 N 
ATOM      6  C   UNL     1       1.232  -2.802  -1.150  0.00  0.00    +0.213 C 
ATOM      7  O   UNL     1       1.209  -2.345  -2.273  0.00  0.00    -0.277 OA
ENDROOT
BRANCH   5   8
ATOM      8  C   UNL     1       1.215  -0.681  -0.013  0.00  0.00    +0.063 A 
ATOM      9  C   UNL     1       2.405   0.033  -0.021  0.00  0.00    +0.045 A 
ATOM     10  C   UNL     1       2.380   1.415  -0.013  0.00  0.00    +0.043 A 
ATOM     11  C   UNL     1       1.170   2.087   0.002  0.00  0.00    +0.021 A 
ATOM     12  C   UNL     1      -0.017   1.378   0.010  0.00  0.00    +0.023 A 
ATOM     13  C   UNL     1       0.002  -0.004   0.002  0.00  0.00    +0.063 A 
ATOM     14 CL   UNL     1      -1.489  -0.893   0.012  0.00  0.00    -0.082 Cl
ATOM     15 CL   UNL     1       3.868   2.310  -0.023  0.00  0.00    -0.083 Cl
ENDBRANCH   5   8
BRANCH   1  19
ATOM     16  C   UNL     1       4.912  -5.105  -2.874  0.00  0.00    +0.094 C 
ATOM     17  C   UNL     1       3.623  -5.812  -3.303  0.00  0.00    -0.004 C 
ATOM     18  C   UNL     1       2.418  -5.016  -2.798  0.00  0.00    -0.077 C 
ATOM     19  N   UNL     1       2.476  -4.912  -1.335  0.00  0.00    +0.388 N 
ATOM     20  C   UNL     1       3.682  -4.195  -0.901  0.00  0.00    -0.077 C 
ATOM     21  C   UNL     1       4.925  -4.967  -1.350  0.00  0.00    -0.004 C 
ATOM     22  H   UNL     1       2.529  -5.933  -0.928  0.00  0.00    -0.081 HD
BRANCH  16  23
ATOM     23  C   UNL     1       6.102  -5.916  -3.317  0.00  0.00    +0.310 C 
ATOM     24  O   UNL     1       5.939  -6.953  -3.914  0.00  0.00    -0.251 OA
BRANCH  23  25
ATOM     25  O   UNL     1       7.345  -5.486  -3.048  0.00  0.00    -0.465 OA
BRANCH  25  27
ATOM     26  C   UNL     1       9.772  -5.670  -3.109  0.00  0.00    +0.048 C 
ATOM     27  C   UNL     1       8.444  -6.317  -3.504  0.00  0.00    +0.229 C 
ENDBRANCH  25  27
ENDBRANCH  23  25
ENDBRANCH  16  23
ENDBRANCH   1  19
TORSDOF 5
