REMARK  Name = ZINC23990034
REMARK  5 active torsions:
REMARK  status: ('A' for Active; 'I' for Inactive)
REMARK    1  A    between atoms: C_10  and  C_11
REMARK    2  A    between atoms: C_11  and  N_12
REMARK    3  A    between atoms: C_18  and  C_20
REMARK    4  A    between atoms: C_20  and  N_21
REMARK    5  A    between atoms: C_23  and  C_32
REMARK                            x       y       z     vdW  Elec       q    Type
REMARK                         _______ _______ _______ _____ _____    ______ ____
ROOT
ATOM      1  N   UNL     1      -0.678   3.002  -1.106  0.00  0.00    -0.295 NA
ATOM      2  C   UNL     1      -0.441   1.553  -1.150  0.00  0.00    +0.103 C 
ATOM      3  C   UNL     1       0.241   1.111   0.150  0.00  0.00    +0.123 C 
ATOM      4  N   UNL     1      -0.568   1.575   1.287  0.00  0.00    -0.298 N 
ATOM      5  C   UNL     1      -0.966   2.991   1.325  0.00  0.00    +0.123 C 
ATOM      6  C   UNL     1      -1.600   3.359  -0.020  0.00  0.00    +0.103 C 
ATOM      7  C   UNL     1      -0.938   0.725   2.265  0.00  0.00    +0.233 C 
ATOM      8  O   UNL     1      -0.604  -0.440   2.215  0.00  0.00    -0.274 OA
ENDROOT
BRANCH   1   9
ATOM      9  C   UNL     1      -1.172   3.493  -2.400  0.00  0.00    +0.120 C 
BRANCH   9  19
ATOM     10  C   UNL     1       2.353   7.142  -3.079  0.00  0.00    +0.001 A 
ATOM     11  C   UNL     1       2.371   5.748  -3.084  0.00  0.00    +0.001 A 
ATOM     12  C   UNL     1       1.235   5.032  -2.864  0.00  0.00    +0.009 A 
ATOM     13  C   UNL     1       0.023   5.705  -2.628  0.00  0.00    -0.013 A 
ATOM     14  C   UNL     1       0.005   7.122  -2.623  0.00  0.00    -0.018 A 
ATOM     15  C   UNL     1       1.199   7.827  -2.854  0.00  0.00    +0.008 A 
ATOM     16  C   UNL     1      -1.205   7.795  -2.388  0.00  0.00    +0.008 A 
ATOM     17  C   UNL     1      -2.342   7.079  -2.168  0.00  0.00    +0.001 A 
ATOM     18  C   UNL     1      -2.326   5.686  -2.180  0.00  0.00    +0.005 A 
ATOM     19  C   UNL     1      -1.170   5.000  -2.398  0.00  0.00    -0.026 A 
ENDBRANCH   9  19
ENDBRANCH   1   9
BRANCH   7  20
ATOM     20  C   UNL     1      -1.766   1.222   3.422  0.00  0.00    +0.201 C 
BRANCH  20  21
ATOM     21  N   UNL     1      -2.135   0.089   4.282  0.00  0.00    -0.314 N 
ATOM     22  C   UNL     1      -0.962  -0.438   4.989  0.00  0.00    +0.160 C 
ATOM     23  C   UNL     1      -1.384  -1.689   5.771  0.00  0.00    +0.275 C 
ATOM     24  O   UNL     1      -1.809  -2.676   4.826  0.00  0.00    -0.476 OA
ATOM     25  C   UNL     1      -2.633  -2.253   3.828  0.00  0.00    +0.143 A 
ATOM     26  C   UNL     1      -2.798  -0.901   3.550  0.00  0.00    +0.073 A 
ATOM     27  C   UNL     1      -3.645  -0.511   2.518  0.00  0.00    +0.027 A 
ATOM     28  C   UNL     1      -4.319  -1.461   1.776  0.00  0.00    +0.002 A 
ATOM     29  C   UNL     1      -4.156  -2.804   2.056  0.00  0.00    +0.004 A 
ATOM     30  C   UNL     1      -3.315  -3.200   3.079  0.00  0.00    +0.047 A 
BRANCH  23  31
ATOM     31  C   UNL     1      -0.215  -2.212   6.566  0.00  0.00    +0.253 C 
ATOM     32  O   UNL     1       0.258  -3.298   6.305  0.00  0.00    -0.272 OA
ATOM     33  N   UNL     1       0.305  -1.473   7.565  0.00  0.00    -0.326 N 
ATOM     34  H   UNL     1       1.158  -1.854   8.145  0.00  0.00    +0.145 HD
ATOM     35  H   UNL     1      -0.124  -0.487   7.801  0.00  0.00    +0.145 HD
ENDBRANCH  23  31
ENDBRANCH  20  21
ENDBRANCH   7  20
TORSDOF 5
