REMARK  Name = ZINC35323456
REMARK  5 active torsions:
REMARK  status: ('A' for Active; 'I' for Inactive)
REMARK    1  A    between atoms: C_1  and  C_2
REMARK    2  A    between atoms: C_5  and  S_8
REMARK    3  A    between atoms: S_8  and  N_11
REMARK    4  A    between atoms: C_12  and  C_20
REMARK    5  A    between atoms: C_20  and  O_27
REMARK                            x       y       z     vdW  Elec       q    Type
REMARK                         _______ _______ _______ _____ _____    ______ ____
ROOT
ATOM      1  N   UNL     1       1.690  -4.845   0.083  0.00  0.00    -0.210 N 
ATOM      2  C   UNL     1       2.514  -5.048  -0.988  0.00  0.00    +0.083 A 
ATOM      3  C   UNL     1       3.727  -5.447  -0.566  0.00  0.00    +0.037 A 
ATOM      4  C   UNL     1       3.672  -5.503   0.892  0.00  0.00    +0.005 A 
ATOM      5  C   UNL     1       2.366  -5.109   1.251  0.00  0.00    +0.091 A 
ATOM      6  C   UNL     1       2.034  -5.066   2.598  0.00  0.00    +0.138 A 
ATOM      7  N   UNL     1       2.926  -5.386   3.513  0.00  0.00    -0.261 NA
ATOM      8  C   UNL     1       4.158  -5.757   3.207  0.00  0.00    +0.111 A 
ATOM      9  C   UNL     1       4.574  -5.836   1.907  0.00  0.00    +0.030 A 
ENDROOT
BRANCH   2  10
ATOM     10  C   UNL     1       2.122  -4.854  -2.430  0.00  0.00    +0.145 C 
ATOM     11  C   UNL     1       1.768  -3.416  -2.644  0.00  0.00    +0.021 C 
ATOM     12  C   UNL     1       2.570  -2.558  -3.261  0.00  0.00    +0.050 C 
ATOM     13  C   UNL     1       3.869  -3.025  -3.779  0.00  0.00    +0.179 C 
ATOM     14  O   UNL     1       4.748  -2.237  -4.075  0.00  0.00    -0.288 OA
ATOM     15  C   UNL     1       4.067  -4.479  -3.926  0.00  0.00    +0.050 C 
ATOM     16  C   UNL     1       3.248  -5.314  -3.302  0.00  0.00    +0.021 C 
BRANCH  10  17
ATOM     17  O   UNL     1       0.971  -5.654  -2.705  0.00  0.00    -0.375 OA
ATOM     18  H   UNL     1       0.653  -5.586  -3.616  0.00  0.00    +0.211 HD
ENDBRANCH  10  17
ENDBRANCH   2  10
BRANCH   1  19
ATOM     19  S   UNL     1       0.113  -4.347  -0.012  0.00  0.00    +0.085 S 
ATOM     20  O   UNL     1      -0.247  -4.399  -1.385  0.00  0.00    -0.148 OA
ATOM     21  O   UNL     1       0.016  -3.156   0.757  0.00  0.00    -0.148 OA
BRANCH  19  26
ATOM     22  C   UNL     1      -3.241  -8.496   2.806  0.00  0.00    +0.044 C 
ATOM     23  C   UNL     1      -2.403  -7.460   2.102  0.00  0.00    -0.050 A 
ATOM     24  C   UNL     1      -2.016  -6.314   2.771  0.00  0.00    +0.005 A 
ATOM     25  C   UNL     1      -1.248  -5.363   2.125  0.00  0.00    +0.029 A 
ATOM     26  C   UNL     1      -0.866  -5.559   0.811  0.00  0.00    +0.111 A 
ATOM     27  C   UNL     1      -1.252  -6.706   0.143  0.00  0.00    +0.029 A 
ATOM     28  C   UNL     1      -2.017  -7.659   0.790  0.00  0.00    +0.005 A 
ENDBRANCH  19  26
ENDBRANCH   1  19
TORSDOF 4
