REMARK  Name = ZINC04122630
REMARK  7 active torsions:
REMARK  status: ('A' for Active; 'I' for Inactive)
REMARK    1  A    between atoms: C_1  and  C_2
REMARK    2  A    between atoms: C_2  and  C_3
REMARK    3  A    between atoms: C_3  and  C_4
REMARK    4  A    between atoms: C_3  and  C_5
REMARK    5  A    between atoms: C_3  and  C_6
REMARK    6  A    between atoms: C_15  and  O_26
REMARK    7  A    between atoms: C_17  and  C_20
REMARK                            x       y       z     vdW  Elec       q    Type
REMARK                         _______ _______ _______ _____ _____    ______ ____
ROOT
ATOM      1  C   UNL     1       0.739  -2.027  -1.265  0.00  0.00    -0.000 C 
ATOM      2  C   UNL     1       1.450  -2.524  -2.527  0.00  0.00    +0.009 C 
ATOM      3  C   UNL     1       1.695  -4.031  -2.428  0.00  0.00    +0.037 C 
ATOM      4  C   UNL     1       0.379  -4.719  -2.093  0.00  0.00    -0.023 A 
ATOM      5  C   UNL     1      -0.661  -4.025  -1.577  0.00  0.00    -0.004 A 
ATOM      6  S   UNL     1      -1.944  -5.228  -1.358  0.00  0.00    -0.078 S 
ATOM      7  C   UNL     1      -1.156  -6.574  -1.921  0.00  0.00    +0.080 A 
ATOM      8  C   UNL     1       0.121  -6.134  -2.287  0.00  0.00    +0.068 A 
ATOM      9  C   UNL     1       1.068  -7.147  -2.821  0.00  0.00    +0.220 C 
ATOM     10  N   UNL     1       0.584  -8.315  -3.149  0.00  0.00    -0.223 NA
ATOM     11  C   UNL     1      -0.828  -8.670  -3.088  0.00  0.00    +0.225 C 
ATOM     12  N   UNL     1      -1.542  -7.887  -2.063  0.00  0.00    -0.313 N 
ATOM     13  C   UNL     1      -0.701  -2.561  -1.261  0.00  0.00    +0.046 C 
ATOM     14  H   UNL     1      -2.245  -8.276  -1.519  0.00  0.00    +0.149 HD
ENDROOT
BRANCH  11  15
ATOM     15  C   UNL     1      -1.460  -8.410  -4.431  0.00  0.00    +0.013 A 
ATOM     16  C   UNL     1      -0.710  -8.523  -5.593  0.00  0.00    +0.010 A 
ATOM     17  C   UNL     1      -1.333  -8.275  -6.806  0.00  0.00    +0.020 A 
ATOM     18  C   UNL     1      -2.670  -7.925  -6.818  0.00  0.00    +0.111 A 
ATOM     19  N   UNL     1      -3.352  -7.827  -5.694  0.00  0.00    -0.263 NA
ATOM     20  C   UNL     1      -2.794  -8.062  -4.522  0.00  0.00    +0.118 A 
ENDBRANCH  11  15
BRANCH   1  21
ATOM     21  C   UNL     1       0.718  -0.497  -1.257  0.00  0.00    -0.032 C 
ATOM     22  C   UNL     1      -0.022   0.009  -2.496  0.00  0.00    +0.011 C 
ATOM     23  C   UNL     1       2.154   0.032  -1.268  0.00  0.00    +0.011 C 
BRANCH  21  25
ATOM     24  C   UNL     1      -0.019   1.526   0.010  0.00  0.00    +0.004 C 
ATOM     25  C   UNL     1       0.002  -0.004   0.002  0.00  0.00    +0.003 C 
ENDBRANCH  21  25
ENDBRANCH   1  21
BRANCH   9  26
ATOM     26  O   UNL     1       2.385  -6.870  -2.962  0.00  0.00    -0.492 OA
ATOM     27  H   UNL     1       2.905  -7.603  -3.318  0.00  0.00    +0.294 HD
ENDBRANCH   9  26
TORSDOF 4
