REMARK  Name = ZINC06733522
REMARK  7 active torsions:
REMARK  status: ('A' for Active; 'I' for Inactive)
REMARK    1  A    between atoms: C_1  and  C_2
REMARK    2  A    between atoms: C_2  and  C_3
REMARK    3  A    between atoms: C_2  and  C_4
REMARK    4  A    between atoms: C_11  and  N_28
REMARK    5  A    between atoms: C_12  and  C_26
REMARK    6  A    between atoms: N_20  and  C_23
REMARK    7  A    between atoms: C_23  and  C_24
REMARK                            x       y       z     vdW  Elec       q    Type
REMARK                         _______ _______ _______ _____ _____    ______ ____
ROOT
ATOM      1  C   UNL     1       0.731  -0.503   1.223  0.00  0.00    +0.047 A 
ATOM      2  C   UNL     1       0.223  -1.294   2.180  0.00  0.00    +0.061 A 
ATOM      3  C   UNL     1       1.234  -1.526   3.140  0.00  0.00    +0.245 A 
ATOM      4  N   UNL     1       2.303  -0.889   2.759  0.00  0.00    -0.135 NA
ATOM      5  N   UNL     1       2.017  -0.239   1.548  0.00  0.00    -0.278 N 
ATOM      6  H   UNL     1       2.634   0.306   1.035  0.00  0.00    +0.189 HD
ATOM      7  O   UNL     1       1.020  -2.299   4.238  0.00  0.00    -0.421 OA
ATOM      8  C   UNL     1      -0.095  -3.057   4.264  0.00  0.00    +0.201 C 
ATOM      9  C   UNL     1      -1.131  -2.921   3.408  0.00  0.00    +0.110 C 
ATOM     10  C   UNL     1      -1.151  -1.887   2.316  0.00  0.00    +0.145 C 
ATOM     11  C   UNL     1      -2.175  -0.831   2.583  0.00  0.00    -0.001 A 
ATOM     12  C   UNL     1      -2.316   0.066   3.620  0.00  0.00    +0.007 A 
ATOM     13  C   UNL     1      -3.402   0.932   3.563  0.00  0.00    +0.000 A 
ATOM     14  C   UNL     1      -4.298   0.892   2.514  0.00  0.00    +0.002 A 
ATOM     15  C   UNL     1      -4.163  -0.007   1.468  0.00  0.00    +0.024 A 
ATOM     16  C   UNL     1      -3.077  -0.882   1.513  0.00  0.00    +0.041 A 
ATOM     17  N   UNL     1      -2.706  -1.869   0.618  0.00  0.00    -0.266 N 
ATOM     18  C   UNL     1      -1.586  -2.513   1.009  0.00  0.00    +0.241 C 
ATOM     19  O   UNL     1      -1.033  -3.421   0.424  0.00  0.00    -0.274 OA
ENDROOT
BRANCH   1  21
ATOM     20  C   UNL     1      -0.019   1.526   0.010  0.00  0.00    +0.014 C 
ATOM     21  C   UNL     1       0.002  -0.004   0.002  0.00  0.00    +0.031 C 
ATOM     22  C   UNL     1       0.718  -0.497  -1.257  0.00  0.00    +0.014 C 
ENDBRANCH   1  21
BRANCH   8  23
ATOM     23  N   UNL     1      -0.182  -4.032   5.226  0.00  0.00    -0.328 N 
ATOM     24  H   UNL     1       0.543  -4.158   5.857  0.00  0.00    +0.145 HD
ATOM     25  H   UNL     1      -0.970  -4.596   5.274  0.00  0.00    +0.145 HD
ENDBRANCH   8  23
BRANCH   9  26
ATOM     26  C   UNL     1      -2.256  -3.796   3.546  0.00  0.00    +0.102 C 
ATOM     27  N   UNL     1      -3.148  -4.490   3.656  0.00  0.00    -0.191 NA
ENDBRANCH   9  26
BRANCH  17  28
ATOM     28  C   UNL     1      -3.441  -2.180  -0.611  0.00  0.00    +0.140 C 
BRANCH  28  29
ATOM     29  C   UNL     1      -2.904  -1.343  -1.743  0.00  0.00    -0.015 C 
ATOM     30  C   UNL     1      -2.483  -1.921  -2.841  0.00  0.00    +0.005 C 
ENDBRANCH  28  29
ENDBRANCH  17  28
TORSDOF 5
