REMARK  Name = ZINC09410724
REMARK  9 active torsions:
REMARK  status: ('A' for Active; 'I' for Inactive)
REMARK    1  A    between atoms: C_1  and  C_2
REMARK    2  A    between atoms: C_2  and  O_3
REMARK    3  A    between atoms: O_3  and  C_4
REMARK    4  A    between atoms: C_4  and  C_6
REMARK    5  A    between atoms: C_6  and  N_7
REMARK    6  A    between atoms: N_15  and  C_18
REMARK    7  A    between atoms: C_18  and  C_19
REMARK    8  A    between atoms: C_19  and  N_61
REMARK    9  A    between atoms: C_27  and  C_30
REMARK                            x       y       z     vdW  Elec       q    Type
REMARK                         _______ _______ _______ _____ _____    ______ ____
ROOT
ATOM      1  N   UNL     1       1.461  -3.825  -2.510  0.00  0.00    -0.249 N 
ATOM      2  C   UNL     1       0.429  -4.488  -3.062  0.00  0.00    +0.266 A 
ATOM      3  O   UNL     1      -0.476  -3.880  -3.602  0.00  0.00    -0.267 OA
ATOM      4  C   UNL     1       0.409  -5.966  -3.004  0.00  0.00    +0.074 A 
ATOM      5  C   UNL     1      -0.601  -6.885  -3.532  0.00  0.00    -0.023 A 
ATOM      6  C   UNL     1      -0.363  -8.197  -3.336  0.00  0.00    -0.004 A 
ATOM      7  S   UNL     1       1.177  -8.253  -2.463  0.00  0.00    -0.075 S 
ATOM      8  C   UNL     1       1.495  -6.562  -2.363  0.00  0.00    +0.097 A 
ATOM      9  N   UNL     1       2.506  -5.811  -1.827  0.00  0.00    -0.289 N 
ATOM     10  C   UNL     1       2.478  -4.466  -1.911  0.00  0.00    +0.333 A 
ATOM     11  O   UNL     1       3.389  -3.820  -1.432  0.00  0.00    -0.246 OA
ATOM     12  C   UNL     1      -1.222  -9.346  -3.767  0.00  0.00    +0.043 C 
ATOM     13  C   UNL     1      -2.236  -8.831  -4.798  0.00  0.00    +0.009 C 
ATOM     14  C   UNL     1      -2.879  -7.549  -4.260  0.00  0.00    -0.009 C 
ATOM     15  C   UNL     1      -1.854  -6.413  -4.261  0.00  0.00    +0.040 C 
ATOM     16  C   UNL     1      -4.064  -7.164  -5.147  0.00  0.00    +0.008 C 
ENDROOT
BRANCH   1  17
ATOM     17  C   UNL     1       1.479  -2.361  -2.569  0.00  0.00    +0.250 C 
BRANCH  17  18
ATOM     18  C   UNL     1       0.786  -1.801  -1.353  0.00  0.00    +0.327 C 
ATOM     19  O   UNL     1       0.325  -2.548  -0.523  0.00  0.00    -0.249 OA
BRANCH  18  20
ATOM     20  O   UNL     1       0.682  -0.472  -1.193  0.00  0.00    -0.464 OA
BRANCH  20  22
ATOM     21  C   UNL     1      -0.019   1.526   0.010  0.00  0.00    +0.048 C 
ATOM     22  C   UNL     1       0.002  -0.004   0.002  0.00  0.00    +0.229 C 
ENDBRANCH  20  22
ENDBRANCH  18  20
ENDBRANCH  17  18
ENDBRANCH   1  17
BRANCH   9  23
ATOM     23  C   UNL     1       3.630  -6.474  -1.162  0.00  0.00    +0.109 C 
BRANCH  23  24
ATOM     24  C   UNL     1       4.729  -6.763  -2.186  0.00  0.00    -0.057 C 
BRANCH  24  30
ATOM     25  C   UNL     1       6.500  -6.530  -0.551  0.00  0.00    -0.079 C 
ATOM     26  C   UNL     1       7.572  -7.298   0.226  0.00  0.00    -0.019 C 
ATOM     27  C   UNL     1       8.610  -7.849  -0.755  0.00  0.00    -0.004 C 
ATOM     28  C   UNL     1       7.907  -8.743  -1.780  0.00  0.00    -0.019 C 
ATOM     29  C   UNL     1       6.825  -7.933  -2.499  0.00  0.00    -0.079 C 
ATOM     30  N   UNL     1       5.845  -7.451  -1.503  0.00  0.00    +0.381 N 
ATOM     31  H   UNL     1       5.473  -8.256  -0.986  0.00  0.00    -0.082 HD
ENDBRANCH  24  30
ENDBRANCH  23  24
ENDBRANCH   9  23
TORSDOF 7
