REMARK  Name = ZINC66174640
REMARK  4 active torsions:
REMARK  status: ('A' for Active; 'I' for Inactive)
REMARK    1  A    between atoms: C_1  and  C_2
REMARK    2  A    between atoms: C_2  and  C_4
REMARK    3  A    between atoms: C_2  and  N_11
REMARK    4  A    between atoms: C_17  and  N_20
REMARK                            x       y       z     vdW  Elec       q    Type
REMARK                         _______ _______ _______ _____ _____    ______ ____
ROOT
ATOM      1  N   UNL     1       0.711  -0.489   1.189  0.00  0.00    -0.293 N 
ATOM      2  C   UNL     1       2.054  -0.600   1.174  0.00  0.00    +0.303 C 
ATOM      3  O   UNL     1       2.677  -0.297   0.175  0.00  0.00    -0.253 OA
ATOM      4  N   UNL     1       2.706  -1.046   2.266  0.00  0.00    -0.287 N 
ATOM      5  C   UNL     1       2.078  -1.452   3.532  0.00  0.00    +0.108 C 
ATOM      6  C   UNL     1       3.213  -1.863   4.494  0.00  0.00    +0.005 C 
ATOM      7  C   UNL     1       4.448  -1.129   3.909  0.00  0.00    -0.049 C 
ATOM      8  C   UNL     1       4.165  -1.215   2.386  0.00  0.00    +0.094 C 
ATOM      9  H   UNL     1       0.213  -0.731   1.986  0.00  0.00    +0.151 HD
ENDROOT
BRANCH   7  10
ATOM     10  N   UNL     1       5.691  -1.833   4.252  0.00  0.00    +0.383 N 
ATOM     11  C   UNL     1       6.865  -1.070   3.758  0.00  0.00    -0.078 C 
ATOM     12  C   UNL     1       8.024  -1.591   4.645  0.00  0.00    -0.020 C 
ATOM     13  C   UNL     1       7.350  -1.773   6.024  0.00  0.00    -0.020 C 
ATOM     14  C   UNL     1       5.846  -1.906   5.721  0.00  0.00    -0.078 C 
ATOM     15  H   UNL     1       5.686  -2.761   3.857  0.00  0.00    -0.081 HD
ENDBRANCH   7  10
BRANCH   1  17
ATOM     16  C   UNL     1      -0.019   1.526   0.010  0.00  0.00    +0.033 C 
ATOM     17  C   UNL     1       0.002  -0.004   0.002  0.00  0.00    +0.102 C 
BRANCH  17  18
ATOM     18  C   UNL     1      -1.412  -0.526   0.013  0.00  0.00    -0.027 A 
ATOM     19  C   UNL     1      -2.123  -0.571   1.198  0.00  0.00    +0.007 A 
ATOM     20  C   UNL     1      -3.419  -1.049   1.208  0.00  0.00    +0.020 A 
ATOM     21  C   UNL     1      -4.006  -1.483   0.032  0.00  0.00    +0.041 A 
ATOM     22  C   UNL     1      -3.294  -1.437  -1.153  0.00  0.00    +0.020 A 
ATOM     23  C   UNL     1      -1.999  -0.954  -1.163  0.00  0.00    +0.007 A 
ATOM     24 CL   UNL     1      -5.634  -2.084   0.045  0.00  0.00    -0.084 Cl
ENDBRANCH  17  18
ENDBRANCH   1  17
TORSDOF 3
