REMARK  Name = ZINC65497656
REMARK  6 active torsions:
REMARK  status: ('A' for Active; 'I' for Inactive)
REMARK    1  A    between atoms: C_1  and  C_2
REMARK    2  A    between atoms: C_5  and  S_8
REMARK    3  A    between atoms: S_8  and  C_9
REMARK    4  A    between atoms: C_11  and  N_16
REMARK    5  A    between atoms: N_19  and  C_22
REMARK    6  A    between atoms: C_22  and  C_23
REMARK                            x       y       z     vdW  Elec       q    Type
REMARK                         _______ _______ _______ _____ _____    ______ ____
ROOT
ATOM      1  C   UNL     1      -0.512  -4.740   2.038  0.00  0.00    +0.108 A 
ATOM      2  C   UNL     1      -0.188  -6.052   2.373  0.00  0.00    +0.079 A 
ATOM      3  C   UNL     1      -0.132  -6.397   3.720  0.00  0.00    +0.127 A 
ATOM      4  N   UNL     1      -0.388  -5.468   4.638  0.00  0.00    -0.200 NA
ATOM      5  C   UNL     1      -0.693  -4.229   4.282  0.00  0.00    +0.215 A 
ATOM      6  N   UNL     1      -0.751  -3.863   3.011  0.00  0.00    -0.208 NA
ATOM      7  N   UNL     1      -0.954  -3.291   5.266  0.00  0.00    -0.327 N 
ATOM      8  H   UNL     1      -0.911  -3.544   6.201  0.00  0.00    +0.145 HD
ATOM      9  H   UNL     1      -1.178  -2.380   5.019  0.00  0.00    +0.145 HD
ENDROOT
BRANCH   3  10
ATOM     10  N   UNL     1       0.187  -7.691   4.100  0.00  0.00    -0.313 N 
ATOM     11  C   UNL     1       0.043  -8.124   5.499  0.00  0.00    +0.122 C 
ATOM     12  C   UNL     1      -0.772  -9.421   5.526  0.00  0.00    +0.104 C 
ATOM     13  N   UNL     1      -0.149 -10.406   4.632  0.00  0.00    -0.292 NA
ATOM     14  C   UNL     1      -0.163  -9.945   3.238  0.00  0.00    +0.104 C 
ATOM     15  C   UNL     1       0.671  -8.671   3.116  0.00  0.00    +0.122 C 
BRANCH  13  16
ATOM     16  C   UNL     1      -0.798 -11.718   4.759  0.00  0.00    +0.156 C 
BRANCH  16  17
ATOM     17  C   UNL     1      -0.360 -12.373   6.043  0.00  0.00    +0.099 A 
ATOM     18  N   UNL     1       0.763 -12.117   6.695  0.00  0.00    -0.349 N 
ATOM     19  C   UNL     1       0.801 -12.897   7.795  0.00  0.00    +0.101 A 
ATOM     20  C   UNL     1      -0.326 -13.637   7.801  0.00  0.00    +0.101 A 
ATOM     21  N   UNL     1      -1.038 -13.295   6.708  0.00  0.00    -0.349 N 
ATOM     22  H   UNL     1      -1.898 -13.663   6.452  0.00  0.00    +0.166 HD
ATOM     23  H   UNL     1       1.442 -11.477   6.427  0.00  0.00    +0.166 HD
ENDBRANCH  16  17
ENDBRANCH  13  16
ENDBRANCH   3  10
BRANCH   1  24
ATOM     24  S   UNL     1      -0.598  -4.246   0.349  0.00  0.00    -0.070 S 
BRANCH  24  29
ATOM     25  C   UNL     1      -1.538   1.711   0.616  0.00  0.00    +0.044 C 
ATOM     26  C   UNL     1      -1.303   0.224   0.549  0.00  0.00    -0.050 A 
ATOM     27  C   UNL     1      -0.015  -0.275   0.615  0.00  0.00    +0.004 A 
ATOM     28  C   UNL     1       0.203  -1.637   0.554  0.00  0.00    +0.015 A 
ATOM     29  C   UNL     1      -0.873  -2.507   0.427  0.00  0.00    +0.014 A 
ATOM     30  C   UNL     1      -2.166  -2.002   0.362  0.00  0.00    +0.015 A 
ATOM     31  C   UNL     1      -2.377  -0.639   0.428  0.00  0.00    +0.004 A 
ENDBRANCH  24  29
ENDBRANCH   1  24
TORSDOF 5
