REMARK  Name = ZINC66289135
REMARK  5 active torsions:
REMARK  status: ('A' for Active; 'I' for Inactive)
REMARK    1  A    between atoms: C_2  and  C_3
REMARK    2  A    between atoms: C_3  and  N_4
REMARK    3  A    between atoms: C_5  and  C_7
REMARK    4  A    between atoms: C_12  and  N_13
REMARK    5  A    between atoms: C_14  and  C_16
REMARK                            x       y       z     vdW  Elec       q    Type
REMARK                         _______ _______ _______ _____ _____    ______ ____
ROOT
ATOM      1  N   UNL     1       2.082   6.005  -0.153  0.00  0.00    -0.281 N 
ATOM      2  C   UNL     1       2.265   7.325  -0.357  0.00  0.00    +0.254 C 
ATOM      3  O   UNL     1       3.382   7.759  -0.566  0.00  0.00    -0.270 OA
ATOM      4  H   UNL     1       1.185   5.649  -0.058  0.00  0.00    +0.155 HD
ENDROOT
BRANCH   2   5
ATOM      5  C   UNL     1       1.115   8.240  -0.326  0.00  0.00    +0.101 A 
ATOM      6  C   UNL     1       1.300   9.617  -0.418  0.00  0.00    +0.023 A 
ATOM      7  C   UNL     1       0.186  10.461  -0.387  0.00  0.00    -0.027 A 
ATOM      8  C   UNL     1      -1.062   9.937  -0.267  0.00  0.00    +0.022 A 
ATOM      9  N   UNL     1      -1.245   8.592  -0.178  0.00  0.00    -0.325 N 
ATOM     10  H   UNL     1      -2.145   8.242  -0.093  0.00  0.00    +0.169 HD
ATOM     11  C   UNL     1      -0.207   7.738  -0.208  0.00  0.00    +0.261 A 
ATOM     12  O   UNL     1      -0.401   6.537  -0.130  0.00  0.00    -0.267 OA
ATOM     13  C   UNL     1      -2.092  11.050  -0.257  0.00  0.00    +0.054 C 
ATOM     14  C   UNL     1      -1.294  12.334   0.053  0.00  0.00    +0.011 C 
ATOM     15  C   UNL     1       0.114  11.971  -0.468  0.00  0.00    +0.037 C 
ENDBRANCH   2   5
BRANCH   1  21
ATOM     16  C   UNL     1       3.161   4.051   0.788  0.00  0.00    +0.058 A 
ATOM     17  C   UNL     1       4.267   3.201   0.847  0.00  0.00    +0.015 A 
ATOM     18  C   UNL     1       5.370   3.451   0.059  0.00  0.00    +0.001 A 
ATOM     19  C   UNL     1       5.388   4.543  -0.793  0.00  0.00    +0.002 A 
ATOM     20  C   UNL     1       4.302   5.393  -0.863  0.00  0.00    +0.024 A 
ATOM     21  C   UNL     1       3.180   5.153  -0.080  0.00  0.00    +0.046 A 
BRANCH  16  23
ATOM     22  N   UNL     1       1.917   2.670   2.377  0.00  0.00    -0.300 N 
ATOM     23  C   UNL     1       1.977   3.789   1.628  0.00  0.00    +0.247 C 
ATOM     24  O   UNL     1       1.056   4.583   1.645  0.00  0.00    -0.270 OA
ATOM     25  H   UNL     1       2.652   2.037   2.363  0.00  0.00    +0.150 HD
BRANCH  22  26
ATOM     26  C   UNL     1       0.741   2.409   3.211  0.00  0.00    +0.193 C 
BRANCH  26  28
ATOM     27  C   UNL     1       1.060   0.117   4.493  0.00  0.00    +0.005 C 
ATOM     28  C   UNL     1       0.919   1.134   3.924  0.00  0.00    -0.087 C 
ENDBRANCH  26  28
ENDBRANCH  22  26
ENDBRANCH  16  23
ENDBRANCH   1  21
TORSDOF 5
