REMARK  Name = ZINC14478107
REMARK  2 active torsions:
REMARK  status: ('A' for Active; 'I' for Inactive)
REMARK    1  A    between atoms: C_4  and  N_24
REMARK    2  A    between atoms: C_5  and  C_7
REMARK                            x       y       z     vdW  Elec       q    Type
REMARK                         _______ _______ _______ _____ _____    ______ ____
ROOT
ATOM      1  C   UNL     1       1.192   2.038   0.241  0.00  0.00    +0.107 C 
ATOM      2  C   UNL     1      -0.281   1.753   0.452  0.00  0.00    +0.029 C 
ATOM      3  C   UNL     1      -0.982   2.427   1.637  0.00  0.00    +0.033 C 
ATOM      4  C   UNL     1      -2.433   2.530   1.077  0.00  0.00    -0.030 C 
ATOM      5  C   UNL     1      -2.412   2.559  -0.251  0.00  0.00    -0.023 C 
ATOM      6  C   UNL     1      -0.999   2.523  -0.701  0.00  0.00    +0.049 C 
ATOM      7  C   UNL     1      -0.597   1.868  -1.965  0.00  0.00    -0.017 A 
ATOM      8  C   UNL     1      -1.448   1.804  -3.050  0.00  0.00    +0.006 A 
ATOM      9  C   UNL     1      -1.035   1.219  -4.231  0.00  0.00    +0.003 A 
ATOM     10  C   UNL     1       0.241   0.692  -4.324  0.00  0.00    +0.040 A 
ATOM     11  C   UNL     1       1.095   0.745  -3.243  0.00  0.00    +0.144 A 
ATOM     12  C   UNL     1       0.689   1.329  -2.039  0.00  0.00    +0.067 A 
ATOM     13  N   UNL     1       1.599   1.331  -0.983  0.00  0.00    -0.334 N 
ATOM     14  F   UNL     1       2.337   0.226  -3.348  0.00  0.00    -0.204 F 
ATOM     15  H   UNL     1       1.911   0.394  -0.773  0.00  0.00    +0.147 HD
ENDROOT
BRANCH   1  20
ATOM     16  C   UNL     1       2.138   0.181   3.389  0.00  0.00    +0.000 A 
ATOM     17  C   UNL     1       3.444   0.597   3.573  0.00  0.00    +0.002 A 
ATOM     18  C   UNL     1       4.020   1.480   2.679  0.00  0.00    +0.033 A 
ATOM     19  C   UNL     1       3.293   1.942   1.598  0.00  0.00    +0.131 A 
ATOM     20  C   UNL     1       1.986   1.530   1.417  0.00  0.00    +0.003 A 
ATOM     21  C   UNL     1       1.409   0.647   2.311  0.00  0.00    +0.008 A 
BRANCH  19  22
ATOM     22  N   UNL     1       3.912   2.882   0.637  0.00  0.00    +0.057 N 
ATOM     23  O   UNL     1       5.022   3.334   0.856  0.00  0.00    -0.126 OA
ATOM     24  O   UNL     1       3.313   3.203  -0.373  0.00  0.00    -0.126 OA
ENDBRANCH  19  22
ENDBRANCH   1  20
TORSDOF 2
