REMARK  Name = ZINC59356336
REMARK  4 active torsions:
REMARK  status: ('A' for Active; 'I' for Inactive)
REMARK    1  A    between atoms: C_3  and  C_21
REMARK    2  A    between atoms: C_6  and  N_7
REMARK    3  A    between atoms: C_8  and  C_10
REMARK    4  A    between atoms: C_15  and  N_16
REMARK                            x       y       z     vdW  Elec       q    Type
REMARK                         _______ _______ _______ _____ _____    ______ ____
ROOT
ATOM      1  N   UNL     1      -1.147  -0.768   0.065  0.00  0.00    -0.281 N 
ATOM      2  C   UNL     1      -1.159  -2.109  -0.066  0.00  0.00    +0.251 C 
ATOM      3  O   UNL     1      -0.112  -2.727  -0.084  0.00  0.00    -0.270 OA
ATOM      4  H   UNL     1      -1.982  -0.281   0.141  0.00  0.00    +0.155 HD
ENDROOT
BRANCH   1  10
ATOM      5  C   UNL     1       0.161   1.181  -0.490  0.00  0.00    +0.024 A 
ATOM      6  C   UNL     1       1.357   1.863  -0.467  0.00  0.00    +0.022 A 
ATOM      7  C   UNL     1       2.477   1.288   0.141  0.00  0.00    +0.070 A 
ATOM      8  C   UNL     1       2.378   0.020   0.725  0.00  0.00    +0.060 A 
ATOM      9  C   UNL     1       1.177  -0.656   0.697  0.00  0.00    +0.044 A 
ATOM     10  C   UNL     1       0.066  -0.080   0.091  0.00  0.00    +0.035 A 
ATOM     11 CL   UNL     1       3.764  -0.700   1.481  0.00  0.00    -0.082 Cl
BRANCH   7  12
ATOM     12  C   UNL     1       3.722   1.995   0.167  0.00  0.00    +0.101 C 
ATOM     13  N   UNL     1       4.709   2.556   0.187  0.00  0.00    -0.191 NA
ENDBRANCH   7  12
ENDBRANCH   1  10
BRANCH   2  14
ATOM     14  C   UNL     1      -2.444  -2.829  -0.186  0.00  0.00    +0.070 A 
ATOM     15  C   UNL     1      -3.432  -2.667   0.787  0.00  0.00    +0.053 A 
ATOM     16  C   UNL     1      -4.631  -3.343   0.668  0.00  0.00    +0.124 A 
ATOM     17  C   UNL     1      -4.853  -4.179  -0.415  0.00  0.00    +0.040 A 
ATOM     18  C   UNL     1      -3.877  -4.343  -1.381  0.00  0.00    +0.036 A 
ATOM     19  C   UNL     1      -2.677  -3.668  -1.276  0.00  0.00    +0.138 A 
ATOM     20  F   UNL     1      -5.588  -3.188   1.608  0.00  0.00    -0.205 F 
BRANCH  19  21
ATOM     21  N   UNL     1      -1.637  -3.841  -2.315  0.00  0.00    +0.057 N 
ATOM     22  O   UNL     1      -1.790  -4.655  -3.195  0.00  0.00    -0.126 OA
ATOM     23  O   UNL     1      -0.634  -3.166  -2.284  0.00  0.00    -0.126 OA
ENDBRANCH  19  21
ENDBRANCH   2  14
TORSDOF 4
