REMARK  Name = ZINC21740279
REMARK  6 active torsions:
REMARK  status: ('A' for Active; 'I' for Inactive)
REMARK    1  A    between atoms: C_1  and  C_2
REMARK    2  A    between atoms: C_2  and  C_21
REMARK    3  A    between atoms: N_5  and  C_9
REMARK    4  A    between atoms: C_9  and  C_10
REMARK    5  A    between atoms: N_12  and  C_13
REMARK    6  A    between atoms: C_14  and  C_18
REMARK                            x       y       z     vdW  Elec       q    Type
REMARK                         _______ _______ _______ _____ _____    ______ ____
ROOT
ATOM      1  C   UNL     1       2.877   4.521  -1.434  0.00  0.00    +0.047 C 
ATOM      2  C   UNL     1       2.448   4.209   0.001  0.00  0.00    +0.135 C 
ATOM      3  C   UNL     1       2.314   5.484   0.810  0.00  0.00    +0.251 C 
ATOM      4  O   UNL     1       1.560   6.409   0.600  0.00  0.00    -0.272 OA
ATOM      5  N   UNL     1       3.210   5.375   1.811  0.00  0.00    -0.215 N 
ATOM      6  C   UNL     1       3.884   4.221   1.747  0.00  0.00    +0.310 C 
ATOM      7  O   UNL     1       4.745   3.896   2.542  0.00  0.00    -0.252 OA
ATOM      8  N   UNL     1       3.502   3.460   0.706  0.00  0.00    -0.281 N 
ATOM      9  H   UNL     1       3.817   2.473   0.336  0.00  0.00    +0.152 HD
ENDROOT
BRANCH   2  10
ATOM     10  C   UNL     1       1.153   3.438   0.010  0.00  0.00    -0.013 A 
ATOM     11  C   UNL     1      -0.053   4.113   0.025  0.00  0.00    +0.009 A 
ATOM     12  C   UNL     1      -1.242   3.408   0.032  0.00  0.00    +0.041 A 
ATOM     13  C   UNL     1      -1.226   2.024   0.019  0.00  0.00    +0.158 A 
ATOM     14  C   UNL     1      -0.016   1.347   0.009  0.00  0.00    +0.159 A 
ATOM     15  C   UNL     1       1.172   2.056   0.002  0.00  0.00    +0.047 A 
ATOM     16  F   UNL     1       0.002  -0.004   0.002  0.00  0.00    -0.202 F 
ATOM     17  F   UNL     1      -2.387   1.335   0.021  0.00  0.00    -0.202 F 
ENDBRANCH   2  10
BRANCH   5  18
ATOM     18  C   UNL     1       3.421   6.395   2.841  0.00  0.00    +0.214 C 
BRANCH  18  19
ATOM     19  C   UNL     1       4.479   7.364   2.380  0.00  0.00    +0.236 C 
ATOM     20  O   UNL     1       5.005   7.217   1.297  0.00  0.00    -0.274 OA
ATOM     21  N   UNL     1       4.840   8.394   3.170  0.00  0.00    -0.278 N 
ATOM     22  H   UNL     1       4.363   8.527   4.152  0.00  0.00    +0.155 HD
BRANCH  21  23
ATOM     23  C   UNL     1       5.813   9.286   2.745  0.00  0.00    +0.084 A 
ATOM     24  C   UNL     1       6.311  10.401   3.409  0.00  0.00    +0.065 A 
ATOM     25  C   UNL     1       7.335  11.158   2.728  0.00  0.00    +0.022 A 
ATOM     26  C   UNL     1       7.710  10.727   1.511  0.00  0.00    +0.048 A 
ATOM     27  S   UNL     1       6.697   9.285   1.256  0.00  0.00    -0.081 S 
BRANCH  24  28
ATOM     28  C   UNL     1       5.823  10.788   4.736  0.00  0.00    +0.244 C 
ATOM     29  O   UNL     1       4.961  10.126   5.284  0.00  0.00    -0.270 OA
ATOM     30  N   UNL     1       6.329  11.876   5.350  0.00  0.00    -0.325 N 
ATOM     31  H   UNL     1       5.963  12.166   6.346  0.00  0.00    +0.145 HD
ATOM     32  H   UNL     1       7.109  12.474   4.854  0.00  0.00    +0.145 HD
ENDBRANCH  24  28
ENDBRANCH  21  23
ENDBRANCH  18  19
ENDBRANCH   5  18
TORSDOF 5
