REMARK  Name = ZINC54729020
REMARK  7 active torsions:
REMARK  status: ('A' for Active; 'I' for Inactive)
REMARK    1  A    between atoms: C_1  and  C_2
REMARK    2  A    between atoms: C_5  and  C_7
REMARK    3  A    between atoms: C_7  and  C_9
REMARK    4  A    between atoms: C_7  and  N_10
REMARK    5  A    between atoms: C_19  and  C_21
REMARK    6  A    between atoms: C_23  and  C_27
REMARK    7  A    between atoms: C_25  and  C_26
REMARK                            x       y       z     vdW  Elec       q    Type
REMARK                         _______ _______ _______ _____ _____    ______ ____
ROOT
ATOM      1  N   UNL     1       1.337  -4.170  -4.909  0.00  0.00    -0.292 N 
ATOM      2  C   UNL     1       1.897  -5.372  -4.664  0.00  0.00    +0.303 C 
ATOM      3  O   UNL     1       1.203  -6.305  -4.309  0.00  0.00    -0.253 OA
ATOM      4  N   UNL     1       3.226  -5.539  -4.812  0.00  0.00    -0.283 N 
ATOM      5  C   UNL     1       4.094  -4.394  -5.122  0.00  0.00    +0.128 C 
ATOM      6  C   UNL     1       5.198  -4.314  -4.061  0.00  0.00    +0.127 C 
ATOM      7  N   UNL     1       5.806  -5.644  -3.914  0.00  0.00    -0.294 N 
ATOM      8  C   UNL     1       4.938  -6.789  -3.604  0.00  0.00    +0.127 C 
ATOM      9  C   UNL     1       3.834  -6.868  -4.660  0.00  0.00    +0.128 C 
ATOM     10  C   UNL     1       7.135  -5.811  -4.062  0.00  0.00    +0.250 C 
ATOM     11  O   UNL     1       7.614  -6.928  -4.033  0.00  0.00    -0.270 OA
ATOM     12  H   UNL     1       1.898  -3.408  -5.122  0.00  0.00    +0.151 HD
ENDROOT
BRANCH  10  13
ATOM     13  C   UNL     1       8.007  -4.639  -4.259  0.00  0.00    +0.078 A 
ATOM     14  C   UNL     1       7.870  -3.315  -3.636  0.00  0.00    +0.057 A 
ATOM     15  C   UNL     1       8.886  -2.578  -4.110  0.00  0.00    +0.103 A 
ATOM     16  O   UNL     1       9.616  -3.325  -4.953  0.00  0.00    -0.464 OA
ATOM     17  C   UNL     1       9.114  -4.559  -5.053  0.00  0.00    +0.114 A 
ATOM     18  C   UNL     1       9.672  -5.673  -5.901  0.00  0.00    +0.087 C 
ATOM     19  C   UNL     1       9.163  -1.140  -3.754  0.00  0.00    +0.086 C 
ENDBRANCH  10  13
BRANCH   1  20
ATOM     20  C   UNL     1      -0.119  -4.016  -4.854  0.00  0.00    +0.108 C 
ATOM     21  C   UNL     1      -0.550  -3.758  -3.409  0.00  0.00    +0.033 C 
BRANCH  20  26
ATOM     22  C   UNL     1      -0.870   0.803  -7.736  0.00  0.00    +0.051 C 
ATOM     23  C   UNL     1      -0.891  -0.558  -7.089  0.00  0.00    -0.013 A 
ATOM     24  C   UNL     1      -1.787  -1.563  -7.244  0.00  0.00    +0.011 A 
ATOM     25  C   UNL     1      -1.604  -2.738  -6.540  0.00  0.00    +0.013 A 
ATOM     26  C   UNL     1      -0.533  -2.852  -5.717  0.00  0.00    +0.010 A 
ATOM     27  S   UNL     1       0.262  -1.267  -5.926  0.00  0.00    -0.097 S 
ENDBRANCH  20  26
ENDBRANCH   1  20
TORSDOF 3
