REMARK  Name = ZINC35957332
REMARK  7 active torsions:
REMARK  status: ('A' for Active; 'I' for Inactive)
REMARK    1  A    between atoms: C_1  and  C_2
REMARK    2  A    between atoms: C_2  and  C_3
REMARK    3  A    between atoms: C_3  and  C_5
REMARK    4  A    between atoms: C_3  and  N_6
REMARK    5  A    between atoms: C_19  and  C_22
REMARK    6  A    between atoms: N_27  and  C_30
REMARK    7  A    between atoms: C_30  and  C_31
REMARK                            x       y       z     vdW  Elec       q    Type
REMARK                         _______ _______ _______ _____ _____    ______ ____
ROOT
ATOM      1  N   UNL     1       3.398  -0.529  -2.089  0.00  0.00    -0.310 N 
ATOM      2  C   UNL     1       3.778  -0.762  -0.777  0.00  0.00    +0.068 A 
ATOM      3  C   UNL     1       4.360  -1.836  -0.121  0.00  0.00    +0.028 A 
ATOM      4  C   UNL     1       4.619  -1.756   1.232  0.00  0.00    +0.002 A 
ATOM      5  C   UNL     1       4.301  -0.608   1.941  0.00  0.00    +0.002 A 
ATOM      6  C   UNL     1       3.722   0.468   1.306  0.00  0.00    +0.028 A 
ATOM      7  C   UNL     1       3.453   0.403  -0.063  0.00  0.00    +0.065 A 
ATOM      8  N   UNL     1       2.904   1.274  -0.950  0.00  0.00    -0.327 N 
ATOM      9  C   UNL     1       2.876   0.731  -2.141  0.00  0.00    +0.177 A 
ATOM     10  N   UNL     1       2.388   1.340  -3.278  0.00  0.00    -0.302 N 
ATOM     11  C   UNL     1       0.953   1.301  -3.591  0.00  0.00    +0.108 C 
ATOM     12  C   UNL     1       0.458   2.733  -3.815  0.00  0.00    +0.020 C 
ATOM     13  C   UNL     1       1.318   3.404  -4.888  0.00  0.00    +0.016 C 
ATOM     14  C   UNL     1       2.772   3.464  -4.416  0.00  0.00    +0.092 C 
ATOM     15  C   UNL     1       3.292   2.045  -4.196  0.00  0.00    +0.120 C 
ATOM     16  H   UNL     1       2.585   2.165  -0.733  0.00  0.00    +0.169 HD
ENDROOT
BRANCH  14  17
ATOM     17  C   UNL     1       3.612   4.155  -5.459  0.00  0.00    +0.220 C 
ATOM     18  O   UNL     1       4.067   3.521  -6.388  0.00  0.00    -0.275 OA
ATOM     19  N   UNL     1       3.857   5.476  -5.360  0.00  0.00    -0.299 N 
ATOM     20  C   UNL     1       3.224   6.285  -4.307  0.00  0.00    +0.123 C 
ATOM     21  C   UNL     1       2.568   7.507  -4.960  0.00  0.00    +0.103 C 
ATOM     22  N   UNL     1       3.564   8.217  -5.774  0.00  0.00    -0.295 NA
ATOM     23  C   UNL     1       4.048   7.376  -6.877  0.00  0.00    +0.103 C 
ATOM     24  C   UNL     1       4.769   6.147  -6.299  0.00  0.00    +0.123 C 
BRANCH  22  25
ATOM     25  C   UNL     1       3.024   9.487  -6.277  0.00  0.00    +0.119 C 
BRANCH  25  26
ATOM     26  C   UNL     1       4.136  10.296  -6.894  0.00  0.00    -0.033 A 
ATOM     27  C   UNL     1       4.865  11.175  -6.115  0.00  0.00    +0.005 A 
ATOM     28  C   UNL     1       5.885  11.918  -6.680  0.00  0.00    +0.000 A 
ATOM     29  C   UNL     1       6.176  11.780  -8.025  0.00  0.00    +0.000 A 
ATOM     30  C   UNL     1       5.448  10.900  -8.803  0.00  0.00    +0.000 A 
ATOM     31  C   UNL     1       4.431  10.155  -8.237  0.00  0.00    +0.005 A 
ENDBRANCH  25  26
ENDBRANCH  22  25
ENDBRANCH  14  17
BRANCH   1  32
ATOM     32  C   UNL     1       3.537  -1.459  -3.212  0.00  0.00    +0.087 C 
ATOM     33  C   UNL     1       5.021  -1.720  -3.478  0.00  0.00    +0.031 C 
BRANCH  32  35
ATOM     34  C   UNL     1       1.337  -2.539  -2.728  0.00  0.00    +0.006 C 
ATOM     35  C   UNL     1       2.841  -2.779  -2.871  0.00  0.00    +0.021 C 
ENDBRANCH  32  35
ENDBRANCH   1  32
TORSDOF 5
