REMARK  Name = ZINC08622729
REMARK  5 active torsions:
REMARK  status: ('A' for Active; 'I' for Inactive)
REMARK    1  A    between atoms: C_1  and  C_2
REMARK    2  A    between atoms: C_2  and  C_20
REMARK    3  A    between atoms: N_5  and  C_9
REMARK    4  A    between atoms: C_9  and  C_10
REMARK    5  A    between atoms: N_12  and  C_13
REMARK                            x       y       z     vdW  Elec       q    Type
REMARK                         _______ _______ _______ _____ _____    ______ ____
ROOT
ATOM      1  C   UNL     1       0.042   1.506   0.078  0.00  0.00    +0.047 C 
ATOM      2  C   UNL     1       0.049  -0.023   0.056  0.00  0.00    +0.135 C 
ATOM      3  C   UNL     1      -1.362  -0.565   0.182  0.00  0.00    +0.251 C 
ATOM      4  O   UNL     1      -2.286  -0.384  -0.581  0.00  0.00    -0.272 OA
ATOM      5  N   UNL     1      -1.374  -1.289   1.318  0.00  0.00    -0.215 N 
ATOM      6  C   UNL     1      -0.180  -1.281   1.922  0.00  0.00    +0.310 C 
ATOM      7  O   UNL     1       0.056  -1.864   2.962  0.00  0.00    -0.252 OA
ATOM      8  N   UNL     1       0.731  -0.556   1.248  0.00  0.00    -0.281 N 
ATOM      9  H   UNL     1       1.657  -0.412   1.498  0.00  0.00    +0.152 HD
ENDROOT
BRANCH   2  10
ATOM     10  C   UNL     1       0.705  -0.531  -1.202  0.00  0.00    -0.015 A 
ATOM     11  C   UNL     1      -0.057  -0.769  -2.330  0.00  0.00    +0.007 A 
ATOM     12  C   UNL     1       0.544  -1.235  -3.485  0.00  0.00    +0.020 A 
ATOM     13  C   UNL     1       1.909  -1.463  -3.510  0.00  0.00    +0.041 A 
ATOM     14  C   UNL     1       2.670  -1.225  -2.380  0.00  0.00    +0.020 A 
ATOM     15  C   UNL     1       2.069  -0.753  -1.228  0.00  0.00    +0.007 A 
ATOM     16 CL   UNL     1       2.664  -2.048  -4.959  0.00  0.00    -0.084 Cl
ENDBRANCH   2  10
BRANCH   5  17
ATOM     17  C   UNL     1      -2.550  -1.998   1.830  0.00  0.00    +0.214 C 
BRANCH  17  18
ATOM     18  C   UNL     1      -2.575  -3.397   1.272  0.00  0.00    +0.235 C 
ATOM     19  O   UNL     1      -1.698  -3.767   0.521  0.00  0.00    -0.274 OA
ATOM     20  N   UNL     1      -3.573  -4.239   1.608  0.00  0.00    -0.282 N 
ATOM     21  H   UNL     1      -4.241  -3.965   2.256  0.00  0.00    +0.155 HD
BRANCH  20  22
ATOM     22  C   UNL     1      -3.646  -5.508   1.021  0.00  0.00    +0.071 A 
ATOM     23  C   UNL     1      -2.485  -6.204   0.696  0.00  0.00    +0.028 A 
ATOM     24  C   UNL     1      -2.609  -7.456   0.117  0.00  0.00    +0.022 A 
ATOM     25  C   UNL     1      -3.870  -7.971  -0.118  0.00  0.00    +0.112 A 
ATOM     26  N   UNL     1      -4.951  -7.286   0.201  0.00  0.00    -0.242 NA
ATOM     27  C   UNL     1      -4.879  -6.093   0.759  0.00  0.00    +0.150 A 
ATOM     28 CL   UNL     1      -6.338  -5.244   1.164  0.00  0.00    -0.060 Cl
ENDBRANCH  20  22
ENDBRANCH  17  18
ENDBRANCH   5  17
TORSDOF 4
