REMARK  Name = ZINC09777882
REMARK  7 active torsions:
REMARK  status: ('A' for Active; 'I' for Inactive)
REMARK    1  A    between atoms: C_1  and  C_2
REMARK    2  A    between atoms: C_3  and  S_8
REMARK    3  A    between atoms: C_4  and  C_7
REMARK    4  A    between atoms: S_8  and  N_11
REMARK    5  A    between atoms: C_16  and  N_17
REMARK    6  A    between atoms: C_16  and  N_59
REMARK    7  A    between atoms: C_23  and  C_26
REMARK                            x       y       z     vdW  Elec       q    Type
REMARK                         _______ _______ _______ _____ _____    ______ ____
ROOT
ATOM      1  N   UNL     1       2.278   3.183   2.634  0.00  0.00    -0.180 NA
ATOM      2  C   UNL     1       2.889   3.452   1.323  0.00  0.00    +0.091 C 
ATOM      3  C   UNL     1       2.323   4.778   0.790  0.00  0.00    -0.059 C 
ATOM      4  C   UNL     1       1.781   5.537   3.028  0.00  0.00    -0.059 C 
ATOM      5  C   UNL     1       2.319   4.245   3.651  0.00  0.00    +0.091 C 
ATOM      6  N   UNL     1       2.554   5.831   1.802  0.00  0.00    +0.392 N 
ATOM      7  H   UNL     1       3.553   5.854   2.036  0.00  0.00    -0.079 HD
ENDROOT
BRANCH   1   8
ATOM      8  S   UNL     1       1.568   1.723   2.958  0.00  0.00    +0.066 S 
ATOM      9  O   UNL     1       1.598   1.561   4.369  0.00  0.00    -0.153 OA
ATOM     10  O   UNL     1       2.155   0.780   2.070  0.00  0.00    -0.153 OA
BRANCH   8  13
ATOM     11  C   UNL     1      -0.013   1.086   0.008  0.00  0.00    +0.071 C 
ATOM     12  C   UNL     1      -0.718   1.572   1.248  0.00  0.00    +0.107 A 
ATOM     13  C   UNL     1      -0.129   1.855   2.501  0.00  0.00    +0.170 A 
ATOM     14  C   UNL     1      -1.171   2.253   3.270  0.00  0.00    +0.161 A 
ATOM     15  O   UNL     1      -2.261   2.193   2.493  0.00  0.00    -0.358 OA
ATOM     16  N   UNL     1      -1.990   1.819   1.375  0.00  0.00    -0.081 NA
ATOM     17  C   UNL     1      -1.115   2.679   4.715  0.00  0.00    +0.091 C 
ENDBRANCH   8  13
ENDBRANCH   1   8
BRANCH   6  18
ATOM     18  C   UNL     1       2.158   7.147   1.259  0.00  0.00    +0.043 C 
BRANCH  18  19
ATOM     19  N   UNL     1       3.260   7.667   0.446  0.00  0.00    -0.241 N 
ATOM     20  C   UNL     1       3.394   7.448  -0.878  0.00  0.00    +0.245 C 
ATOM     21  O   UNL     1       2.655   6.807  -1.594  0.00  0.00    -0.273 OA
ATOM     22  C   UNL     1       4.660   8.169  -1.281  0.00  0.00    +0.112 C 
ATOM     23  C   UNL     1       4.351   9.252  -2.308  0.00  0.00    +0.035 C 
ATOM     24  C   UNL     1       5.640   9.988  -2.681  0.00  0.00    +0.006 C 
ATOM     25  C   UNL     1       6.648   8.991  -3.255  0.00  0.00    -0.014 C 
ATOM     26  C   UNL     1       6.967   7.925  -2.205  0.00  0.00    +0.006 C 
ATOM     27  C   UNL     1       5.683   7.180  -1.829  0.00  0.00    +0.035 C 
ATOM     28  C   UNL     1       7.933   9.727  -3.639  0.00  0.00    +0.007 C 
ATOM     29  N   UNL     1       5.143   8.768  -0.030  0.00  0.00    -0.285 N 
ATOM     30  C   UNL     1       4.255   8.424   0.924  0.00  0.00    +0.308 C 
ATOM     31  O   UNL     1       4.350   8.761   2.088  0.00  0.00    -0.252 OA
ATOM     32  H   UNL     1       5.940   9.307   0.086  0.00  0.00    +0.151 HD
ENDBRANCH  18  19
ENDBRANCH   6  18
TORSDOF 4
