REMARK  Name = ZINC66397640
REMARK  10 active torsions:
REMARK  status: ('A' for Active; 'I' for Inactive)
REMARK    1  A    between atoms: C_1  and  C_2
REMARK    2  A    between atoms: C_4  and  C_13
REMARK    3  A    between atoms: C_7  and  N_8
REMARK    4  A    between atoms: N_15  and  C_16
REMARK    5  A    between atoms: C_16  and  C_18
REMARK    6  A    between atoms: C_16  and  C_20
REMARK    7  A    between atoms: C_23  and  C_26
REMARK    8  A    between atoms: C_26  and  C_27
REMARK    9  A    between atoms: C_26  and  C_28
REMARK   10  A    between atoms: C_26  and  C_29
REMARK                            x       y       z     vdW  Elec       q    Type
REMARK                         _______ _______ _______ _____ _____    ______ ____
ROOT
ATOM      1  C   UNL     1      -0.187  -2.818  -2.474  0.00  0.00    +0.245 C 
ATOM      2  O   UNL     1      -0.424  -2.216  -3.503  0.00  0.00    -0.270 OA
ATOM      3  N   UNL     1      -0.023  -4.155  -2.497  0.00  0.00    -0.292 N 
ATOM      4  H   UNL     1       0.166  -4.635  -1.676  0.00  0.00    +0.151 HD
ENDROOT
BRANCH   1   8
ATOM      5  C   UNL     1      -0.331   1.481   0.051  0.00  0.00    +0.046 C 
ATOM      6  C   UNL     1      -0.148  -0.015   0.021  0.00  0.00    -0.024 A 
ATOM      7  C   UNL     1      -0.249  -0.697  -1.171  0.00  0.00    +0.018 A 
ATOM      8  C   UNL     1      -0.079  -2.083  -1.197  0.00  0.00    +0.037 A 
ATOM      9  C   UNL     1       0.193  -2.772  -0.013  0.00  0.00    +0.015 A 
ATOM     10  C   UNL     1       0.292  -2.084   1.175  0.00  0.00    +0.029 A 
ATOM     11  C   UNL     1       0.128  -0.703   1.197  0.00  0.00    +0.072 A 
BRANCH  11  12
ATOM     12  N   UNL     1       0.236  -0.006   2.406  0.00  0.00    -0.200 N 
ATOM     13  C   UNL     1      -0.334  -0.323   3.590  0.00  0.00    +0.250 A 
ATOM     14  N   UNL     1       0.026   0.593   4.450  0.00  0.00    -0.116 NA
ATOM     15  N   UNL     1       0.784   1.467   3.892  0.00  0.00    -0.023 NA
ATOM     16  N   UNL     1       0.965   1.171   2.650  0.00  0.00    -0.039 NA
ENDBRANCH  11  12
ENDBRANCH   1   8
BRANCH   3  17
ATOM     17  C   UNL     1      -0.130  -4.884  -3.764  0.00  0.00    +0.207 C 
BRANCH  17  18
ATOM     18  C   UNL     1      -0.520  -6.314  -3.489  0.00  0.00    -0.013 A 
ATOM     19  C   UNL     1       0.027  -6.985  -2.411  0.00  0.00    +0.007 A 
ATOM     20  C   UNL     1      -0.330  -8.296  -2.159  0.00  0.00    +0.004 A 
ATOM     21  C   UNL     1      -1.236  -8.936  -2.984  0.00  0.00    -0.042 A 
ATOM     22  C   UNL     1      -1.784  -8.265  -4.061  0.00  0.00    +0.004 A 
ATOM     23  C   UNL     1      -1.429  -6.953  -4.311  0.00  0.00    +0.007 A 
BRANCH  21  24
ATOM     24  C   UNL     1      -1.625 -10.366  -2.710  0.00  0.00    -0.013 C 
ATOM     25  C   UNL     1      -2.257 -10.465  -1.320  0.00  0.00    +0.015 C 
ATOM     26  C   UNL     1      -2.632 -10.831  -3.763  0.00  0.00    +0.015 C 
ATOM     27  C   UNL     1      -0.380 -11.254  -2.768  0.00  0.00    +0.015 C 
ENDBRANCH  21  24
ENDBRANCH  17  18
BRANCH  17  28
ATOM     28  C   UNL     1       1.167  -4.855  -4.458  0.00  0.00    +0.090 C 
ATOM     29  N   UNL     1       2.169  -4.832  -4.994  0.00  0.00    -0.194 NA
ENDBRANCH  17  28
ENDBRANCH   3  17
TORSDOF 6
