REMARK  Name = ZINC15109597
REMARK  4 active torsions:
REMARK  status: ('A' for Active; 'I' for Inactive)
REMARK    1  A    between atoms: C_1  and  C_2
REMARK    2  A    between atoms: C_2  and  C_3
REMARK    3  A    between atoms: C_2  and  C_4
REMARK    4  A    between atoms: N_10  and  C_11
REMARK                            x       y       z     vdW  Elec       q    Type
REMARK                         _______ _______ _______ _____ _____    ______ ____
ROOT
ATOM      1  C   UNL     1       0.731  -0.503   1.223  0.00  0.00    +0.135 A 
ATOM      2  N   UNL     1       1.623   0.156   1.889  0.00  0.00    -0.158 NA
ATOM      3  N   UNL     1       2.059  -0.650   2.950  0.00  0.00    -0.254 N 
ATOM      4  H   UNL     1       2.724  -0.414   3.615  0.00  0.00    +0.191 HD
ATOM      5  C   UNL     1       1.379  -1.813   2.876  0.00  0.00    +0.176 A 
ATOM      6  S   UNL     1       1.533  -3.147   3.938  0.00  0.00    -0.011 S 
ATOM      7  N   UNL     1       0.552  -1.730   1.814  0.00  0.00    -0.299 N 
ENDROOT
BRANCH   7   8
ATOM      8  C   UNL     1      -0.376  -2.771   1.366  0.00  0.00    +0.121 C 
ATOM      9  C   UNL     1       0.392  -4.071   1.047  0.00  0.00    +0.034 C 
ATOM     10  C   UNL     1      -0.610  -5.162   1.482  0.00  0.00    +0.038 C 
ATOM     11  C   UNL     1      -1.466  -4.513   2.548  0.00  0.00    -0.042 A 
ATOM     12  C   UNL     1      -1.333  -3.136   2.480  0.00  0.00    -0.021 A 
ATOM     13  C   UNL     1      -2.031  -2.331   3.364  0.00  0.00    +0.006 A 
ATOM     14  C   UNL     1      -2.861  -2.896   4.313  0.00  0.00    +0.000 A 
ATOM     15  C   UNL     1      -2.996  -4.269   4.381  0.00  0.00    +0.000 A 
ATOM     16  C   UNL     1      -2.296  -5.078   3.500  0.00  0.00    +0.004 A 
ENDBRANCH   7   8
BRANCH   1  18
ATOM     17  C   UNL     1      -0.019   1.526   0.010  0.00  0.00    +0.015 C 
ATOM     18  C   UNL     1       0.002  -0.004   0.002  0.00  0.00    +0.051 C 
ATOM     19  C   UNL     1       0.718  -0.497  -1.257  0.00  0.00    +0.015 C 
ENDBRANCH   1  18
TORSDOF 2
