REMARK  Name = ZINC15141091
REMARK  6 active torsions:
REMARK  status: ('A' for Active; 'I' for Inactive)
REMARK    1  A    between atoms: C_1  and  C_2
REMARK    2  A    between atoms: C_3  and  C_24
REMARK    3  A    between atoms: C_7  and  N_11
REMARK    4  A    between atoms: N_11  and  C_12
REMARK    5  A    between atoms: C_12  and  C_14
REMARK    6  A    between atoms: C_12  and  C_15
REMARK                            x       y       z     vdW  Elec       q    Type
REMARK                         _______ _______ _______ _____ _____    ______ ____
ROOT
ATOM      1  N   UNL     1       2.954   3.836  -0.656  0.00  0.00    -0.319 N 
ATOM      2  H   UNL     1       3.685   3.205  -0.570  0.00  0.00    +0.148 HD
ENDROOT
BRANCH   1   9
ATOM      3  C   UNL     1       3.761   1.162   0.013  0.00  0.00    +0.045 C 
ATOM      4  C   UNL     1       2.270   0.940   0.023  0.00  0.00    -0.028 A 
ATOM      5  C   UNL     1       1.767  -0.272   0.301  0.00  0.00    -0.008 A 
ATOM      6  S   UNL     1       0.005  -0.027   0.189  0.00  0.00    -0.074 S 
ATOM      7  C   UNL     1      -0.009   1.696  -0.229  0.00  0.00    +0.114 A 
ATOM      8  C   UNL     1       1.362   2.035  -0.270  0.00  0.00    +0.051 A 
ATOM      9  C   UNL     1       1.645   3.391  -0.589  0.00  0.00    +0.131 A 
ATOM     10  N   UNL     1       0.642   4.223  -0.819  0.00  0.00    -0.220 NA
ATOM     11  C   UNL     1      -0.619   3.836  -0.763  0.00  0.00    +0.224 A 
ATOM     12  N   UNL     1      -0.945   2.592  -0.469  0.00  0.00    -0.228 NA
ATOM     13  C   UNL     1       2.514  -1.539   0.631  0.00  0.00    +0.052 C 
ENDBRANCH   1   9
BRANCH   1  14
ATOM     14  C   UNL     1       3.233   5.260  -0.858  0.00  0.00    +0.137 C 
ATOM     15  C   UNL     1       3.213   5.980   0.492  0.00  0.00    +0.036 C 
BRANCH  14  16
ATOM     16  C   UNL     1       4.591   5.420  -1.492  0.00  0.00    +0.158 A 
ATOM     17  N   UNL     1       5.686   4.795  -1.144  0.00  0.00    -0.132 NA
ATOM     18  N   UNL     1       6.667   5.163  -1.891  0.00  0.00    -0.129 NA
ATOM     19  C   UNL     1       6.242   6.056  -2.769  0.00  0.00    +0.161 A 
ATOM     20  N   UNL     1       4.900   6.236  -2.536  0.00  0.00    -0.285 N 
ATOM     21  C   UNL     1       4.179   7.113  -3.291  0.00  0.00    +0.094 A 
ATOM     22  C   UNL     1       4.771   7.810  -4.284  0.00  0.00    +0.018 A 
ATOM     23  C   UNL     1       6.140   7.644  -4.551  0.00  0.00    +0.005 A 
ATOM     24  C   UNL     1       6.873   6.776  -3.802  0.00  0.00    +0.048 A 
ENDBRANCH  14  16
ENDBRANCH   1  14
TORSDOF 3
