REMARK  Name = ZINC65137779
REMARK  7 active torsions:
REMARK  status: ('A' for Active; 'I' for Inactive)
REMARK    1  A    between atoms: C_1  and  C_2
REMARK    2  A    between atoms: C_3  and  C_30
REMARK    3  A    between atoms: C_6  and  C_8
REMARK    4  A    between atoms: C_11  and  S_15
REMARK    5  A    between atoms: C_12  and  C_14
REMARK    6  A    between atoms: S_15  and  N_18
REMARK    7  A    between atoms: N_21  and  C_24
REMARK                            x       y       z     vdW  Elec       q    Type
REMARK                         _______ _______ _______ _____ _____    ______ ____
ROOT
ATOM      1  S   UNL     1       2.166  -1.679   6.082  0.00  0.00    +0.058 S 
ATOM      2  O   UNL     1       2.350  -0.641   7.034  0.00  0.00    -0.153 OA
ATOM      3  O   UNL     1       1.220  -2.724   6.267  0.00  0.00    -0.153 OA
ENDROOT
BRANCH   1   6
ATOM      4  C   UNL     1       1.507   1.129   3.101  0.00  0.00    +0.087 C 
ATOM      5  C   UNL     1       2.325   0.447   4.229  0.00  0.00    +0.074 C 
ATOM      6  C   UNL     1       1.759  -0.897   4.556  0.00  0.00    +0.093 C 
ATOM      7  C   UNL     1       0.954  -1.496   3.700  0.00  0.00    +0.005 C 
ATOM      8  S   UNL     1       0.788  -0.377   2.319  0.00  0.00    -0.122 S 
ATOM      9  C   UNL     1       0.306  -2.847   3.856  0.00  0.00    +0.053 C 
BRANCH   4  15
ATOM     10  C   UNL     1       0.705   1.903   0.014  0.00  0.00    +0.043 C 
ATOM     11  C   UNL     1       1.595   2.556   1.040  0.00  0.00    -0.023 C 
ATOM     12  C   UNL     1       1.841   3.857   1.206  0.00  0.00    +0.061 C 
ATOM     13  N   UNL     1       2.694   4.057   2.235  0.00  0.00    -0.159 NA
ATOM     14  N   UNL     1       3.065   3.025   2.800  0.00  0.00    -0.178 NA
ATOM     15  C   UNL     1       2.414   1.887   2.129  0.00  0.00    +0.169 C 
ATOM     16  C   UNL     1       1.248   4.955   0.361  0.00  0.00    +0.067 C 
ENDBRANCH   4  15
ENDBRANCH   1   6
BRANCH   1  17
ATOM     17  N   UNL     1       3.640  -2.406   5.881  0.00  0.00    -0.174 NA
ATOM     18  C   UNL     1       3.740  -3.790   5.396  0.00  0.00    +0.125 C 
ATOM     19  C   UNL     1       4.722  -3.824   4.220  0.00  0.00    +0.102 C 
ATOM     20  N   UNL     1       5.995  -3.217   4.632  0.00  0.00    -0.297 NA
ATOM     21  C   UNL     1       5.822  -1.800   4.978  0.00  0.00    +0.102 C 
ATOM     22  C   UNL     1       4.885  -1.681   6.179  0.00  0.00    +0.125 C 
BRANCH  20  23
ATOM     23  C   UNL     1       7.019  -3.384   3.591  0.00  0.00    +0.057 C 
ATOM     24  C   UNL     1       7.247  -4.875   3.334  0.00  0.00    +0.019 C 
ATOM     25  C   UNL     1       8.313  -5.048   2.251  0.00  0.00    +0.002 C 
ATOM     26  C   UNL     1       9.621  -4.405   2.715  0.00  0.00    +0.000 C 
ATOM     27  C   UNL     1       9.393  -2.914   2.971  0.00  0.00    +0.002 C 
ATOM     28  C   UNL     1       8.327  -2.740   4.055  0.00  0.00    +0.019 C 
ENDBRANCH  20  23
ENDBRANCH   1  17
TORSDOF 4
