REMARK  Name = ZINC37831715
REMARK  2 active torsions:
REMARK  status: ('A' for Active; 'I' for Inactive)
REMARK    1  A    between atoms: C_4  and  C_22
REMARK    2  A    between atoms: C_6  and  C_9
REMARK                            x       y       z     vdW  Elec       q    Type
REMARK                         _______ _______ _______ _____ _____    ______ ____
ROOT
ATOM      1  C   UNL     1      -0.011   0.002  -2.478  0.00  0.00    +0.219 C 
ATOM      2  O   UNL     1       0.530   0.787  -3.228  0.00  0.00    -0.275 OA
ATOM      3  N   UNL     1      -1.265  -0.420  -2.733  0.00  0.00    -0.305 N 
ATOM      4  C   UNL     1      -1.989  -1.277  -1.780  0.00  0.00    +0.089 C 
ATOM      5  C   UNL     1      -3.352  -0.636  -1.511  0.00  0.00    -0.059 C 
ATOM      6  N   UNL     1      -4.070  -0.427  -2.779  0.00  0.00    +0.384 N 
ATOM      7  C   UNL     1      -5.405   0.098  -2.457  0.00  0.00    -0.078 C 
ATOM      8  C   UNL     1      -6.224   0.282  -3.734  0.00  0.00    -0.019 C 
ATOM      9  C   UNL     1      -5.501   1.282  -4.643  0.00  0.00    -0.003 C 
ATOM     10  C   UNL     1      -4.098   0.749  -4.937  0.00  0.00    -0.014 C 
ATOM     11  C   UNL     1      -3.341   0.523  -3.625  0.00  0.00    -0.051 C 
ATOM     12  C   UNL     1      -1.959  -0.037  -3.970  0.00  0.00    +0.092 C 
ATOM     13  H   UNL     1      -4.161  -1.308  -3.263  0.00  0.00    -0.081 HD
ENDROOT
BRANCH   1  18
ATOM     14  C   UNL     1       1.113   1.852  -0.522  0.00  0.00    +0.001 C 
ATOM     15  C   UNL     1       2.602   1.705  -0.845  0.00  0.00    +0.001 C 
ATOM     16  C   UNL     1       2.778   0.710  -1.994  0.00  0.00    +0.015 C 
ATOM     17  C   UNL     1       2.209  -0.649  -1.583  0.00  0.00    +0.114 C 
ATOM     18  C   UNL     1       0.720  -0.502  -1.260  0.00  0.00    +0.089 C 
ATOM     19  C   UNL     1       0.544   0.493  -0.111  0.00  0.00    +0.013 C 
BRANCH  17  20
ATOM     20  C   UNL     1       2.383  -1.629  -2.715  0.00  0.00    +0.360 C 
ATOM     21  O   UNL     1       3.499  -1.890  -3.128  0.00  0.00    -0.246 OA
ATOM     22  O   UNL     1       1.407  -2.161  -3.216  0.00  0.00    -0.246 OA
ENDBRANCH  17  20
ENDBRANCH   1  18
TORSDOF 2
