REMARK  Name = ZINC12091415
REMARK  6 active torsions:
REMARK  status: ('A' for Active; 'I' for Inactive)
REMARK    1  A    between atoms: C_1  and  C_2
REMARK    2  A    between atoms: C_5  and  C_24
REMARK    3  A    between atoms: C_6  and  C_12
REMARK    4  A    between atoms: C_17  and  C_20
REMARK    5  A    between atoms: C_20  and  O_22
REMARK    6  A    between atoms: O_22  and  C_23
REMARK                            x       y       z     vdW  Elec       q    Type
REMARK                         _______ _______ _______ _____ _____    ______ ____
ROOT
ATOM      1  C   UNL     1       0.024  -4.801  -9.701  0.00  0.00    +0.044 C 
ATOM      2  C   UNL     1      -0.079  -5.394  -8.319  0.00  0.00    -0.048 A 
ATOM      3  C   UNL     1       0.154  -4.608  -7.226  0.00  0.00    +0.015 A 
ATOM      4  C   UNL     1       0.058  -5.158  -5.945  0.00  0.00    +0.026 A 
ATOM      5  C   UNL     1       0.234  -4.629  -4.593  0.00  0.00    +0.008 A 
ATOM      6  C   UNL     1       0.002  -5.668  -3.749  0.00  0.00    +0.194 A 
ATOM      7  O   UNL     1      -0.298  -6.774  -4.461  0.00  0.00    -0.448 OA
ATOM      8  C   UNL     1      -0.276  -6.515  -5.783  0.00  0.00    +0.154 A 
ATOM      9  C   UNL     1      -0.507  -7.296  -6.911  0.00  0.00    +0.084 A 
ATOM     10  C   UNL     1      -0.414  -6.732  -8.166  0.00  0.00    +0.027 A 
ATOM     11 CL   UNL     1      -0.921  -8.973  -6.739  0.00  0.00    -0.080 Cl
ATOM     12  C   UNL     1       0.600  -3.217  -4.213  0.00  0.00    +0.048 C 
ENDROOT
BRANCH   6  13
ATOM     13  C   UNL     1       0.068  -5.597  -2.283  0.00  0.00    +0.282 C 
ATOM     14  O   UNL     1       0.197  -4.521  -1.731  0.00  0.00    -0.267 OA
ATOM     15  N   UNL     1      -0.015  -6.725  -1.549  0.00  0.00    -0.295 N 
ATOM     16  C   UNL     1      -0.126  -6.659  -0.086  0.00  0.00    +0.109 C 
ATOM     17  C   UNL     1       0.977  -7.524   0.532  0.00  0.00    +0.033 C 
ATOM     18  C   UNL     1       0.891  -8.940  -0.043  0.00  0.00    +0.101 C 
ATOM     19  C   UNL     1       1.106  -8.892  -1.557  0.00  0.00    +0.033 C 
ATOM     20  C   UNL     1      -0.002  -8.043  -2.199  0.00  0.00    +0.109 C 
BRANCH  18  21
ATOM     21  C   UNL     1       1.954  -9.803   0.588  0.00  0.00    +0.310 C 
ATOM     22  O   UNL     1       2.703  -9.334   1.412  0.00  0.00    -0.251 OA
BRANCH  21  23
ATOM     23  O   UNL     1       2.068 -11.093   0.234  0.00  0.00    -0.468 OA
ATOM     24  C   UNL     1       3.097 -11.852   0.872  0.00  0.00    +0.280 C 
ENDBRANCH  21  23
ENDBRANCH  18  21
ENDBRANCH   6  13
TORSDOF 3
