REMARK  Name = ZINC39024661
REMARK  6 active torsions:
REMARK  status: ('A' for Active; 'I' for Inactive)
REMARK    1  A    between atoms: C_1  and  C_2
REMARK    2  A    between atoms: C_2  and  O_3
REMARK    3  A    between atoms: O_3  and  C_4
REMARK    4  A    between atoms: N_12  and  C_13
REMARK    5  A    between atoms: C_13  and  C_15
REMARK    6  A    between atoms: N_21  and  C_23
REMARK                            x       y       z     vdW  Elec       q    Type
REMARK                         _______ _______ _______ _____ _____    ______ ____
ROOT
ATOM      1  C   UNL     1      -5.287  -7.745  -0.000  0.00  0.00    +0.265 C 
ATOM      2  O   UNL     1      -6.029  -6.781   0.009  0.00  0.00    -0.271 OA
ENDROOT
BRANCH   1  11
ATOM      3  C   UNL     1      -1.498  -1.849   0.006  0.00  0.00    +0.122 A 
ATOM      4  C   UNL     1      -0.391  -2.688  -0.003  0.00  0.00    +0.048 A 
ATOM      5  C   UNL     1      -0.535  -4.055  -0.009  0.00  0.00    +0.030 A 
ATOM      6  C   UNL     1      -1.809  -4.640  -0.005  0.00  0.00    +0.055 A 
ATOM      7  C   UNL     1      -2.910  -3.773   0.005  0.00  0.00    +0.042 A 
ATOM      8  C   UNL     1      -2.770  -2.405   0.016  0.00  0.00    +0.062 A 
ATOM      9  S   UNL     1      -4.296  -4.880   0.007  0.00  0.00    -0.052 S 
ATOM     10  C   UNL     1      -3.462  -6.340  -0.004  0.00  0.00    +0.164 A 
ATOM     11  N   UNL     1      -3.970  -7.570  -0.007  0.00  0.00    -0.155 NA
ATOM     12  N   UNL     1      -2.154  -5.980  -0.009  0.00  0.00    -0.335 N 
ATOM     13  H   UNL     1      -1.462  -6.661  -0.016  0.00  0.00    +0.168 HD
BRANCH   3  14
ATOM     14  O   UNL     1      -1.339  -0.499   0.012  0.00  0.00    -0.492 OA
BRANCH  14  16
ATOM     15  C   UNL     1      -0.019   1.526   0.010  0.00  0.00    +0.048 C 
ATOM     16  C   UNL     1       0.002  -0.004   0.002  0.00  0.00    +0.225 C 
ENDBRANCH  14  16
ENDBRANCH   3  14
ENDBRANCH   1  11
BRANCH   1  17
ATOM     17  C   UNL     1      -5.863  -9.138  -0.003  0.00  0.00    +0.231 C 
ATOM     18  C   UNL     1      -5.396  -9.880   1.225  0.00  0.00    +0.185 C 
ATOM     19  O   UNL     1      -4.340 -10.482   1.213  0.00  0.00    -0.290 OA
ATOM     20  C   UNL     1      -6.193  -9.870   2.381  0.00  0.00    +0.065 C 
ATOM     21  C   UNL     1      -7.377  -9.204   2.365  0.00  0.00    +0.097 C 
ATOM     22  N   UNL     1      -7.768  -8.574   1.216  0.00  0.00    -0.242 N 
ATOM     23  N   UNL     1      -7.333  -9.064   0.010  0.00  0.00    -0.217 NA
ATOM     24  H   UNL     1      -7.742  -9.965  -0.183  0.00  0.00    +0.146 HD
BRANCH  22  25
ATOM     25  C   UNL     1      -8.598  -7.451   1.269  0.00  0.00    +0.049 A 
ATOM     26  C   UNL     1      -8.994  -6.822   0.095  0.00  0.00    +0.025 A 
ATOM     27  C   UNL     1      -9.814  -5.713   0.150  0.00  0.00    +0.002 A 
ATOM     28  C   UNL     1     -10.241  -5.227   1.373  0.00  0.00    +0.000 A 
ATOM     29  C   UNL     1      -9.849  -5.851   2.543  0.00  0.00    +0.002 A 
ATOM     30  C   UNL     1      -9.034  -6.964   2.495  0.00  0.00    +0.025 A 
ENDBRANCH  22  25
ENDBRANCH   1  17
TORSDOF 5
