REMARK  Name = ZINC02498679
REMARK  3 active torsions:
REMARK  status: ('A' for Active; 'I' for Inactive)
REMARK    1  A    between atoms: C_1  and  C_2
REMARK    2  A    between atoms: C_8  and  N_13
REMARK    3  A    between atoms: N_19  and  C_20
REMARK                            x       y       z     vdW  Elec       q    Type
REMARK                         _______ _______ _______ _____ _____    ______ ____
ROOT
ATOM      1  C   UNL     1       1.912   0.385  -2.294  0.00  0.00    +0.079 C 
ATOM      2  C   UNL     1       3.009   0.767  -1.298  0.00  0.00    +0.185 C 
ATOM      3  C   UNL     1       3.958  -0.427  -1.114  0.00  0.00    +0.096 C 
ATOM      4  C   UNL     1       4.958  -0.035  -0.014  0.00  0.00    +0.114 C 
ATOM      5  C   UNL     1       5.601   1.278  -0.404  0.00  0.00    +0.017 A 
ATOM      6  C   UNL     1       6.838   1.601   0.124  0.00  0.00    +0.041 A 
ATOM      7  C   UNL     1       7.439   2.802  -0.201  0.00  0.00    +0.127 A 
ATOM      8  C   UNL     1       6.802   3.683  -1.055  0.00  0.00    +0.036 A 
ATOM      9  C   UNL     1       5.570   3.362  -1.587  0.00  0.00    +0.048 A 
ATOM     10  C   UNL     1       4.963   2.152  -1.265  0.00  0.00    +0.128 A 
ATOM     11  O   UNL     1       3.754   1.867  -1.814  0.00  0.00    -0.468 OA
ATOM     12  N   UNL     1       4.191   0.201   1.220  0.00  0.00    -0.292 N 
ATOM     13  C   UNL     1       2.984   0.788   1.153  0.00  0.00    +0.310 C 
ATOM     14  O   UNL     1       2.396   1.036   2.187  0.00  0.00    -0.252 OA
ATOM     15  N   UNL     1       2.403   1.105  -0.014  0.00  0.00    -0.214 N 
ATOM     16  H   UNL     1       4.557  -0.063   2.079  0.00  0.00    +0.151 HD
ENDROOT
BRANCH  15  17
ATOM     17  C   UNL     1       1.179   1.787   0.000  0.00  0.00    +0.079 A 
ATOM     18  C   UNL     1      -0.013   1.076   0.008  0.00  0.00    +0.065 A 
ATOM     19  C   UNL     1      -1.220   1.752   0.017  0.00  0.00    +0.125 A 
ATOM     20  C   UNL     1      -1.239   3.137   0.029  0.00  0.00    +0.041 A 
ATOM     21  C   UNL     1      -0.053   3.847   0.022  0.00  0.00    +0.043 A 
ATOM     22  C   UNL     1       1.157   3.177   0.008  0.00  0.00    +0.145 A 
ATOM     23  F   UNL     1       2.315   3.872   0.001  0.00  0.00    -0.204 F 
ATOM     24  F   UNL     1      -2.380   1.061   0.019  0.00  0.00    -0.205 F 
ENDBRANCH  15  17
BRANCH   7  25
ATOM     25  N   UNL     1       8.762   3.145   0.367  0.00  0.00    +0.056 N 
ATOM     26  O   UNL     1       9.291   4.205   0.081  0.00  0.00    -0.126 OA
ATOM     27  O   UNL     1       9.322   2.369   1.119  0.00  0.00    -0.126 OA
ENDBRANCH   7  25
TORSDOF 2
