REMARK  Name = ZINC57489683
REMARK  6 active torsions:
REMARK  status: ('A' for Active; 'I' for Inactive)
REMARK    1  A    between atoms: C_1  and  C_2
REMARK    2  A    between atoms: C_7  and  N_8
REMARK    3  A    between atoms: N_16  and  C_19
REMARK    4  A    between atoms: C_19  and  C_20
REMARK    5  A    between atoms: C_24  and  C_31
REMARK    6  A    between atoms: C_27  and  C_30
REMARK                            x       y       z     vdW  Elec       q    Type
REMARK                         _______ _______ _______ _____ _____    ______ ____
ROOT
ATOM      1  N   UNL     1       0.025  -0.013   2.418  0.00  0.00    -0.228 N 
ATOM      2  C   UNL     1      -1.146   0.299   3.019  0.00  0.00    +0.275 A 
ATOM      3  O   UNL     1      -2.206  -0.017   2.509  0.00  0.00    -0.266 OA
ATOM      4  C   UNL     1      -1.121   0.990   4.234  0.00  0.00    +0.101 A 
ATOM      5  C   UNL     1       0.085   1.361   4.836  0.00  0.00    +0.066 A 
ATOM      6  C   UNL     1      -0.076   2.041   6.039  0.00  0.00    +0.034 A 
ATOM      7  C   UNL     1      -1.319   2.279   6.512  0.00  0.00    +0.048 A 
ATOM      8  S   UNL     1      -2.342   1.601   5.362  0.00  0.00    -0.090 S 
ATOM      9  N   UNL     1       1.255   1.000   4.153  0.00  0.00    -0.284 N 
ATOM     10  C   UNL     1       1.191   0.333   2.990  0.00  0.00    +0.337 A 
ATOM     11  O   UNL     1       2.228   0.035   2.430  0.00  0.00    -0.246 OA
ENDROOT
BRANCH   1  18
ATOM     12  C   UNL     1      -0.018   1.503   0.010  0.00  0.00    +0.046 C 
ATOM     13  C   UNL     1       0.002  -0.004   0.002  0.00  0.00    -0.026 A 
ATOM     14  C   UNL     1       0.006  -0.689  -1.198  0.00  0.00    +0.005 A 
ATOM     15  C   UNL     1       0.024  -2.071  -1.206  0.00  0.00    +0.000 A 
ATOM     16  C   UNL     1       0.040  -2.773  -0.014  0.00  0.00    +0.002 A 
ATOM     17  C   UNL     1       0.035  -2.094   1.188  0.00  0.00    +0.026 A 
ATOM     18  C   UNL     1       0.023  -0.705   1.200  0.00  0.00    +0.057 A 
ENDBRANCH   1  18
BRANCH   9  19
ATOM     19  C   UNL     1       2.561   1.352   4.716  0.00  0.00    +0.222 C 
BRANCH  19  20
ATOM     20  C   UNL     1       3.039   0.238   5.611  0.00  0.00    +0.236 C 
ATOM     21  O   UNL     1       2.356  -0.753   5.763  0.00  0.00    -0.274 OA
ATOM     22  N   UNL     1       4.225   0.342   6.242  0.00  0.00    -0.300 N 
ATOM     23  C   UNL     1       5.061   1.538   6.072  0.00  0.00    +0.111 C 
ATOM     24  C   UNL     1       5.403   2.101   7.455  0.00  0.00    +0.004 C 
ATOM     25  C   UNL     1       6.044   1.002   8.305  0.00  0.00    +0.009 C 
ATOM     26  C   UNL     1       5.053  -0.150   8.484  0.00  0.00    +0.004 C 
ATOM     27  C   UNL     1       4.704  -0.736   7.118  0.00  0.00    +0.111 C 
ATOM     28  C   UNL     1       5.682  -1.234   9.362  0.00  0.00    +0.009 C 
ATOM     29  C   UNL     1       4.124   2.594   8.136  0.00  0.00    +0.009 C 
ENDBRANCH  19  20
ENDBRANCH   9  19
TORSDOF 3
