REMARK  Name = ZINC37477894
REMARK  7 active torsions:
REMARK  status: ('A' for Active; 'I' for Inactive)
REMARK    1  A    between atoms: C_1  and  C_2
REMARK    2  A    between atoms: C_15  and  C_17
REMARK    3  A    between atoms: C_17  and  N_18
REMARK    4  A    between atoms: N_18  and  C_19
REMARK    5  A    between atoms: N_18  and  C_20
REMARK    6  A    between atoms: C_20  and  C_22
REMARK    7  A    between atoms: C_20  and  C_28
REMARK                            x       y       z     vdW  Elec       q    Type
REMARK                         _______ _______ _______ _____ _____    ______ ____
ROOT
ATOM      1  C   UNL     1       0.342   2.527   1.293  0.00  0.00    +0.029 C 
ATOM      2  C   UNL     1       0.420   1.137   0.659  0.00  0.00    +0.087 C 
ATOM      3  C   UNL     1      -0.981   0.691   0.237  0.00  0.00    +0.118 C 
ATOM      4  C   UNL     1      -0.998  -0.793  -0.016  0.00  0.00    +0.219 C 
ATOM      5  O   UNL     1      -1.016  -1.210  -1.155  0.00  0.00    -0.275 OA
ATOM      6  N   UNL     1      -0.992  -1.663   1.017  0.00  0.00    -0.284 N 
ATOM      7  C   UNL     1      -0.874  -1.202   2.333  0.00  0.00    +0.055 A 
ATOM      8  C   UNL     1      -1.743  -1.636   3.319  0.00  0.00    +0.025 A 
ATOM      9  C   UNL     1      -1.592  -1.184   4.617  0.00  0.00    +0.002 A 
ATOM     10  C   UNL     1      -0.575  -0.302   4.934  0.00  0.00    +0.002 A 
ATOM     11  C   UNL     1       0.291   0.144   3.953  0.00  0.00    +0.025 A 
ATOM     12  C   UNL     1       0.139  -0.295   2.648  0.00  0.00    +0.058 A 
ATOM     13  N   UNL     1       0.970   0.189   1.630  0.00  0.00    -0.265 N 
ATOM     14  C   UNL     1       2.255  -0.209   1.548  0.00  0.00    +0.234 C 
ATOM     15  O   UNL     1       2.967   0.217   0.663  0.00  0.00    -0.274 OA
ATOM     16  H   UNL     1      -1.071  -2.615   0.846  0.00  0.00    +0.155 HD
ENDROOT
BRANCH  14  17
ATOM     17  C   UNL     1       2.807  -1.185   2.555  0.00  0.00    +0.181 C 
BRANCH  17  18
ATOM     18  N   UNL     1       4.218  -1.458   2.250  0.00  0.00    -0.282 NA
ATOM     19  C   UNL     1       5.040  -0.256   2.442  0.00  0.00    +0.106 C 
BRANCH  18  20
ATOM     20  C   UNL     1       4.724  -2.576   3.057  0.00  0.00    +0.174 C 
BRANCH  20  21
ATOM     21  C   UNL     1       3.873  -3.796   2.817  0.00  0.00    -0.021 A 
ATOM     22  C   UNL     1       3.440  -4.558   3.885  0.00  0.00    +0.005 A 
ATOM     23  C   UNL     1       2.659  -5.677   3.664  0.00  0.00    +0.000 A 
ATOM     24  C   UNL     1       2.310  -6.033   2.374  0.00  0.00    +0.000 A 
ATOM     25  C   UNL     1       2.743  -5.270   1.306  0.00  0.00    +0.000 A 
ATOM     26  C   UNL     1       3.520  -4.149   1.527  0.00  0.00    +0.005 A 
ENDBRANCH  20  21
BRANCH  20  27
ATOM     27  C   UNL     1       6.149  -2.873   2.667  0.00  0.00    +0.232 C 
ATOM     28  O   UNL     1       6.539  -2.609   1.549  0.00  0.00    -0.274 OA
ATOM     29  N   UNL     1       6.990  -3.431   3.559  0.00  0.00    -0.328 N 
ATOM     30  H   UNL     1       6.679  -3.642   4.453  0.00  0.00    +0.145 HD
ATOM     31  H   UNL     1       7.908  -3.623   3.308  0.00  0.00    +0.145 HD
ENDBRANCH  20  27
ENDBRANCH  18  20
ENDBRANCH  17  18
ENDBRANCH  14  17
TORSDOF 5
