REMARK  Name = ZINC06059866
REMARK  7 active torsions:
REMARK  status: ('A' for Active; 'I' for Inactive)
REMARK    1  A    between atoms: C_3  and  C_23
REMARK    2  A    between atoms: C_6  and  N_7
REMARK    3  A    between atoms: C_8  and  C_10
REMARK    4  A    between atoms: C_10  and  O_11
REMARK    5  A    between atoms: O_11  and  C_12
REMARK    6  A    between atoms: C_12  and  C_14
REMARK    7  A    between atoms: C_19  and  N_20
REMARK                            x       y       z     vdW  Elec       q    Type
REMARK                         _______ _______ _______ _____ _____    ______ ____
ROOT
ATOM      1  C   UNL     1      -4.903   3.854  -0.337  0.00  0.00    +0.328 C 
ENDROOT
BRANCH   1   3
ATOM      2  N   UNL     1      -2.432   3.801  -0.258  0.00  0.00    -0.283 N 
ATOM      3  C   UNL     1      -3.591   3.115  -0.305  0.00  0.00    +0.255 C 
ATOM      4  O   UNL     1      -3.578   1.902  -0.323  0.00  0.00    -0.272 OA
ATOM      5  H   UNL     1      -2.443   4.766  -0.169  0.00  0.00    +0.155 HD
BRANCH   2  11
ATOM      6  C   UNL     1      -1.112   1.973  -1.116  0.00  0.00    +0.024 A 
ATOM      7  C   UNL     1       0.085   1.296  -1.193  0.00  0.00    +0.022 A 
ATOM      8  C   UNL     1       1.201   1.771  -0.497  0.00  0.00    +0.070 A 
ATOM      9  C   UNL     1       1.095   2.930   0.280  0.00  0.00    +0.060 A 
ATOM     10  C   UNL     1      -0.108   3.598   0.356  0.00  0.00    +0.044 A 
ATOM     11  C   UNL     1      -1.215   3.122  -0.338  0.00  0.00    +0.035 A 
ATOM     12 CL   UNL     1       2.477   3.525   1.145  0.00  0.00    -0.082 Cl
BRANCH   8  13
ATOM     13  C   UNL     1       2.449   1.073  -0.580  0.00  0.00    +0.101 C 
ATOM     14  N   UNL     1       3.438   0.520  -0.646  0.00  0.00    -0.191 NA
ENDBRANCH   8  13
ENDBRANCH   2  11
ENDBRANCH   1   3
BRANCH   1  15
ATOM     15  O   UNL     1      -5.996   2.900  -0.386  0.00  0.00    -0.452 OA
BRANCH  15  16
ATOM     16  C   UNL     1      -7.246   3.401  -0.418  0.00  0.00    +0.341 C 
ATOM     17  O   UNL     1      -7.419   4.604  -0.406  0.00  0.00    -0.245 OA
BRANCH  16  18
ATOM     18  C   UNL     1      -8.403   2.493  -0.469  0.00  0.00    +0.080 A 
ATOM     19  C   UNL     1      -8.218   1.111  -0.357  0.00  0.00    +0.018 A 
ATOM     20  C   UNL     1      -9.304   0.266  -0.405  0.00  0.00    +0.021 A 
ATOM     21  C   UNL     1     -10.584   0.778  -0.564  0.00  0.00    +0.043 A 
ATOM     22  C   UNL     1     -10.784   2.140  -0.675  0.00  0.00    +0.043 A 
ATOM     23  C   UNL     1      -9.701   3.008  -0.623  0.00  0.00    +0.040 A 
ATOM     24 CL   UNL     1     -11.943  -0.300  -0.623  0.00  0.00    -0.083 Cl
BRANCH  23  25
ATOM     25  N   UNL     1      -9.899   4.378  -0.729  0.00  0.00    -0.357 N 
ATOM     26  H   UNL     1      -9.175   4.952  -1.027  0.00  0.00    +0.142 HD
ATOM     27  H   UNL     1     -10.761   4.762  -0.504  0.00  0.00    +0.142 HD
ENDBRANCH  23  25
ENDBRANCH  16  18
ENDBRANCH  15  16
ENDBRANCH   1  15
TORSDOF 7
