REMARK  Name = ZINC39412769
REMARK  2 active torsions:
REMARK  status: ('A' for Active; 'I' for Inactive)
REMARK    1  A    between atoms: C_1  and  N_2
REMARK    2  A    between atoms: C_7  and  C_10
REMARK                            x       y       z     vdW  Elec       q    Type
REMARK                         _______ _______ _______ _____ _____    ______ ____
ROOT
ATOM      1  C   UNL     1      -0.018   1.461   0.010  0.00  0.00    +0.154 C 
ATOM      2  N   UNL     1       0.002  -0.004   0.002  0.00  0.00    -0.235 N 
ATOM      3  C   UNL     1      -1.150  -0.910   0.002  0.00  0.00    +0.211 C 
ATOM      4  C   UNL     1      -0.571  -2.113  -0.742  0.00  0.00    +0.094 C 
ATOM      5  N   UNL     1      -1.493  -2.607  -1.493  0.00  0.00    -0.260 NA
ATOM      6  C   UNL     1      -2.712  -1.786  -1.415  0.00  0.00    +0.206 C 
ATOM      7  N   UNL     1      -2.280  -0.470  -0.827  0.00  0.00    -0.267 NA
ATOM      8  C   UNL     1       0.838  -2.069  -0.346  0.00  0.00    +0.156 C 
ATOM      9  N   UNL     1       1.131  -0.844  -0.014  0.00  0.00    -0.189 NA
ATOM     10  H   UNL     1      -3.006  -0.059  -0.260  0.00  0.00    +0.126 HD
ENDROOT
BRANCH   6  11
ATOM     11  C   UNL     1      -3.297  -1.588  -2.789  0.00  0.00    +0.011 A 
ATOM     12  C   UNL     1      -3.881  -0.380  -3.123  0.00  0.00    +0.008 A 
ATOM     13  C   UNL     1      -4.418  -0.197  -4.384  0.00  0.00    +0.002 A 
ATOM     14  C   UNL     1      -4.372  -1.222  -5.311  0.00  0.00    +0.021 A 
ATOM     15  C   UNL     1      -3.788  -2.430  -4.978  0.00  0.00    +0.060 A 
ATOM     16  C   UNL     1      -3.244  -2.611  -3.717  0.00  0.00    +0.066 A 
ATOM     17 CL   UNL     1      -2.504  -4.125  -3.300  0.00  0.00    -0.082 Cl
ATOM     18 CL   UNL     1      -3.730  -3.717  -6.142  0.00  0.00    -0.082 Cl
ENDBRANCH   6  11
TORSDOF 1
