REMARK  Name = ZINC49049400
REMARK  4 active torsions:
REMARK  status: ('A' for Active; 'I' for Inactive)
REMARK    1  A    between atoms: C_1  and  C_2
REMARK    2  A    between atoms: C_7  and  C_10
REMARK    3  A    between atoms: N_18  and  C_19
REMARK    4  A    between atoms: C_19  and  C_20
REMARK                            x       y       z     vdW  Elec       q    Type
REMARK                         _______ _______ _______ _____ _____    ______ ____
ROOT
ATOM      1  C   UNL     1      -0.013   1.529   0.005  0.00  0.00    +0.039 C 
ATOM      2  C   UNL     1       0.004  -0.001  -0.002  0.00  0.00    +0.133 C 
ATOM      3  C   UNL     1       0.726  -0.499  -1.259  0.00  0.00    +0.140 C 
ATOM      4  N   UNL     1       0.893  -1.957  -1.151  0.00  0.00    -0.280 N 
ATOM      5  C   UNL     1       1.478  -2.496   0.088  0.00  0.00    +0.145 C 
ATOM      6  C   UNL     1       0.719  -1.900   1.279  0.00  0.00    +0.166 C 
ATOM      7  O   UNL     1       0.693  -0.476   1.157  0.00  0.00    -0.366 OA
ATOM      8  C   UNL     1       0.522  -2.775  -2.156  0.00  0.00    +0.303 C 
ATOM      9  O   UNL     1      -0.046  -2.321  -3.131  0.00  0.00    -0.253 OA
ATOM     10  N   UNL     1       0.780  -4.096  -2.080  0.00  0.00    -0.288 N 
ATOM     11  H   UNL     1       1.167  -4.469  -1.273  0.00  0.00    +0.151 HD
ENDROOT
BRANCH   6  12
ATOM     12  C   UNL     1       1.414  -2.283   2.560  0.00  0.00    -0.017 A 
ATOM     13  C   UNL     1       2.469  -1.523   3.029  0.00  0.00    +0.006 A 
ATOM     14  C   UNL     1       3.106  -1.875   4.204  0.00  0.00    +0.000 A 
ATOM     15  C   UNL     1       2.688  -2.987   4.911  0.00  0.00    +0.000 A 
ATOM     16  C   UNL     1       1.632  -3.746   4.443  0.00  0.00    +0.000 A 
ATOM     17  C   UNL     1       0.992  -3.392   3.270  0.00  0.00    +0.006 A 
ENDBRANCH   6  12
BRANCH  10  18
ATOM     18  C   UNL     1       0.475  -4.968  -3.217  0.00  0.00    +0.195 C 
BRANCH  18  19
ATOM     19  C   UNL     1       0.847  -6.353  -2.886  0.00  0.00    -0.087 C 
ATOM     20  C   UNL     1       1.143  -7.458  -2.623  0.00  0.00    +0.005 C 
ENDBRANCH  18  19
ENDBRANCH  10  18
TORSDOF 3
