REMARK  Name = ZINC45029691
REMARK  3 active torsions:
REMARK  status: ('A' for Active; 'I' for Inactive)
REMARK    1  A    between atoms: C_3  and  N_9
REMARK    2  A    between atoms: C_6  and  C_7
REMARK    3  A    between atoms: C_16  and  C_18
REMARK                            x       y       z     vdW  Elec       q    Type
REMARK                         _______ _______ _______ _____ _____    ______ ____
ROOT
ATOM      1  N   UNL     1       3.579   2.133  -0.022  0.00  0.00    -0.269 N 
ATOM      2  C   UNL     1       4.755   1.480   0.065  0.00  0.00    +0.307 C 
ATOM      3  O   UNL     1       4.777   0.265   0.058  0.00  0.00    -0.252 OA
ATOM      4  N   UNL     1       5.906   2.175   0.159  0.00  0.00    -0.278 N 
ATOM      5  C   UNL     1       6.023   3.644   0.184  0.00  0.00    +0.110 C 
ATOM      6  C   UNL     1       7.459   3.936  -0.318  0.00  0.00    +0.021 C 
ATOM      7  C   UNL     1       8.255   2.764   0.315  0.00  0.00    +0.029 C 
ATOM      8  C   UNL     1       7.252   1.592   0.259  0.00  0.00    +0.108 C 
ATOM      9  H   UNL     1       3.565   3.100  -0.094  0.00  0.00    +0.156 HD
ENDROOT
BRANCH   8  10
ATOM     10  C   UNL     1       7.359   0.762   1.512  0.00  0.00    -0.027 A 
ATOM     11  C   UNL     1       6.747   1.187   2.677  0.00  0.00    +0.008 A 
ATOM     12  C   UNL     1       6.845   0.426   3.826  0.00  0.00    +0.038 A 
ATOM     13  C   UNL     1       7.556  -0.762   3.811  0.00  0.00    +0.123 A 
ATOM     14  C   UNL     1       8.168  -1.186   2.644  0.00  0.00    +0.038 A 
ATOM     15  C   UNL     1       8.065  -0.427   1.495  0.00  0.00    +0.008 A 
ATOM     16  F   UNL     1       7.652  -1.506   4.935  0.00  0.00    -0.205 F 
ENDBRANCH   8  10
BRANCH   1  19
ATOM     17  C   UNL     1       1.097  -0.456   0.762  0.00  0.00    +0.020 A 
ATOM     18  C   UNL     1       2.278   0.252   0.745  0.00  0.00    +0.024 A 
ATOM     19  C   UNL     1       2.381   1.418  -0.007  0.00  0.00    +0.035 A 
ATOM     20  C   UNL     1       1.292   1.873  -0.743  0.00  0.00    +0.024 A 
ATOM     21  C   UNL     1       0.108   1.170  -0.731  0.00  0.00    +0.020 A 
ATOM     22  C   UNL     1       0.001  -0.002   0.023  0.00  0.00    +0.052 A 
BRANCH  22  23
ATOM     23  C   UNL     1      -1.228  -0.736   0.038  0.00  0.00    +0.099 C 
ATOM     24  N   UNL     1      -2.204  -1.319   0.050  0.00  0.00    -0.191 NA
ENDBRANCH  22  23
ENDBRANCH   1  19
TORSDOF 3
