REMARK  Name = ZINC09440396
REMARK  7 active torsions:
REMARK  status: ('A' for Active; 'I' for Inactive)
REMARK    1  A    between atoms: C_1  and  C_2
REMARK    2  A    between atoms: C_7  and  N_12
REMARK    3  A    between atoms: C_9  and  C_11
REMARK    4  A    between atoms: C_13  and  C_15
REMARK    5  A    between atoms: C_15  and  C_16
REMARK    6  A    between atoms: C_16  and  S_17
REMARK    7  A    between atoms: S_17  and  C_20
REMARK                            x       y       z     vdW  Elec       q    Type
REMARK                         _______ _______ _______ _____ _____    ______ ____
ROOT
ATOM      1  S   UNL     1      -4.009  -6.332   2.359  0.00  0.00    -0.001 S 
ATOM      2  O   UNL     1      -4.798  -5.587   3.276  0.00  0.00    -0.169 OA
ATOM      3  O   UNL     1      -4.459  -6.554   1.029  0.00  0.00    -0.169 OA
ENDROOT
BRANCH   1   4
ATOM      4  C   UNL     1      -3.893  -7.940   3.069  0.00  0.00    +0.110 A 
ATOM      5  C   UNL     1      -4.503  -8.204   4.282  0.00  0.00    +0.076 A 
ATOM      6  C   UNL     1      -4.412  -9.467   4.840  0.00  0.00    +0.144 A 
ATOM      7  C   UNL     1      -3.705 -10.470   4.177  0.00  0.00    +0.077 A 
ATOM      8  C   UNL     1      -3.097 -10.201   2.963  0.00  0.00    +0.049 A 
ATOM      9  C   UNL     1      -3.197  -8.937   2.408  0.00  0.00    +0.068 A 
ATOM     10 CL   UNL     1      -2.441  -8.599   0.882  0.00  0.00    -0.082 Cl
ATOM     11  N   UNL     1      -3.620 -11.744   4.755  0.00  0.00    -0.280 N 
ATOM     12  C   UNL     1      -4.467 -12.067   5.757  0.00  0.00    +0.255 C 
ATOM     13  O   UNL     1      -4.391 -13.153   6.292  0.00  0.00    -0.272 OA
ATOM     14  C   UNL     1      -5.505 -11.071   6.208  0.00  0.00    +0.325 C 
ATOM     15  O   UNL     1      -5.006  -9.743   6.031  0.00  0.00    -0.481 OA
ATOM     16  H   UNL     1      -2.964 -12.385   4.439  0.00  0.00    +0.155 HD
ENDBRANCH   1   4
BRANCH   1  17
ATOM     17  C   UNL     1      -2.307  -5.704   2.346  0.00  0.00    +0.181 C 
BRANCH  17  18
ATOM     18  C   UNL     1      -2.287  -4.298   1.743  0.00  0.00    +0.119 C 
BRANCH  18  20
ATOM     19  N   UNL     1      -0.612  -2.548   1.244  0.00  0.00    -0.312 N 
ATOM     20  C   UNL     1      -0.873  -3.776   1.733  0.00  0.00    +0.215 C 
ATOM     21  O   UNL     1       0.030  -4.462   2.164  0.00  0.00    -0.276 OA
ATOM     22  H   UNL     1      -1.333  -2.000   0.898  0.00  0.00    +0.149 HD
BRANCH  19  28
ATOM     23  C   UNL     1      -0.019   1.526   0.010  0.00  0.00    +0.008 C 
ATOM     24  C   UNL     1       0.002  -0.004   0.002  0.00  0.00    -0.009 C 
ATOM     25  C   UNL     1       0.718  -0.497  -1.257  0.00  0.00    +0.003 C 
ATOM     26  C   UNL     1       0.739  -2.027  -1.265  0.00  0.00    +0.002 C 
ATOM     27  C   UNL     1       1.479  -2.534  -0.026  0.00  0.00    +0.022 C 
ATOM     28  C   UNL     1       0.763  -2.041   1.233  0.00  0.00    +0.076 C 
ATOM     29  C   UNL     1       0.742  -0.511   1.242  0.00  0.00    +0.009 C 
ATOM     30  C   UNL     1       0.026  -0.018   2.500  0.00  0.00    +0.009 C 
ENDBRANCH  19  28
ENDBRANCH  18  20
ENDBRANCH  17  18
ENDBRANCH   1  17
TORSDOF 5
