REMARK  Name = ZINC01049458
REMARK  5 active torsions:
REMARK  status: ('A' for Active; 'I' for Inactive)
REMARK    1  A    between atoms: C_1  and  C_2
REMARK    2  A    between atoms: C_6  and  N_9
REMARK    3  A    between atoms: C_7  and  C_8
REMARK    4  A    between atoms: N_9  and  S_10
REMARK    5  A    between atoms: S_10  and  C_13
REMARK                            x       y       z     vdW  Elec       q    Type
REMARK                         _______ _______ _______ _____ _____    ______ ____
ROOT
ATOM      1  C   UNL     1       1.494   2.886   1.279  0.00  0.00    +0.110 A 
ATOM      2  C   UNL     1       2.082   2.445   2.430  0.00  0.00    +0.037 A 
ATOM      3  C   UNL     1       2.159   3.290   3.550  0.00  0.00    -0.015 A 
ATOM      4  C   UNL     1       2.753   2.882   4.757  0.00  0.00    +0.008 A 
ATOM      5  C   UNL     1       2.804   3.740   5.818  0.00  0.00    +0.001 A 
ATOM      6  C   UNL     1       2.278   5.024   5.742  0.00  0.00    +0.014 A 
ATOM      7  C   UNL     1       1.683   5.465   4.570  0.00  0.00    +0.046 A 
ATOM      8  C   UNL     1       1.621   4.591   3.461  0.00  0.00    +0.006 A 
ATOM      9  C   UNL     1       1.017   5.031   2.261  0.00  0.00    +0.047 A 
ATOM     10  C   UNL     1       0.966   4.168   1.177  0.00  0.00    +0.042 A 
ATOM     11  C   UNL     1       0.468   6.394   2.206  0.00  0.00    +0.251 C 
ATOM     12  O   UNL     1      -0.057   6.794   1.185  0.00  0.00    -0.270 OA
ATOM     13  N   UNL     1       0.543   7.202   3.281  0.00  0.00    -0.248 N 
ATOM     14  C   UNL     1       1.112   6.814   4.438  0.00  0.00    +0.251 C 
ATOM     15  O   UNL     1       1.154   7.583   5.379  0.00  0.00    -0.270 OA
ATOM     16  H   UNL     1       0.173   8.097   3.220  0.00  0.00    +0.158 HD
ENDROOT
BRANCH   1  17
ATOM     17  S   UNL     1       1.410   1.808  -0.112  0.00  0.00    +0.072 S 
ATOM     18  O   UNL     1       2.458   0.861   0.044  0.00  0.00    -0.150 OA
ATOM     19  O   UNL     1       1.296   2.636  -1.261  0.00  0.00    -0.150 OA
BRANCH  17  20
ATOM     20  N   UNL     1      -0.011   0.966   0.007  0.00  0.00    -0.216 N 
ATOM     21  H   UNL     1       0.003  -0.002   0.070  0.00  0.00    +0.174 HD
BRANCH  20  27
ATOM     22  C   UNL     1      -4.631   1.365   1.636  0.00  0.00    +0.044 C 
ATOM     23  C   UNL     1      -3.487   1.865   0.791  0.00  0.00    -0.046 A 
ATOM     24  C   UNL     1      -3.644   3.001   0.019  0.00  0.00    +0.004 A 
ATOM     25  C   UNL     1      -2.597   3.463  -0.757  0.00  0.00    +0.002 A 
ATOM     26  C   UNL     1      -1.390   2.790  -0.763  0.00  0.00    +0.025 A 
ATOM     27  C   UNL     1      -1.230   1.649   0.011  0.00  0.00    +0.051 A 
ATOM     28  C   UNL     1      -2.285   1.184   0.785  0.00  0.00    -0.025 A 
ATOM     29  C   UNL     1      -2.118  -0.058   1.623  0.00  0.00    +0.046 C 
ENDBRANCH  20  27
ENDBRANCH  17  20
ENDBRANCH   1  17
TORSDOF 3
