REMARK  Name = ZINC58456891
REMARK  5 active torsions:
REMARK  status: ('A' for Active; 'I' for Inactive)
REMARK    1  A    between atoms: C_6  and  O_7
REMARK    2  A    between atoms: O_7  and  C_8
REMARK    3  A    between atoms: C_16  and  C_18
REMARK    4  A    between atoms: C_21  and  S_23
REMARK    5  A    between atoms: S_23  and  N_26
REMARK                            x       y       z     vdW  Elec       q    Type
REMARK                         _______ _______ _______ _____ _____    ______ ____
ROOT
ATOM      1  C   UNL     1       0.085   1.230  -0.033  0.00  0.00    +0.048 A 
ATOM      2  C   UNL     1       1.256   1.961  -0.050  0.00  0.00    +0.027 A 
ATOM      3  C   UNL     1       2.458   1.346  -0.382  0.00  0.00    +0.040 A 
ATOM      4  C   UNL     1       2.485  -0.004  -0.695  0.00  0.00    -0.022 A 
ATOM      5  C   UNL     1       1.308  -0.734  -0.679  0.00  0.00    +0.051 A 
ATOM      6  C   UNL     1       0.110  -0.120  -0.349  0.00  0.00    +0.130 A 
ATOM      7  C   UNL     1       3.771  -0.704  -1.048  0.00  0.00    +0.038 C 
ATOM      8  C   UNL     1       4.824   0.307  -1.501  0.00  0.00    +0.024 C 
ATOM      9  C   UNL     1       4.929   1.419  -0.449  0.00  0.00    +0.114 C 
ATOM     10  N   UNL     1       3.634   2.110  -0.396  0.00  0.00    -0.265 N 
ATOM     11  C   UNL     1       3.577   3.457  -0.363  0.00  0.00    +0.286 C 
ATOM     12  O   UNL     1       2.502   4.022  -0.446  0.00  0.00    -0.266 OA
ENDROOT
BRANCH  11  13
ATOM     13  C   UNL     1       4.809   4.239  -0.227  0.00  0.00    +0.192 A 
ATOM     14  C   UNL     1       4.910   5.599  -0.314  0.00  0.00    +0.057 A 
ATOM     15  C   UNL     1       6.264   5.916  -0.123  0.00  0.00    +0.072 A 
ATOM     16  C   UNL     1       6.922   4.751   0.069  0.00  0.00    +0.258 A 
ATOM     17  O   UNL     1       6.041   3.744   0.011  0.00  0.00    -0.432 OA
BRANCH  16  18
ATOM     18  S   UNL     1       8.653   4.585   0.355  0.00  0.00    +0.089 S 
ATOM     19  O   UNL     1       9.018   3.291  -0.104  0.00  0.00    -0.150 OA
ATOM     20  O   UNL     1       9.262   5.769  -0.142  0.00  0.00    -0.150 OA
BRANCH  18  21
ATOM     21  N   UNL     1       8.880   4.589   1.995  0.00  0.00    -0.201 NA
ATOM     22  H   UNL     1       8.119   4.673   2.590  0.00  0.00    +0.144 HD
ATOM     23  H   UNL     1       9.775   4.506   2.360  0.00  0.00    +0.144 HD
ENDBRANCH  18  21
ENDBRANCH  16  18
ENDBRANCH  11  13
BRANCH   6  24
ATOM     24  O   UNL     1      -1.042  -0.843  -0.336  0.00  0.00    -0.406 OA
BRANCH  24  25
ATOM     25  C   UNL     1      -2.240  -0.146   0.013  0.00  0.00    +0.575 C 
ATOM     26  F   UNL     1      -2.458   0.892  -0.898  0.00  0.00    -0.133 F 
ATOM     27  F   UNL     1      -3.322  -1.033  -0.022  0.00  0.00    -0.133 F 
ATOM     28  F   UNL     1      -2.113   0.383   1.302  0.00  0.00    -0.133 F 
ENDBRANCH  24  25
ENDBRANCH   6  24
TORSDOF 5
