REMARK  Name = ZINC47349546
REMARK  4 active torsions:
REMARK  status: ('A' for Active; 'I' for Inactive)
REMARK    1  A    between atoms: C_1  and  C_2
REMARK    2  A    between atoms: C_3  and  C_11
REMARK    3  A    between atoms: C_7  and  N_8
REMARK    4  A    between atoms: C_11  and  N_12
REMARK                            x       y       z     vdW  Elec       q    Type
REMARK                         _______ _______ _______ _____ _____    ______ ____
ROOT
ATOM      1  C   UNL     1      -0.779   0.009  -2.406  0.00  0.00    +0.151 C 
ENDROOT
BRANCH   1   2
ATOM      2  N   UNL     1       0.371   0.730  -2.958  0.00  0.00    -0.237 N 
ATOM      3  C   UNL     1       0.685   2.006  -2.613  0.00  0.00    +0.226 C 
ATOM      4  O   UNL     1      -0.011   2.787  -2.000  0.00  0.00    -0.275 OA
ATOM      5  C   UNL     1       2.065   2.255  -3.142  0.00  0.00    +0.091 C 
ATOM      6  C   UNL     1       2.401   3.644  -3.642  0.00  0.00    +0.040 C 
ATOM      7  C   UNL     1       3.693   3.529  -4.425  0.00  0.00    -0.030 C 
ATOM      8  C   UNL     1       4.170   2.415  -4.892  0.00  0.00    -0.030 C 
ATOM      9  C   UNL     1       3.494   1.068  -4.747  0.00  0.00    +0.040 C 
ATOM     10  C   UNL     1       2.052   1.321  -4.391  0.00  0.00    +0.091 C 
ATOM     11  C   UNL     1       1.229   0.186  -3.860  0.00  0.00    +0.226 C 
ATOM     12  O   UNL     1       1.310  -0.983  -4.172  0.00  0.00    -0.275 OA
ENDBRANCH   1   2
BRANCH   1  15
ATOM     13  C   UNL     1      -0.568   1.441   0.095  0.00  0.00    +0.046 C 
ATOM     14  C   UNL     1      -0.261  -0.034   0.042  0.00  0.00    -0.016 A 
ATOM     15  C   UNL     1      -0.362  -0.719  -1.154  0.00  0.00    -0.025 A 
ATOM     16  C   UNL     1      -0.080  -2.071  -1.202  0.00  0.00    +0.005 A 
ATOM     17  C   UNL     1       0.303  -2.739  -0.054  0.00  0.00    +0.003 A 
ATOM     18  C   UNL     1       0.405  -2.054   1.142  0.00  0.00    +0.033 A 
ATOM     19  C   UNL     1       0.127  -0.700   1.190  0.00  0.00    +0.129 A 
BRANCH  19  20
ATOM     20  N   UNL     1       0.241   0.035   2.470  0.00  0.00    +0.057 N 
ATOM     21  O   UNL     1       0.674   1.163   2.482  0.00  0.00    -0.126 OA
ATOM     22  O   UNL     1      -0.099  -0.494   3.502  0.00  0.00    -0.126 OA
ENDBRANCH  19  20
ENDBRANCH   1  15
TORSDOF 3
