REMARK  Name = ZINC00355994
REMARK  4 active torsions:
REMARK  status: ('A' for Active; 'I' for Inactive)
REMARK    1  A    between atoms: C_1  and  C_2
REMARK    2  A    between atoms: C_5  and  N_9
REMARK    3  A    between atoms: C_10  and  C_12
REMARK    4  A    between atoms: N_15  and  C_17
REMARK                            x       y       z     vdW  Elec       q    Type
REMARK                         _______ _______ _______ _____ _____    ______ ____
ROOT
ATOM      1  N   UNL     1       0.059  -4.170  -0.023  0.00  0.00    -0.279 N 
ATOM      2  C   UNL     1      -0.040  -4.838  -1.189  0.00  0.00    +0.268 C 
ATOM      3  O   UNL     1      -0.054  -4.228  -2.240  0.00  0.00    -0.268 OA
ATOM      4  H   UNL     1       0.150  -4.659   0.810  0.00  0.00    +0.155 HD
ENDROOT
BRANCH   1   9
ATOM      5  C   UNL     1      -0.063   1.502   0.016  0.00  0.00    +0.044 C 
ATOM      6  C   UNL     1      -0.031  -0.005   0.006  0.00  0.00    -0.049 A 
ATOM      7  C   UNL     1      -0.622  -0.701  -1.033  0.00  0.00    +0.005 A 
ATOM      8  C   UNL     1      -0.594  -2.082  -1.045  0.00  0.00    +0.025 A 
ATOM      9  C   UNL     1       0.029  -2.772  -0.013  0.00  0.00    +0.048 A 
ATOM     10  C   UNL     1       0.623  -2.069   1.029  0.00  0.00    +0.039 A 
ATOM     11  C   UNL     1       0.595  -0.688   1.032  0.00  0.00    +0.020 A 
ATOM     12 BR   UNL     1       1.472  -3.003   2.437  0.00  0.00    -0.048 Br
ENDBRANCH   1   9
BRANCH   2  13
ATOM     13  C   UNL     1      -0.132  -6.312  -1.190  0.00  0.00    +0.147 A 
ATOM     14  C   UNL     1      -0.234  -7.149  -2.326  0.00  0.00    +0.054 A 
ATOM     15  C   UNL     1      -0.292  -8.412  -1.842  0.00  0.00    +0.109 A 
ATOM     16  N   UNL     1      -0.227  -8.327  -0.496  0.00  0.00    -0.274 N 
ATOM     17  N   UNL     1      -0.129  -7.099  -0.132  0.00  0.00    -0.167 NA
ATOM     18  C   UNL     1      -0.258  -9.472   0.418  0.00  0.00    +0.172 C 
ENDBRANCH   2  13
TORSDOF 2
