REMARK  Name = ZINC45809469
REMARK  12 active torsions:
REMARK  status: ('A' for Active; 'I' for Inactive)
REMARK    1  A    between atoms: C_1  and  C_2
REMARK    2  A    between atoms: C_2  and  N_3
REMARK    3  A    between atoms: C_7  and  S_26
REMARK    4  A    between atoms: C_11  and  C_12
REMARK    5  A    between atoms: C_12  and  N_13
REMARK    6  A    between atoms: N_13  and  C_14
REMARK    7  A    between atoms: N_13  and  C_15
REMARK    8  A    between atoms: C_15  and  C_17
REMARK    9  A    between atoms: C_15  and  C_18
REMARK   10  A    between atoms: S_26  and  N_29
REMARK   11  A    between atoms: N_29  and  C_30
REMARK   12  A    between atoms: N_29  and  C_31
REMARK                            x       y       z     vdW  Elec       q    Type
REMARK                         _______ _______ _______ _____ _____    ______ ____
ROOT
ATOM      1  N   UNL     1       0.688  -0.476  -1.203  0.00  0.00    -0.329 N 
ATOM      2  C   UNL     1       0.104  -0.745  -2.425  0.00  0.00    +0.069 A 
ATOM      3  C   UNL     1      -1.195  -0.676  -2.912  0.00  0.00    +0.030 A 
ATOM      4  C   UNL     1      -1.453  -1.024  -4.221  0.00  0.00    +0.030 A 
ATOM      5  C   UNL     1      -0.424  -1.442  -5.053  0.00  0.00    +0.108 A 
ATOM      6  C   UNL     1       0.860  -1.516  -4.591  0.00  0.00    +0.058 A 
ATOM      7  C   UNL     1       1.145  -1.168  -3.268  0.00  0.00    +0.091 A 
ATOM      8  N   UNL     1       2.286  -1.137  -2.534  0.00  0.00    -0.234 NA
ATOM      9  C   UNL     1       2.019  -0.727  -1.328  0.00  0.00    +0.094 A 
ENDROOT
BRANCH   5  10
ATOM     10  S   UNL     1      -0.777  -1.883  -6.722  0.00  0.00    +0.060 S 
ATOM     11  O   UNL     1       0.260  -2.760  -7.139  0.00  0.00    -0.153 OA
ATOM     12  O   UNL     1      -2.149  -2.251  -6.763  0.00  0.00    -0.153 OA
BRANCH  10  13
ATOM     13  N   UNL     1      -0.628  -0.508  -7.633  0.00  0.00    -0.183 NA
ATOM     14  C   UNL     1       0.664  -0.159  -8.227  0.00  0.00    +0.131 C 
ATOM     15  C   UNL     1      -1.790   0.359  -7.845  0.00  0.00    +0.131 C 
ENDBRANCH  10  13
ENDBRANCH   5  10
BRANCH   1  17
ATOM     16  C   UNL     1      -0.019   1.526   0.010  0.00  0.00    +0.027 C 
ATOM     17  C   UNL     1       0.002  -0.004   0.002  0.00  0.00    +0.120 C 
ENDBRANCH   1  17
BRANCH   9  18
ATOM     18  C   UNL     1       3.036  -0.557  -0.229  0.00  0.00    -0.003 C 
BRANCH  18  19
ATOM     19  N   UNL     1       3.157  -1.813   0.524  0.00  0.00    +0.387 N 
ATOM     20  C   UNL     1       3.703  -2.858  -0.352  0.00  0.00    -0.095 C 
ATOM     21  H   UNL     1       2.247  -2.094   0.858  0.00  0.00    -0.081 HD
BRANCH  19  22
ATOM     22  C   UNL     1       4.058  -1.613   1.668  0.00  0.00    -0.041 C 
ATOM     23  C   UNL     1       4.184  -2.921   2.452  0.00  0.00    -0.008 C 
BRANCH  22  24
ATOM     24  C   UNL     1       3.498  -0.540   2.566  0.00  0.00    -0.058 A 
ATOM     25  C   UNL     1       2.139  -0.488   2.816  0.00  0.00    +0.005 A 
ATOM     26  C   UNL     1       1.623   0.494   3.640  0.00  0.00    +0.041 A 
ATOM     27  C   UNL     1       2.468   1.427   4.216  0.00  0.00    +0.158 A 
ATOM     28  C   UNL     1       3.831   1.375   3.966  0.00  0.00    +0.159 A 
ATOM     29  C   UNL     1       4.344   0.387   3.145  0.00  0.00    +0.043 A 
ATOM     30  F   UNL     1       4.657   2.285   4.527  0.00  0.00    -0.202 F 
ATOM     31  F   UNL     1       1.965   2.389   5.021  0.00  0.00    -0.202 F 
ENDBRANCH  22  24
ENDBRANCH  19  22
ENDBRANCH  18  19
ENDBRANCH   9  18
TORSDOF 7
