REMARK  Name = ZINC00587860
REMARK  7 active torsions:
REMARK  status: ('A' for Active; 'I' for Inactive)
REMARK    1  A    between atoms: C_1  and  N_2
REMARK    2  A    between atoms: N_2  and  C_3
REMARK    3  A    between atoms: N_2  and  C_4
REMARK    4  A    between atoms: C_7  and  C_10
REMARK    5  A    between atoms: C_19  and  C_27
REMARK    6  A    between atoms: C_21  and  C_22
REMARK    7  A    between atoms: C_21  and  C_24
REMARK                            x       y       z     vdW  Elec       q    Type
REMARK                         _______ _______ _______ _____ _____    ______ ____
ROOT
ATOM      1  C   UNL     1       0.001   4.256   0.463  0.00  0.00    +0.066 C 
ATOM      2  C   UNL     1       1.035   3.473  -0.348  0.00  0.00    +0.027 C 
ATOM      3  C   UNL     1       2.423   4.050  -0.208  0.00  0.00    +0.009 C 
ATOM      4  C   UNL     1       3.275   3.256   0.780  0.00  0.00    +0.005 C 
ATOM      5  C   UNL     1       3.353   1.802   0.293  0.00  0.00    +0.027 C 
ATOM      6  C   UNL     1       1.951   1.248   0.283  0.00  0.00    -0.026 C 
ATOM      7  C   UNL     1       0.918   2.023   0.015  0.00  0.00    -0.047 C 
ATOM      8  C   UNL     1      -0.454   1.454   0.072  0.00  0.00    +0.164 C 
ATOM      9  C   UNL     1      -1.519   2.295   0.098  0.00  0.00    +0.065 C 
ATOM     10  C   UNL     1      -1.399   3.788   0.055  0.00  0.00    +0.188 C 
ATOM     11  N   UNL     1      -2.770   1.750   0.169  0.00  0.00    -0.304 NA
ATOM     12  H   UNL     1      -2.878   0.786   0.202  0.00  0.00    +0.186 HD
ENDROOT
BRANCH   1  16
ATOM     13  C   UNL     1       0.610   3.538   4.632  0.00  0.00    +0.029 A 
ATOM     14  C   UNL     1       1.197   4.639   4.022  0.00  0.00    +0.023 A 
ATOM     15  C   UNL     1       0.998   4.868   2.675  0.00  0.00    +0.006 A 
ATOM     16  C   UNL     1       0.215   4.003   1.933  0.00  0.00    -0.041 A 
ATOM     17  C   UNL     1      -0.376   2.909   2.538  0.00  0.00    +0.006 A 
ATOM     18  C   UNL     1      -0.176   2.671   3.884  0.00  0.00    +0.023 A 
BRANCH  13  20
ATOM     19  C   UNL     1       1.638   4.219   6.782  0.00  0.00    +0.129 C 
ATOM     20  N   UNL     1       0.809   3.303   5.994  0.00  0.00    -0.336 N 
ATOM     21  C   UNL     1       0.189   2.141   6.636  0.00  0.00    +0.129 C 
ENDBRANCH  13  20
ENDBRANCH   1  16
BRANCH  10  22
ATOM     22  C   UNL     1      -2.386   4.379   0.974  0.00  0.00    +0.091 C 
ATOM     23  N   UNL     1      -3.148   4.835   1.683  0.00  0.00    -0.195 NA
ENDBRANCH  10  22
BRANCH  10  24
ATOM     24  C   UNL     1      -1.684   4.246  -1.314  0.00  0.00    +0.091 C 
ATOM     25  N   UNL     1      -1.904   4.600  -2.371  0.00  0.00    -0.195 NA
ENDBRANCH  10  24
BRANCH   8  26
ATOM     26  C   UNL     1      -0.650   0.036   0.091  0.00  0.00    +0.076 C 
ATOM     27  N   UNL     1      -0.806  -1.089   0.107  0.00  0.00    -0.196 NA
ENDBRANCH   8  26
TORSDOF 5
