REMARK  Name = ZINC39635773
REMARK  6 active torsions:
REMARK  status: ('A' for Active; 'I' for Inactive)
REMARK    1  A    between atoms: C_1  and  C_2
REMARK    2  A    between atoms: C_8  and  N_10
REMARK    3  A    between atoms: C_11  and  C_13
REMARK    4  A    between atoms: C_24  and  C_26
REMARK    5  A    between atoms: C_31  and  O_32
REMARK    6  A    between atoms: O_32  and  C_33
REMARK                            x       y       z     vdW  Elec       q    Type
REMARK                         _______ _______ _______ _____ _____    ______ ____
ROOT
ATOM      1  C   UNL     1       4.206   0.643   2.371  0.00  0.00    +0.100 C 
ATOM      2  C   UNL     1       5.154  -0.380   1.705  0.00  0.00    +0.121 C 
ATOM      3  N   UNL     1       6.408  -0.294   2.489  0.00  0.00    -0.296 N 
ATOM      4  C   UNL     1       5.957  -0.142   3.893  0.00  0.00    +0.115 C 
ATOM      5  C   UNL     1       4.736   0.796   3.807  0.00  0.00    -0.004 C 
ATOM      6  C   UNL     1       3.671   0.368   4.812  0.00  0.00    -0.010 C 
ATOM      7  C   UNL     1       4.199   0.584   6.232  0.00  0.00    -0.082 C 
ATOM      8  N   UNL     1       4.537   1.999   6.421  0.00  0.00    +0.379 N 
ATOM      9  C   UNL     1       5.628   2.379   5.514  0.00  0.00    -0.082 C 
ATOM     10  C   UNL     1       5.160   2.239   4.063  0.00  0.00    -0.010 C 
ATOM     11  C   UNL     1       7.675  -0.341   2.029  0.00  0.00    +0.250 C 
ATOM     12  O   UNL     1       7.886  -0.370   0.832  0.00  0.00    -0.270 OA
ATOM     13  H   UNL     1       3.726   2.567   6.225  0.00  0.00    -0.086 HD
ATOM     14  H   UNL     1       4.827   2.150   7.375  0.00  0.00    -0.086 HD
ENDROOT
BRANCH  11  15
ATOM     15  C   UNL     1       8.804  -0.359   2.979  0.00  0.00    +0.078 A 
ATOM     16  C   UNL     1       8.684  -1.026   4.200  0.00  0.00    +0.017 A 
ATOM     17  C   UNL     1       9.743  -1.040   5.082  0.00  0.00    +0.001 A 
ATOM     18  C   UNL     1      10.927  -0.394   4.763  0.00  0.00    +0.004 A 
ATOM     19  C   UNL     1      11.058   0.269   3.560  0.00  0.00    +0.046 A 
ATOM     20  C   UNL     1      10.005   0.288   2.658  0.00  0.00    +0.132 A 
BRANCH  20  21
ATOM     21  O   UNL     1      10.134   0.935   1.472  0.00  0.00    -0.494 OA
ATOM     22  C   UNL     1      11.387   1.571   1.214  0.00  0.00    +0.277 C 
ENDBRANCH  20  21
ENDBRANCH  11  15
BRANCH   1  24
ATOM     23  N   UNL     1       1.759   0.970   2.523  0.00  0.00    -0.312 N 
ATOM     24  C   UNL     1       2.794   0.118   2.386  0.00  0.00    +0.218 C 
ATOM     25  O   UNL     1       2.588  -1.073   2.275  0.00  0.00    -0.275 OA
ATOM     26  H   UNL     1       1.924   1.922   2.611  0.00  0.00    +0.149 HD
BRANCH  23  33
ATOM     27  C   UNL     1      -0.011   1.589   4.731  0.00  0.00    +0.009 C 
ATOM     28  C   UNL     1      -0.514   1.439   3.293  0.00  0.00    +0.006 C 
ATOM     29  C   UNL     1      -1.948   0.906   3.309  0.00  0.00    +0.005 C 
ATOM     30  C   UNL     1      -2.452   0.756   1.872  0.00  0.00    +0.000 C 
ATOM     31  C   UNL     1      -1.551  -0.223   1.115  0.00  0.00    +0.002 C 
ATOM     32  C   UNL     1      -0.117   0.310   1.100  0.00  0.00    +0.022 C 
ATOM     33  C   UNL     1       0.386   0.460   2.537  0.00  0.00    +0.076 C 
ENDBRANCH  23  33
ENDBRANCH   1  24
TORSDOF 4
