REMARK  Name = ZINC12439483
REMARK  5 active torsions:
REMARK  status: ('A' for Active; 'I' for Inactive)
REMARK    1  A    between atoms: C_13  and  C_15
REMARK    2  A    between atoms: C_15  and  C_16
REMARK    3  A    between atoms: C_16  and  C_17
REMARK    4  A    between atoms: C_24  and  C_26
REMARK    5  A    between atoms: C_26  and  C_27
REMARK                            x       y       z     vdW  Elec       q    Type
REMARK                         _______ _______ _______ _____ _____    ______ ____
ROOT
ATOM      1  C   UNL     1       0.496  -8.145   1.226  0.00  0.00    +0.014 C 
ENDROOT
BRANCH   1   2
ATOM      2  C   UNL     1      -0.804  -8.943   1.343  0.00  0.00    +0.007 C 
ATOM      3  C   UNL     1      -0.505 -10.435   1.185  0.00  0.00    +0.006 C 
ATOM      4  C   UNL     1      -1.809 -11.231   1.270  0.00  0.00    +0.019 C 
ATOM      5  C   UNL     1      -2.450 -11.009   2.643  0.00  0.00    +0.108 C 
ATOM      6  N   UNL     1      -2.609  -9.565   2.864  0.00  0.00    -0.301 N 
ATOM      7  C   UNL     1      -1.435  -8.694   2.717  0.00  0.00    +0.111 C 
ATOM      8  C   UNL     1      -3.809  -9.049   3.193  0.00  0.00    +0.220 C 
ATOM      9  O   UNL     1      -3.928  -7.855   3.372  0.00  0.00    -0.275 OA
BRANCH   8  10
ATOM     10  C   UNL     1      -5.005  -9.955   3.339  0.00  0.00    +0.131 C 
BRANCH  10  11
ATOM     11  C   UNL     1      -6.214  -9.135   3.709  0.00  0.00    -0.036 A 
ATOM     12  C   UNL     1      -6.511  -8.903   5.040  0.00  0.00    +0.004 A 
ATOM     13  C   UNL     1      -7.619  -8.152   5.381  0.00  0.00    +0.003 A 
ATOM     14  C   UNL     1      -8.433  -7.631   4.392  0.00  0.00    +0.038 A 
ATOM     15  C   UNL     1      -8.137  -7.862   3.060  0.00  0.00    +0.124 A 
ATOM     16  C   UNL     1      -7.022  -8.610   2.719  0.00  0.00    +0.042 A 
ATOM     17  F   UNL     1      -8.931  -7.354   2.092  0.00  0.00    -0.205 F 
ENDBRANCH  10  11
ENDBRANCH   8  10
ENDBRANCH   1   2
BRANCH   1  18
ATOM     18  C   UNL     1       0.181  -6.649   1.261  0.00  0.00    +0.096 C 
BRANCH  18  31
ATOM     19  C   UNL     1       2.370   1.437   0.014  0.00  0.00    +0.005 A 
ATOM     20  C   UNL     1       1.127   2.057   0.003  0.00  0.00    +0.018 A 
ATOM     21  C   UNL     1      -0.015   1.282  -0.017  0.00  0.00    +0.084 A 
ATOM     22  N   UNL     1       0.061  -0.036  -0.024  0.00  0.00    -0.350 N 
ATOM     23  C   UNL     1       1.227  -0.664  -0.014  0.00  0.00    +0.099 A 
ATOM     24  C   UNL     1       2.418   0.054   0.005  0.00  0.00    +0.042 A 
ATOM     25  N   UNL     1       1.260  -2.054  -0.022  0.00  0.00    -0.314 N 
ATOM     26  C   UNL     1       2.538  -2.770  -0.142  0.00  0.00    +0.125 C 
ATOM     27  C   UNL     1       2.671  -3.737   1.041  0.00  0.00    +0.126 C 
ATOM     28  N   UNL     1       1.430  -4.516   1.153  0.00  0.00    -0.298 N 
ATOM     29  C   UNL     1       0.152  -3.799   1.273  0.00  0.00    +0.126 C 
ATOM     30  C   UNL     1       0.020  -2.833   0.096  0.00  0.00    +0.125 C 
ATOM     31  C   UNL     1       1.462  -5.863   1.145  0.00  0.00    +0.216 C 
ATOM     32  O   UNL     1       2.522  -6.443   1.045  0.00  0.00    -0.276 OA
ATOM     33  H   UNL     1      -0.757  -0.557  -0.038  0.00  0.00    +0.166 HD
ENDBRANCH  18  31
ENDBRANCH   1  18
TORSDOF 5
