REMARK  Name = ZINC67638831
REMARK  6 active torsions:
REMARK  status: ('A' for Active; 'I' for Inactive)
REMARK    1  A    between atoms: N_4  and  C_6
REMARK    2  A    between atoms: C_9  and  C_12
REMARK    3  A    between atoms: C_12  and  O_14
REMARK    4  A    between atoms: O_14  and  C_15
REMARK    5  A    between atoms: C_18  and  O_21
REMARK    6  A    between atoms: O_21  and  C_22
REMARK                            x       y       z     vdW  Elec       q    Type
REMARK                         _______ _______ _______ _____ _____    ______ ____
ROOT
ATOM      1  C   UNL     1       4.787  -7.306  -0.042  0.00  0.00    +0.132 A 
ATOM      2  C   UNL     1       3.776  -8.254  -0.099  0.00  0.00    +0.050 A 
ATOM      3  C   UNL     1       4.091  -9.596  -0.169  0.00  0.00    +0.049 A 
ATOM      4  C   UNL     1       5.419  -9.997  -0.183  0.00  0.00    +0.122 A 
ATOM      5  C   UNL     1       6.430  -9.049  -0.126  0.00  0.00    +0.049 A 
ATOM      6  C   UNL     1       6.115  -7.706  -0.061  0.00  0.00    +0.050 A 
ENDROOT
BRANCH   1   7
ATOM      7  O   UNL     1       4.477  -5.984   0.027  0.00  0.00    -0.422 OA
BRANCH   7   8
ATOM      8  C   UNL     1       4.630  -5.239  -1.086  0.00  0.00    +0.344 C 
ATOM      9  O   UNL     1       5.119  -5.731  -2.083  0.00  0.00    -0.245 OA
BRANCH   8  13
ATOM     10  C   UNL     1       3.400  -1.175  -1.107  0.00  0.00    +0.065 A 
ATOM     11  C   UNL     1       3.961  -1.736  -2.249  0.00  0.00    +0.028 A 
ATOM     12  C   UNL     1       4.361  -3.053  -2.246  0.00  0.00    +0.017 A 
ATOM     13  C   UNL     1       4.203  -3.827  -1.093  0.00  0.00    +0.060 A 
ATOM     14  C   UNL     1       3.639  -3.260   0.053  0.00  0.00    +0.017 A 
ATOM     15  C   UNL     1       3.246  -1.940   0.044  0.00  0.00    +0.028 A 
BRANCH  10  19
ATOM     16  C   UNL     1       2.590   2.214  -1.760  0.00  0.00    +0.041 A 
ATOM     17  C   UNL     1       2.182   2.084  -0.427  0.00  0.00    +0.135 A 
ATOM     18  N   UNL     1       2.424   0.859  -0.040  0.00  0.00    -0.175 NA
ATOM     19  N   UNL     1       2.995   0.164  -1.113  0.00  0.00    -0.240 N 
ATOM     20  C   UNL     1       3.087   1.022  -2.162  0.00  0.00    +0.114 A 
ENDBRANCH  10  19
ENDBRANCH   8  13
ENDBRANCH   7   8
ENDBRANCH   1   7
BRANCH   4  21
ATOM     21  O   UNL     1       5.729 -11.319  -0.251  0.00  0.00    -0.480 OA
BRANCH  21  22
ATOM     22  C   UNL     1       4.646 -12.231  -0.442  0.00  0.00    +0.259 C 
ATOM     23  C   UNL     1       5.115 -13.419  -1.284  0.00  0.00    +0.054 C 
ATOM     24  C   UNL     1       6.560 -13.764  -0.969  0.00  0.00    +0.006 C 
ATOM     25  C   UNL     1       6.770 -14.298   0.436  0.00  0.00    +0.019 C 
ATOM     26  C   UNL     1       6.496 -13.212   1.479  0.00  0.00    +0.104 C 
ATOM     27  N   UNL     1       5.057 -13.209   1.790  0.00  0.00    -0.312 N 
ATOM     28  C   UNL     1       4.172 -12.746   0.901  0.00  0.00    +0.254 C 
ATOM     29  O   UNL     1       2.989 -12.742   1.167  0.00  0.00    -0.272 OA
ATOM     30  H   UNL     1       4.749 -13.544   2.646  0.00  0.00    +0.149 HD
ENDBRANCH  21  22
ENDBRANCH   4  21
TORSDOF 6
