REMARK  Name = ZINC67328248
REMARK  6 active torsions:
REMARK  status: ('A' for Active; 'I' for Inactive)
REMARK    1  A    between atoms: C_1  and  O_2
REMARK    2  A    between atoms: O_2  and  C_3
REMARK    3  A    between atoms: C_4  and  N_10
REMARK    4  A    between atoms: C_11  and  C_13
REMARK    5  A    between atoms: N_15  and  C_16
REMARK    6  A    between atoms: C_16  and  C_17
REMARK                            x       y       z     vdW  Elec       q    Type
REMARK                         _______ _______ _______ _____ _____    ______ ____
ROOT
ATOM      1  C   UNL     1      -1.202  -0.423   4.881  0.00  0.00    +0.300 C 
ATOM      2  O   UNL     1      -0.128   0.142   4.874  0.00  0.00    -0.265 OA
ATOM      3  N   UNL     1      -1.837  -0.648   6.048  0.00  0.00    -0.302 N 
ATOM      4  H   UNL     1      -2.696  -1.099   6.054  0.00  0.00    +0.150 HD
ENDROOT
BRANCH   1   6
ATOM      5  N   UNL     1      -1.186  -0.643   2.429  0.00  0.00    -0.275 N 
ATOM      6  C   UNL     1      -1.821  -0.868   3.597  0.00  0.00    +0.303 C 
ATOM      7  O   UNL     1      -2.895  -1.433   3.604  0.00  0.00    -0.265 OA
ATOM      8  H   UNL     1      -0.299  -0.250   2.428  0.00  0.00    +0.155 HD
BRANCH   5  10
ATOM      9  C   UNL     1      -1.599  -0.187   0.090  0.00  0.00    +0.159 A 
ATOM     10  C   UNL     1      -1.806  -0.975   1.220  0.00  0.00    +0.077 A 
ATOM     11  C   UNL     1      -2.628  -2.090   1.144  0.00  0.00    +0.027 A 
ATOM     12  C   UNL     1      -3.240  -2.417  -0.052  0.00  0.00    +0.003 A 
ATOM     13  C   UNL     1      -3.035  -1.635  -1.174  0.00  0.00    +0.024 A 
ATOM     14  C   UNL     1      -2.221  -0.519  -1.104  0.00  0.00    +0.084 A 
ATOM     15 CL   UNL     1      -1.972   0.463  -2.514  0.00  0.00    -0.080 Cl
BRANCH   9  17
ATOM     16  C   UNL     1      -1.413   2.145   0.514  0.00  0.00    +0.277 C 
ATOM     17  O   UNL     1      -0.795   0.907   0.159  0.00  0.00    -0.492 OA
ENDBRANCH   9  17
ENDBRANCH   5  10
ENDBRANCH   1   6
BRANCH   3  18
ATOM     18  C   UNL     1      -1.231  -0.211   7.308  0.00  0.00    +0.161 C 
BRANCH  18  19
ATOM     19  C   UNL     1      -2.135  -0.580   8.456  0.00  0.00    +0.077 A 
ATOM     20  C   UNL     1      -2.035  -1.696   9.211  0.00  0.00    +0.117 A 
ATOM     21  N   UNL     1      -3.040  -1.648  10.138  0.00  0.00    -0.305 N 
ATOM     22  C   UNL     1      -3.413  -2.496  11.141  0.00  0.00    +0.112 A 
ATOM     23  C   UNL     1      -4.469  -2.205  11.931  0.00  0.00    +0.058 A 
ATOM     24  C   UNL     1      -5.200  -1.022  11.729  0.00  0.00    +0.025 A 
ATOM     25  C   UNL     1      -4.838  -0.169  10.733  0.00  0.00    +0.048 A 
ATOM     26  C   UNL     1      -3.734  -0.487   9.917  0.00  0.00    +0.138 A 
ATOM     27  N   UNL     1      -3.165   0.144   8.899  0.00  0.00    -0.231 NA
ATOM     28 CL   UNL     1      -4.926  -3.298  13.200  0.00  0.00    -0.082 Cl
ENDBRANCH  18  19
ENDBRANCH   3  18
TORSDOF 5
