REMARK  Name = ZINC15783370
REMARK  7 active torsions:
REMARK  status: ('A' for Active; 'I' for Inactive)
REMARK    1  A    between atoms: C_1  and  C_2
REMARK    2  A    between atoms: C_2  and  C_3
REMARK    3  A    between atoms: C_3  and  C_4
REMARK    4  A    between atoms: C_18  and  S_19
REMARK    5  A    between atoms: S_19  and  C_20
REMARK    6  A    between atoms: C_20  and  C_21
REMARK    7  A    between atoms: N_23  and  C_24
REMARK                            x       y       z     vdW  Elec       q    Type
REMARK                         _______ _______ _______ _____ _____    ______ ____
ROOT
ATOM      1  C   UNL     1       1.396   3.585   0.008  0.00  0.00    +0.194 C 
ATOM      2  C   UNL     1       2.806   4.135  -0.028  0.00  0.00    +0.251 C 
ATOM      3  O   UNL     1       3.634   3.975  -0.899  0.00  0.00    -0.272 OA
ATOM      4  N   UNL     1       2.947   4.843   1.116  0.00  0.00    -0.200 N 
ATOM      5  C   UNL     1       1.780   4.792   1.859  0.00  0.00    +0.139 C 
ATOM      6  N   UNL     1       0.851   4.086   1.278  0.00  0.00    -0.255 NA
ATOM      7  C   UNL     1       1.765   5.519   3.147  0.00  0.00    +0.041 A 
ATOM      8  C   UNL     1       0.639   5.527   3.964  0.00  0.00    +0.013 A 
ATOM      9  C   UNL     1       0.670   6.217   5.158  0.00  0.00    +0.001 A 
ATOM     10  C   UNL     1       1.813   6.901   5.546  0.00  0.00    +0.002 A 
ATOM     11  C   UNL     1       2.937   6.905   4.750  0.00  0.00    +0.028 A 
ATOM     12  C   UNL     1       2.929   6.212   3.538  0.00  0.00    +0.077 A 
ATOM     13  N   UNL     1       4.019   6.194   2.729  0.00  0.00    -0.225 NA
ATOM     14  C   UNL     1       4.030   5.552   1.592  0.00  0.00    +0.169 C 
ENDROOT
BRANCH   1  15
ATOM     15  C   UNL     1       1.417   2.055  -0.000  0.00  0.00    +0.036 C 
BRANCH  15  17
ATOM     16  C   UNL     1       0.002  -0.004   0.002  0.00  0.00    +0.004 C 
ATOM     17  C   UNL     1      -0.019   1.526   0.010  0.00  0.00    -0.001 C 
ENDBRANCH  15  17
ENDBRANCH   1  15
BRANCH  14  18
ATOM     18  S   UNL     1       5.499   5.594   0.620  0.00  0.00    -0.080 S 
BRANCH  18  19
ATOM     19  C   UNL     1       6.548   6.621   1.679  0.00  0.00    +0.172 C 
BRANCH  19  20
ATOM     20  C   UNL     1       7.896   6.798   1.030  0.00  0.00    +0.224 C 
ATOM     21  O   UNL     1       8.126   6.281  -0.043  0.00  0.00    -0.275 OA
ATOM     22  N   UNL     1       8.848   7.531   1.641  0.00  0.00    -0.312 N 
ATOM     23  H   UNL     1       8.664   7.944   2.499  0.00  0.00    +0.149 HD
BRANCH  22  24
ATOM     24  C   UNL     1      10.159   7.703   1.010  0.00  0.00    +0.073 C 
ATOM     25  C   UNL     1      11.055   6.514   1.364  0.00  0.00    +0.022 C 
ATOM     26  C   UNL     1      12.424   6.694   0.705  0.00  0.00    +0.002 C 
ATOM     27  C   UNL     1      13.068   7.987   1.211  0.00  0.00    +0.000 C 
ATOM     28  C   UNL     1      12.171   9.175   0.858  0.00  0.00    +0.002 C 
ATOM     29  C   UNL     1      10.802   8.995   1.517  0.00  0.00    +0.022 C 
ENDBRANCH  22  24
ENDBRANCH  19  20
ENDBRANCH  18  19
ENDBRANCH  14  18
TORSDOF 6
