REMARK  Name = ZINC67517552
REMARK  4 active torsions:
REMARK  status: ('A' for Active; 'I' for Inactive)
REMARK    1  A    between atoms: C_1  and  C_2
REMARK    2  A    between atoms: C_15  and  C_17
REMARK    3  A    between atoms: C_21  and  O_23
REMARK    4  A    between atoms: O_23  and  C_24
REMARK                            x       y       z     vdW  Elec       q    Type
REMARK                         _______ _______ _______ _____ _____    ______ ____
ROOT
ATOM      1  C   UNL     1       0.196   1.565   0.611  0.00  0.00    +0.007 C 
ATOM      2  C   UNL     1       0.192   0.035   0.606  0.00  0.00    -0.014 C 
ATOM      3  C   UNL     1       0.563  -0.473  -0.789  0.00  0.00    +0.005 C 
ATOM      4  C   UNL     1       0.546  -2.002  -0.792  0.00  0.00    +0.023 C 
ATOM      5  C   UNL     1       1.566  -2.531   0.220  0.00  0.00    +0.079 C 
ATOM      6  C   UNL     1       1.228  -1.997   1.614  0.00  0.00    +0.010 C 
ATOM      7  C   UNL     1       1.214  -0.482   1.621  0.00  0.00    +0.008 C 
ATOM      8  C   UNL     1      -0.146  -2.515   2.038  0.00  0.00    +0.007 C 
ATOM      9  C   UNL     1      -0.113  -4.044   2.111  0.00  0.00    +0.019 C 
ATOM     10  C   UNL     1       0.226  -4.612   0.729  0.00  0.00    +0.108 C 
ATOM     11  N   UNL     1       1.484  -4.001   0.243  0.00  0.00    -0.294 N 
ATOM     12  C   UNL     1       2.528  -4.756  -0.153  0.00  0.00    +0.247 C 
ATOM     13  O   UNL     1       3.525  -4.226  -0.604  0.00  0.00    -0.270 OA
ENDROOT
BRANCH  12  14
ATOM     14  C   UNL     1       2.460  -6.226  -0.040  0.00  0.00    +0.044 A 
ATOM     15  C   UNL     1       1.347  -6.915  -0.528  0.00  0.00    +0.062 A 
ATOM     16  C   UNL     1       1.285  -8.294  -0.423  0.00  0.00    +0.166 A 
ATOM     17  C   UNL     1       2.331  -8.995   0.168  0.00  0.00    +0.204 A 
ATOM     18  C   UNL     1       3.442  -8.309   0.656  0.00  0.00    +0.166 A 
ATOM     19  C   UNL     1       3.511  -6.933   0.549  0.00  0.00    +0.062 A 
ATOM     20  O   UNL     1       2.289 -10.350   0.272  0.00  0.00    -0.482 OA
ATOM     21  C   UNL     1       1.007 -10.969   0.113  0.00  0.00    +0.270 C 
ATOM     22  C   UNL     1       0.327 -10.356  -1.118  0.00  0.00    +0.270 C 
ATOM     23  O   UNL     1       0.190  -8.948  -0.900  0.00  0.00    -0.485 OA
BRANCH  18  24
ATOM     24  O   UNL     1       4.462  -8.996   1.236  0.00  0.00    -0.491 OA
ATOM     25  C   UNL     1       5.570  -8.231   1.715  0.00  0.00    +0.277 C 
ENDBRANCH  18  24
ENDBRANCH  12  14
TORSDOF 2
