REMARK  Name = ZINC63588420
REMARK  2 active torsions:
REMARK  status: ('A' for Active; 'I' for Inactive)
REMARK    1  A    between atoms: C_7  and  S_16
REMARK    2  A    between atoms: S_16  and  N_19
REMARK                            x       y       z     vdW  Elec       q    Type
REMARK                         _______ _______ _______ _____ _____    ______ ____
ROOT
ATOM      1  C   UNL     1      -0.019   1.520   0.010  0.00  0.00    +0.001 C 
ATOM      2  C   UNL     1       1.396   2.086  -0.000  0.00  0.00    +0.005 C 
ATOM      3  C   UNL     1       2.107   1.666  -1.287  0.00  0.00    +0.037 C 
ATOM      4  C   UNL     1       2.808   0.344  -1.069  0.00  0.00    -0.021 C 
ATOM      5  C   UNL     1       3.839  -0.126  -1.788  0.00  0.00    -0.013 C 
ATOM      6  C   UNL     1       4.453   0.306  -2.980  0.00  0.00    +0.035 C 
ATOM      7  C   UNL     1       4.928  -0.691  -3.786  0.00  0.00    +0.106 C 
ATOM      8  C   UNL     1       4.754  -2.087  -3.398  0.00  0.00    +0.027 C 
ATOM      9  C   UNL     1       4.427  -2.460  -2.156  0.00  0.00    +0.006 C 
ATOM     10  C   UNL     1       4.271  -1.410  -1.094  0.00  0.00    +0.159 C 
ATOM     11  N   UNL     1       3.201  -1.675  -0.143  0.00  0.00    -0.276 NA
ATOM     12  C   UNL     1       2.403  -0.641  -0.132  0.00  0.00    +0.040 C 
ATOM     13  C   UNL     1       1.211  -0.508   0.792  0.00  0.00    +0.055 C 
ATOM     14  C   UNL     1       0.002  -0.004   0.002  0.00  0.00    +0.006 C 
ENDROOT
BRANCH   7  15
ATOM     15  S   UNL     1       5.749  -0.291  -5.292  0.00  0.00    +0.061 S 
ATOM     16  O   UNL     1       5.243  -1.178  -6.280  0.00  0.00    -0.153 OA
ATOM     17  O   UNL     1       5.679   1.122  -5.430  0.00  0.00    -0.153 OA
BRANCH  15  18
ATOM     18  N   UNL     1       7.349  -0.668  -5.093  0.00  0.00    -0.172 NA
ATOM     19  C   UNL     1       8.301   0.322  -4.566  0.00  0.00    +0.137 C 
ATOM     20  C   UNL     1       9.083  -0.323  -3.416  0.00  0.00    +0.177 C 
ATOM     21  O   UNL     1       9.639  -1.563  -3.862  0.00  0.00    -0.377 OA
ATOM     22  C   UNL     1       8.665  -2.536  -4.245  0.00  0.00    +0.177 C 
ATOM     23  C   UNL     1       7.860  -2.006  -5.432  0.00  0.00    +0.137 C 
ENDBRANCH  15  18
ENDBRANCH   7  15
TORSDOF 2
