REMARK  Name = ZINC63445228
REMARK  6 active torsions:
REMARK  status: ('A' for Active; 'I' for Inactive)
REMARK    1  A    between atoms: C_1  and  C_2
REMARK    2  A    between atoms: C_2  and  N_3
REMARK    3  A    between atoms: C_6  and  N_9
REMARK    4  A    between atoms: N_9  and  C_10
REMARK    5  A    between atoms: C_16  and  C_18
REMARK    6  A    between atoms: C_18  and  N_19
REMARK                            x       y       z     vdW  Elec       q    Type
REMARK                         _______ _______ _______ _____ _____    ______ ____
ROOT
ATOM      1  N   UNL     1      -4.932  -2.538  -0.937  0.00  0.00    -0.267 N 
ATOM      2  C   UNL     1      -5.548  -2.111   0.183  0.00  0.00    +0.240 C 
ATOM      3  O   UNL     1      -4.977  -1.352   0.938  0.00  0.00    -0.273 OA
ENDROOT
BRANCH   1   7
ATOM      4  N   UNL     1      -1.173  -0.725  -0.346  0.00  0.00    +0.380 N 
ATOM      5  C   UNL     1      -1.933  -0.299  -1.528  0.00  0.00    -0.077 C 
ATOM      6  C   UNL     1      -3.407  -0.668  -1.351  0.00  0.00    +0.004 C 
ATOM      7  C   UNL     1      -3.531  -2.185  -1.182  0.00  0.00    +0.078 C 
ATOM      8  C   UNL     1      -2.676  -2.628   0.009  0.00  0.00    +0.004 C 
ATOM      9  C   UNL     1      -1.228  -2.186  -0.218  0.00  0.00    -0.077 C 
ATOM     10  H   UNL     1      -1.572  -0.301   0.478  0.00  0.00    -0.082 HD
BRANCH   4  12
ATOM     11  C   UNL     1       0.296   1.229  -0.493  0.00  0.00    -0.017 C 
ATOM     12  C   UNL     1       0.226  -0.299  -0.485  0.00  0.00    -0.082 C 
ENDBRANCH   4  12
ENDBRANCH   1   7
BRANCH   1  13
ATOM     13  C   UNL     1      -5.630  -3.318  -1.865  0.00  0.00    +0.037 A 
ATOM     14  C   UNL     1      -6.699  -2.777  -2.566  0.00  0.00    +0.023 A 
ATOM     15  C   UNL     1      -7.386  -3.550  -3.482  0.00  0.00    +0.002 A 
ATOM     16  C   UNL     1      -7.009  -4.862  -3.702  0.00  0.00    +0.000 A 
ATOM     17  C   UNL     1      -5.944  -5.404  -3.006  0.00  0.00    +0.002 A 
ATOM     18  C   UNL     1      -5.250  -4.635  -2.093  0.00  0.00    +0.023 A 
ENDBRANCH   1  13
BRANCH   2  19
ATOM     19  C   UNL     1      -6.947  -2.575   0.497  0.00  0.00    +0.222 C 
BRANCH  19  20
ATOM     20  N   UNL     1      -7.344  -2.072   1.814  0.00  0.00    -0.290 N 
ATOM     21  C   UNL     1      -7.085  -2.813   2.924  0.00  0.00    +0.203 A 
ATOM     22  N   UNL     1      -7.406  -2.437   4.124  0.00  0.00    -0.237 NA
ATOM     23  C   UNL     1      -8.033  -1.256   4.356  0.00  0.00    +0.078 A 
ATOM     24  C   UNL     1      -8.377  -0.851   5.647  0.00  0.00    +0.028 A 
ATOM     25  C   UNL     1      -9.012   0.355   5.836  0.00  0.00    +0.002 A 
ATOM     26  C   UNL     1      -9.315   1.177   4.758  0.00  0.00    +0.001 A 
ATOM     27  C   UNL     1      -8.985   0.799   3.475  0.00  0.00    +0.015 A 
ATOM     28  C   UNL     1      -8.342  -0.419   3.262  0.00  0.00    +0.065 A 
ATOM     29  C   UNL     1      -7.961  -0.872   1.916  0.00  0.00    +0.262 A 
ATOM     30  O   UNL     1      -8.195  -0.196   0.931  0.00  0.00    -0.267 OA
ENDBRANCH  19  20
ENDBRANCH   2  19
TORSDOF 5
