REMARK  Name = ZINC39676820
REMARK  11 active torsions:
REMARK  status: ('A' for Active; 'I' for Inactive)
REMARK    1  A    between atoms: C_1  and  C_2
REMARK    2  A    between atoms: C_2  and  C_3
REMARK    3  A    between atoms: C_3  and  C_5
REMARK    4  A    between atoms: C_3  and  C_6
REMARK    5  A    between atoms: C_6  and  C_7
REMARK    6  A    between atoms: C_11  and  C_20
REMARK    7  A    between atoms: N_22  and  C_23
REMARK    8  A    between atoms: C_23  and  C_25
REMARK    9  A    between atoms: C_23  and  C_26
REMARK   10  A    between atoms: C_30  and  O_32
REMARK   11  A    between atoms: O_32  and  C_33
REMARK                            x       y       z     vdW  Elec       q    Type
REMARK                         _______ _______ _______ _____ _____    ______ ____
ROOT
ATOM      1  C   UNL     1      -2.538  -2.611   0.135  0.00  0.00    +0.216 C 
ATOM      2  O   UNL     1      -3.404  -1.764   0.092  0.00  0.00    -0.276 OA
ATOM      3  N   UNL     1      -2.872  -3.907   0.298  0.00  0.00    -0.300 N 
ATOM      4  C   UNL     1      -1.964  -5.075   0.381  0.00  0.00    +0.121 C 
ATOM      5  C   UNL     1      -2.586  -5.978   1.470  0.00  0.00    +0.100 C 
ATOM      6  C   UNL     1      -4.074  -5.587   1.500  0.00  0.00    -0.004 C 
ATOM      7  C   UNL     1      -4.229  -4.485   0.442  0.00  0.00    +0.115 C 
ATOM      8  C   UNL     1      -4.451  -5.047   2.876  0.00  0.00    -0.010 C 
ATOM      9  C   UNL     1      -5.947  -4.720   2.897  0.00  0.00    -0.082 C 
ATOM     10  N   UNL     1      -6.719  -5.931   2.597  0.00  0.00    +0.379 N 
ATOM     11  C   UNL     1      -6.419  -6.392   1.236  0.00  0.00    -0.082 C 
ATOM     12  C   UNL     1      -4.943  -6.790   1.143  0.00  0.00    -0.010 C 
ATOM     13  H   UNL     1      -6.477  -6.655   3.256  0.00  0.00    -0.086 HD
ATOM     14  H   UNL     1      -7.704  -5.727   2.672  0.00  0.00    -0.086 HD
ENDROOT
BRANCH   5  15
ATOM     15  C   UNL     1      -1.944  -5.707   2.806  0.00  0.00    +0.219 C 
ATOM     16  O   UNL     1      -1.512  -4.603   3.059  0.00  0.00    -0.275 OA
ATOM     17  N   UNL     1      -1.849  -6.693   3.720  0.00  0.00    -0.308 N 
ATOM     18  H   UNL     1      -2.194  -7.577   3.518  0.00  0.00    +0.149 HD
BRANCH  17  19
ATOM     19  C   UNL     1      -1.224  -6.431   5.019  0.00  0.00    +0.100 C 
ATOM     20  C   UNL     1       0.292  -6.596   4.899  0.00  0.00    +0.033 C 
BRANCH  19  21
ATOM     21  C   UNL     1      -1.757  -7.404   6.038  0.00  0.00    -0.024 A 
ATOM     22  C   UNL     1      -1.958  -8.728   5.691  0.00  0.00    +0.005 A 
ATOM     23  C   UNL     1      -2.446  -9.623   6.623  0.00  0.00    +0.004 A 
ATOM     24  C   UNL     1      -2.735  -9.198   7.906  0.00  0.00    +0.045 A 
ATOM     25  C   UNL     1      -2.534  -7.872   8.258  0.00  0.00    +0.120 A 
ATOM     26  C   UNL     1      -2.038  -6.976   7.321  0.00  0.00    +0.051 A 
BRANCH  25  27
ATOM     27  O   UNL     1      -2.817  -7.451   9.518  0.00  0.00    -0.495 OA
ATOM     28  C   UNL     1      -3.318  -8.430  10.431  0.00  0.00    +0.277 C 
ENDBRANCH  25  27
ENDBRANCH  19  21
ENDBRANCH  17  19
ENDBRANCH   5  15
BRANCH   1  29
ATOM     29  C   UNL     1      -1.090  -2.216   0.007  0.00  0.00    +0.099 C 
BRANCH  29  30
ATOM     30  C   UNL     1      -0.988  -0.700  -0.168  0.00  0.00    -0.006 C 
ATOM     31  C   UNL     1      -1.638  -0.294  -1.492  0.00  0.00    +0.008 C 
BRANCH  30  33
ATOM     32  C   UNL     1       0.584   1.241  -0.222  0.00  0.00    +0.004 C 
ATOM     33  C   UNL     1       0.484  -0.285  -0.173  0.00  0.00    +0.000 C 
ENDBRANCH  30  33
ENDBRANCH  29  30
ENDBRANCH   1  29
TORSDOF 7
