REMARK  Name = ZINC14013436
REMARK  8 active torsions:
REMARK  status: ('A' for Active; 'I' for Inactive)
REMARK    1  A    between atoms: C_1  and  C_2
REMARK    2  A    between atoms: C_5  and  N_9
REMARK    3  A    between atoms: C_6  and  C_8
REMARK    4  A    between atoms: C_10  and  C_12
REMARK    5  A    between atoms: C_12  and  C_13
REMARK    6  A    between atoms: N_24  and  C_27
REMARK    7  A    between atoms: C_30  and  C_34
REMARK    8  A    between atoms: C_31  and  C_33
REMARK                            x       y       z     vdW  Elec       q    Type
REMARK                         _______ _______ _______ _____ _____    ______ ____
ROOT
ATOM      1  C   UNL     1       2.378   0.623  -0.066  0.00  0.00    +0.112 C 
ATOM      2  C   UNL     1       1.908   2.083  -0.130  0.00  0.00    +0.103 C 
ATOM      3  S   UNL     1       0.090   1.870  -0.107  0.00  0.00    -0.085 S 
ATOM      4  C   UNL     1       0.008   0.093  -0.024  0.00  0.00    +0.174 A 
ATOM      5  N   UNL     1       1.296  -0.360  -0.012  0.00  0.00    -0.283 N 
ATOM      6  C   UNL     1       1.486  -1.718   0.049  0.00  0.00    +0.266 A 
ATOM      7  O   UNL     1       2.614  -2.177   0.063  0.00  0.00    -0.267 OA
ATOM      8  C   UNL     1       0.370  -2.581   0.097  0.00  0.00    +0.103 A 
ATOM      9  C   UNL     1       0.213  -3.982   0.163  0.00  0.00    +0.150 A 
ATOM     10  N   UNL     1      -1.062  -4.255   0.185  0.00  0.00    -0.172 NA
ATOM     11  N   UNL     1      -1.797  -3.064   0.135  0.00  0.00    -0.214 N 
ATOM     12  C   UNL     1      -0.919  -2.025   0.081  0.00  0.00    +0.171 A 
ATOM     13  N   UNL     1      -1.042  -0.695   0.020  0.00  0.00    -0.203 NA
ENDROOT
BRANCH  11  14
ATOM     14  C   UNL     1      -3.194  -2.960   0.140  0.00  0.00    +0.068 A 
ATOM     15  C   UNL     1      -3.810  -1.899   0.791  0.00  0.00    +0.028 A 
ATOM     16  C   UNL     1      -5.187  -1.797   0.789  0.00  0.00    +0.006 A 
ATOM     17  C   UNL     1      -5.953  -2.756   0.151  0.00  0.00    -0.047 A 
ATOM     18  C   UNL     1      -5.343  -3.816  -0.492  0.00  0.00    -0.046 A 
ATOM     19  C   UNL     1      -3.965  -3.921  -0.500  0.00  0.00    +0.031 A 
ATOM     20  C   UNL     1      -6.181  -4.858  -1.187  0.00  0.00    +0.044 C 
ATOM     21  C   UNL     1      -7.456  -2.644   0.157  0.00  0.00    +0.044 C 
ENDBRANCH  11  14
BRANCH   1  22
ATOM     22  C   UNL     1       3.253   0.450   1.176  0.00  0.00    +0.122 C 
BRANCH  22  24
ATOM     23  N   UNL     1       5.404   1.323   2.030  0.00  0.00    -0.285 N 
ATOM     24  C   UNL     1       4.459   1.347   1.070  0.00  0.00    +0.219 C 
ATOM     25  O   UNL     1       4.580   2.092   0.120  0.00  0.00    -0.275 OA
ATOM     26  H   UNL     1       5.349   0.674   2.749  0.00  0.00    +0.155 HD
BRANCH  23  31
ATOM     27  C   UNL     1       9.710   5.013   1.870  0.00  0.00    +0.044 C 
ATOM     28  C   UNL     1       8.566   4.033   1.912  0.00  0.00    -0.050 A 
ATOM     29  C   UNL     1       7.999   3.583   0.734  0.00  0.00    +0.005 A 
ATOM     30  C   UNL     1       6.955   2.680   0.770  0.00  0.00    +0.024 A 
ATOM     31  C   UNL     1       6.466   2.233   1.991  0.00  0.00    +0.036 A 
ATOM     32  C   UNL     1       7.037   2.688   3.172  0.00  0.00    -0.029 A 
ATOM     33  C   UNL     1       8.085   3.586   3.129  0.00  0.00    +0.008 A 
ATOM     34  C   UNL     1       6.515   2.200   4.499  0.00  0.00    +0.045 C 
ENDBRANCH  23  31
ENDBRANCH  22  24
ENDBRANCH   1  22
TORSDOF 4
