REMARK  Name = ZINC13076128
REMARK  7 active torsions:
REMARK  status: ('A' for Active; 'I' for Inactive)
REMARK    1  A    between atoms: C_1  and  C_2
REMARK    2  A    between atoms: C_5  and  N_30
REMARK    3  A    between atoms: C_7  and  N_8
REMARK    4  A    between atoms: C_9  and  C_11
REMARK    5  A    between atoms: C_11  and  O_12
REMARK    6  A    between atoms: O_12  and  C_13
REMARK    7  A    between atoms: C_13  and  C_15
REMARK                            x       y       z     vdW  Elec       q    Type
REMARK                         _______ _______ _______ _____ _____    ______ ____
ROOT
ATOM      1  O   UNL     1       3.508   4.027   1.948  0.00  0.00    -0.455 OA
ENDROOT
BRANCH   1   2
ATOM      2  C   UNL     1       3.040   3.185   1.013  0.00  0.00    +0.311 C 
ATOM      3  O   UNL     1       3.711   2.926   0.042  0.00  0.00    -0.251 OA
BRANCH   2   4
ATOM      4  C   UNL     1       1.669   2.561   1.175  0.00  0.00    +0.098 C 
ATOM      5  C   UNL     1       0.634   3.675   1.276  0.00  0.00    +0.020 C 
ATOM      6  C   UNL     1      -0.789   3.122   1.274  0.00  0.00    +0.016 C 
ATOM      7  C   UNL     1      -1.525   3.652   0.034  0.00  0.00    +0.006 C 
ATOM      8  C   UNL     1      -0.823   3.163  -1.232  0.00  0.00    +0.001 C 
ATOM      9  C   UNL     1      -0.760   1.637  -1.263  0.00  0.00    +0.006 C 
ATOM     10  C   UNL     1      -0.029   1.122  -0.014  0.00  0.00    +0.016 C 
ATOM     11  C   UNL     1       1.401   1.657  -0.024  0.00  0.00    +0.020 C 
ATOM     12  C   UNL     1      -0.781   1.605   1.214  0.00  0.00    +0.068 C 
ATOM     13  S   UNL     1      -0.101   0.876   2.745  0.00  0.00    -0.142 S 
ATOM     14  C   UNL     1      -1.611   0.501   3.721  0.00  0.00    +0.081 C 
ATOM     15  C   UNL     1      -2.620  -0.075   2.695  0.00  0.00    +0.081 C 
ATOM     16  S   UNL     1      -2.496   0.965   1.195  0.00  0.00    -0.142 S 
ENDBRANCH   2   4
ENDBRANCH   1   2
BRANCH   1  17
ATOM     17  C   UNL     1       4.829   4.588   1.727  0.00  0.00    +0.328 C 
BRANCH  17  19
ATOM     18  N   UNL     1       6.372   6.139   2.881  0.00  0.00    -0.282 N 
ATOM     19  C   UNL     1       5.184   5.503   2.871  0.00  0.00    +0.255 C 
ATOM     20  O   UNL     1       4.401   5.665   3.783  0.00  0.00    -0.272 OA
ATOM     21  H   UNL     1       7.119   5.923   2.103  0.00  0.00    +0.155 HD
BRANCH  18  28
ATOM     22  C   UNL     1       9.099   6.645   3.515  0.00  0.00    +0.045 C 
ATOM     23  C   UNL     1       7.972   7.353   4.223  0.00  0.00    -0.029 A 
ATOM     24  C   UNL     1       8.248   8.278   5.210  0.00  0.00    +0.007 A 
ATOM     25  C   UNL     1       7.215   8.928   5.859  0.00  0.00    +0.033 A 
ATOM     26  C   UNL     1       5.902   8.655   5.522  0.00  0.00    +0.128 A 
ATOM     27  C   UNL     1       5.619   7.734   4.532  0.00  0.00    +0.056 A 
ATOM     28  C   UNL     1       6.655   7.076   3.882  0.00  0.00    +0.039 A 
BRANCH  26  29
ATOM     29  N   UNL     1       4.799   9.354   6.218  0.00  0.00    +0.056 N 
ATOM     30  O   UNL     1       5.047  10.169   7.088  0.00  0.00    -0.126 OA
ATOM     31  O   UNL     1       3.642   9.113   5.922  0.00  0.00    -0.126 OA
ENDBRANCH  26  29
ENDBRANCH  18  28
ENDBRANCH  17  19
ENDBRANCH   1  17
TORSDOF 6
