REMARK  Name = ZINC64491629
REMARK  4 active torsions:
REMARK  status: ('A' for Active; 'I' for Inactive)
REMARK    1  A    between atoms: C_1  and  C_2
REMARK    2  A    between atoms: C_9  and  S_14
REMARK    3  A    between atoms: S_14  and  N_17
REMARK    4  A    between atoms: C_23  and  C_25
REMARK                            x       y       z     vdW  Elec       q    Type
REMARK                         _______ _______ _______ _____ _____    ______ ____
ROOT
ATOM      1  N   UNL     1       6.878   1.730   0.922  0.00  0.00    -0.174 NA
ATOM      2  C   UNL     1       7.032   2.288  -0.429  0.00  0.00    +0.128 C 
ATOM      3  C   UNL     1       6.050   3.455  -0.592  0.00  0.00    +0.125 C 
ATOM      4  N   UNL     1       6.190   4.351   0.565  0.00  0.00    -0.297 N 
ATOM      5  C   UNL     1       6.037   3.793   1.916  0.00  0.00    +0.125 C 
ATOM      6  C   UNL     1       7.013   2.627   2.078  0.00  0.00    +0.128 C 
ATOM      7  C   UNL     1       6.455   5.661   0.390  0.00  0.00    +0.242 C 
ATOM      8  O   UNL     1       6.580   6.110  -0.730  0.00  0.00    -0.273 OA
ENDROOT
BRANCH   7   9
ATOM      9  C   UNL     1       6.597   6.568   1.585  0.00  0.00    +0.190 C 
ATOM     10  C   UNL     1       7.766   6.128   2.438  0.00  0.00    +0.016 C 
ATOM     11  C   UNL     1       8.628   7.169   2.457  0.00  0.00    -0.004 A 
ATOM     12  C   UNL     1       9.932   7.368   3.101  0.00  0.00    +0.010 A 
ATOM     13  C   UNL     1      10.573   8.547   2.934  0.00  0.00    +0.001 A 
ATOM     14  C   UNL     1      10.024   9.582   2.164  0.00  0.00    +0.002 A 
ATOM     15  C   UNL     1       8.831   9.474   1.542  0.00  0.00    +0.026 A 
ATOM     16  C   UNL     1       8.070   8.277   1.649  0.00  0.00    +0.043 A 
ATOM     17  N   UNL     1       6.906   7.934   1.150  0.00  0.00    -0.370 N 
ATOM     18  H   UNL     1       6.345   8.490   0.587  0.00  0.00    +0.161 HD
ENDBRANCH   7   9
BRANCH   1  19
ATOM     19  S   UNL     1       6.552   0.121   1.137  0.00  0.00    +0.061 S 
ATOM     20  O   UNL     1       7.000  -0.213   2.444  0.00  0.00    -0.153 OA
ATOM     21  O   UNL     1       7.025  -0.548  -0.024  0.00  0.00    -0.153 OA
BRANCH  19  29
ATOM     22  C   UNL     1      -0.019   1.526   0.010  0.00  0.00    +0.062 C 
ATOM     23  C   UNL     1       0.002  -0.004   0.002  0.00  0.00    +0.256 C 
ATOM     24  C   UNL     1       0.706  -0.490  -1.239  0.00  0.00    +0.258 C 
ATOM     25  O   UNL     1       0.074  -0.718  -2.249  0.00  0.00    -0.271 OA
ATOM     26  N   UNL     1       2.045  -0.669  -1.223  0.00  0.00    -0.279 N 
ATOM     27  C   UNL     1       2.748  -0.433  -0.033  0.00  0.00    +0.078 A 
ATOM     28  C   UNL     1       4.126  -0.291  -0.041  0.00  0.00    +0.055 A 
ATOM     29  C   UNL     1       4.800  -0.060   1.144  0.00  0.00    +0.107 A 
ATOM     30  C   UNL     1       4.102   0.031   2.335  0.00  0.00    +0.032 A 
ATOM     31  C   UNL     1       2.726  -0.109   2.349  0.00  0.00    +0.049 A 
ATOM     32  C   UNL     1       2.045  -0.340   1.167  0.00  0.00    +0.143 A 
ATOM     33  O   UNL     1       0.692  -0.477   1.161  0.00  0.00    -0.478 OA
ATOM     34  H   UNL     1       2.513  -0.958  -2.022  0.00  0.00    +0.155 HD
ENDBRANCH  19  29
ENDBRANCH   1  19
TORSDOF 3
