REMARK  Name = ZINC54516016
REMARK  11 active torsions:
REMARK  status: ('A' for Active; 'I' for Inactive)
REMARK    1  A    between atoms: C_1  and  C_2
REMARK    2  A    between atoms: C_2  and  C_3
REMARK    3  A    between atoms: C_3  and  N_4
REMARK    4  A    between atoms: N_4  and  C_5
REMARK    5  A    between atoms: N_4  and  C_14
REMARK    6  A    between atoms: C_5  and  C_6
REMARK    7  A    between atoms: C_9  and  C_12
REMARK    8  A    between atoms: C_14  and  N_15
REMARK    9  A    between atoms: C_21  and  C_27
REMARK   10  A    between atoms: C_22  and  C_26
REMARK   11  A    between atoms: C_23  and  C_25
REMARK                            x       y       z     vdW  Elec       q    Type
REMARK                         _______ _______ _______ _____ _____    ______ ____
ROOT
ATOM      1  N   UNL     1       1.018  -1.827  -0.933  0.00  0.00    +0.395 N 
ATOM      2  H   UNL     1       1.340  -2.139  -0.029  0.00  0.00    -0.079 HD
ENDROOT
BRANCH   1   3
ATOM      3  C   UNL     1       0.772  -0.380  -0.894  0.00  0.00    -0.076 C 
BRANCH   3   5
ATOM      4  C   UNL     1      -0.344   1.462   0.373  0.00  0.00    +0.002 C 
ATOM      5  C   UNL     1      -0.182  -0.055   0.257  0.00  0.00    -0.022 C 
ENDBRANCH   3   5
ENDBRANCH   1   3
BRANCH   1   6
ATOM      6  C   UNL     1      -0.228  -2.526  -1.277  0.00  0.00    -0.040 C 
BRANCH   6   7
ATOM      7  C   UNL     1      -0.012  -4.014  -1.180  0.00  0.00    -0.064 A 
ATOM      8  C   UNL     1       0.317  -4.738  -2.312  0.00  0.00    +0.003 A 
ATOM      9  C   UNL     1       0.516  -6.101  -2.231  0.00  0.00    +0.019 A 
ATOM     10  C   UNL     1       0.385  -6.749  -1.001  0.00  0.00    +0.052 A 
ATOM     11  C   UNL     1       0.053  -6.013   0.138  0.00  0.00    +0.019 A 
ATOM     12  C   UNL     1      -0.138  -4.650   0.043  0.00  0.00    +0.003 A 
BRANCH  10  13
ATOM     13  C   UNL     1       0.589  -8.164  -0.909  0.00  0.00    +0.099 C 
ATOM     14  N   UNL     1       0.752  -9.286  -0.836  0.00  0.00    -0.191 NA
ENDBRANCH  10  13
ENDBRANCH   6   7
ENDBRANCH   1   6
BRANCH   1  15
ATOM     15  C   UNL     1       2.040  -2.123  -1.946  0.00  0.00    +0.071 C 
BRANCH  15  16
ATOM     16  N   UNL     1       3.309  -1.503  -1.554  0.00  0.00    -0.271 N 
ATOM     17  C   UNL     1       3.842  -0.372  -2.059  0.00  0.00    +0.197 A 
ATOM     18  S   UNL     1       3.142   0.599  -3.283  0.00  0.00    -0.010 S 
ATOM     19  N   UNL     1       5.002  -0.133  -1.449  0.00  0.00    -0.185 NA
ATOM     20  C   UNL     1       5.246  -1.086  -0.549  0.00  0.00    +0.253 A 
ATOM     21  N   UNL     1       4.202  -1.968  -0.578  0.00  0.00    -0.222 N 
ATOM     22  C   UNL     1       4.188  -3.038   0.244  0.00  0.00    +0.046 A 
ATOM     23  C   UNL     1       5.226  -3.227   1.104  0.00  0.00    -0.008 A 
ATOM     24  C   UNL     1       6.278  -2.308   1.114  0.00  0.00    +0.047 A 
ATOM     25  N   UNL     1       6.265  -1.278   0.293  0.00  0.00    -0.216 NA
ATOM     26  C   UNL     1       7.435  -2.500   2.060  0.00  0.00    +0.066 C 
ATOM     27  C   UNL     1       5.239  -4.412   2.035  0.00  0.00    +0.047 C 
ATOM     28  C   UNL     1       3.038  -4.012   0.210  0.00  0.00    +0.066 C 
ENDBRANCH  15  16
ENDBRANCH   1  15
TORSDOF 7
