REMARK  Name = ZINC62477811
REMARK  7 active torsions:
REMARK  status: ('A' for Active; 'I' for Inactive)
REMARK    1  A    between atoms: C_1  and  C_2
REMARK    2  A    between atoms: N_4  and  C_9
REMARK    3  A    between atoms: C_6  and  C_8
REMARK    4  A    between atoms: C_9  and  C_10
REMARK    5  A    between atoms: C_10  and  N_11
REMARK    6  A    between atoms: C_17  and  N_20
REMARK    7  A    between atoms: C_21  and  C_23
REMARK                            x       y       z     vdW  Elec       q    Type
REMARK                         _______ _______ _______ _____ _____    ______ ____
ROOT
ATOM      1  N   UNL     1      -3.171  -6.772  -0.432  0.00  0.00    -0.298 N 
ATOM      2  C   UNL     1      -4.235  -5.954  -0.318  0.00  0.00    +0.302 C 
ATOM      3  O   UNL     1      -4.070  -4.771  -0.091  0.00  0.00    -0.253 OA
ATOM      4  N   UNL     1      -5.482  -6.447  -0.455  0.00  0.00    -0.286 N 
ATOM      5  C   UNL     1      -6.646  -5.550  -0.448  0.00  0.00    +0.111 C 
ATOM      6  C   UNL     1      -7.476  -5.811  -1.709  0.00  0.00    +0.041 C 
ATOM      7  C   UNL     1      -7.829  -7.298  -1.784  0.00  0.00    +0.076 C 
ATOM      8  C   UNL     1      -6.544  -8.125  -1.872  0.00  0.00    +0.041 C 
ATOM      9  C   UNL     1      -5.703  -7.890  -0.619  0.00  0.00    +0.111 C 
ATOM     10  H   UNL     1      -3.303  -7.727  -0.540  0.00  0.00    +0.150 HD
ENDROOT
BRANCH   7  11
ATOM     11  N   UNL     1      -8.651  -7.546  -2.971  0.00  0.00    -0.312 N 
ATOM     12  C   UNL     1      -9.485  -8.604  -3.004  0.00  0.00    +0.216 C 
ATOM     13  O   UNL     1      -9.556  -9.351  -2.051  0.00  0.00    -0.276 OA
ATOM     14  H   UNL     1      -8.595  -6.949  -3.733  0.00  0.00    +0.149 HD
BRANCH  12  15
ATOM     15  C   UNL     1     -10.331  -8.859  -4.225  0.00  0.00    +0.075 C 
ATOM     16  C   UNL     1     -11.247  -7.658  -4.471  0.00  0.00    +0.013 C 
ATOM     17  C   UNL     1     -12.105  -7.916  -5.710  0.00  0.00    +0.001 C 
ATOM     18  C   UNL     1     -12.955  -9.169  -5.490  0.00  0.00    +0.000 C 
ATOM     19  C   UNL     1     -12.040 -10.370  -5.244  0.00  0.00    +0.001 C 
ATOM     20  C   UNL     1     -11.181 -10.111  -4.004  0.00  0.00    +0.013 C 
ENDBRANCH  12  15
ENDBRANCH   7  11
BRANCH   1  21
ATOM     21  C   UNL     1      -1.814  -6.220  -0.395  0.00  0.00    +0.121 C 
BRANCH  21  22
ATOM     22  C   UNL     1      -0.797  -7.354  -0.544  0.00  0.00    +0.103 C 
BRANCH  22  26
ATOM     23  C   UNL     1       4.014  -8.358  -0.291  0.00  0.00    +0.039 C 
ATOM     24  C   UNL     1       2.961  -7.248  -0.312  0.00  0.00    +0.130 C 
ATOM     25  C   UNL     1       1.565  -7.870  -0.409  0.00  0.00    +0.115 C 
ATOM     26  N   UNL     1       0.562  -6.800  -0.507  0.00  0.00    -0.296 NA
ATOM     27  C   UNL     1       0.819  -5.951  -1.680  0.00  0.00    +0.115 C 
ATOM     28  C   UNL     1       2.222  -5.349  -1.570  0.00  0.00    +0.130 C 
ATOM     29  O   UNL     1       3.180  -6.403  -1.445  0.00  0.00    -0.371 OA
ATOM     30  C   UNL     1       2.525  -4.529  -2.826  0.00  0.00    +0.039 C 
ENDBRANCH  22  26
ENDBRANCH  21  22
ENDBRANCH   1  21
TORSDOF 5
