REMARK  Name = ZINC63804666
REMARK  9 active torsions:
REMARK  status: ('A' for Active; 'I' for Inactive)
REMARK    1  A    between atoms: C_1  and  C_2
REMARK    2  A    between atoms: C_2  and  O_3
REMARK    3  A    between atoms: O_3  and  C_4
REMARK    4  A    between atoms: C_7  and  S_10
REMARK    5  A    between atoms: S_10  and  N_13
REMARK    6  A    between atoms: N_13  and  C_14
REMARK    7  A    between atoms: C_14  and  C_15
REMARK    8  A    between atoms: C_15  and  C_16
REMARK    9  A    between atoms: C_24  and  C_26
REMARK                            x       y       z     vdW  Elec       q    Type
REMARK                         _______ _______ _______ _____ _____    ______ ____
ROOT
ATOM      1  N   UNL     1      -0.207  -6.790  -2.721  0.00  0.00    -0.190 NA
ATOM      2  H   UNL     1      -0.853  -7.379  -2.301  0.00  0.00    +0.148 HD
ENDROOT
BRANCH   1   3
ATOM      3  S   UNL     1       1.129  -6.292  -1.878  0.00  0.00    +0.058 S 
ATOM      4  O   UNL     1       2.249  -6.512  -2.724  0.00  0.00    -0.153 OA
ATOM      5  O   UNL     1       1.029  -6.867  -0.582  0.00  0.00    -0.153 OA
BRANCH   3   9
ATOM      6  C   UNL     1       0.777  -1.810  -1.336  0.00  0.00    +0.121 A 
ATOM      7  C   UNL     1       0.243  -2.669  -0.386  0.00  0.00    +0.047 A 
ATOM      8  C   UNL     1       0.351  -4.036  -0.554  0.00  0.00    +0.032 A 
ATOM      9  C   UNL     1       0.992  -4.548  -1.667  0.00  0.00    +0.105 A 
ATOM     10  C   UNL     1       1.525  -3.694  -2.615  0.00  0.00    +0.032 A 
ATOM     11  C   UNL     1       1.414  -2.327  -2.455  0.00  0.00    +0.047 A 
BRANCH   6  12
ATOM     12  O   UNL     1       0.671  -0.465  -1.174  0.00  0.00    -0.492 OA
BRANCH  12  14
ATOM     13  C   UNL     1      -0.019   1.526   0.010  0.00  0.00    +0.048 C 
ATOM     14  C   UNL     1       0.002  -0.004   0.002  0.00  0.00    +0.225 C 
ENDBRANCH  12  14
ENDBRANCH   6  12
ENDBRANCH   3   9
ENDBRANCH   1   3
BRANCH   1  15
ATOM     15  C   UNL     1      -0.412  -6.341  -4.100  0.00  0.00    +0.110 C 
BRANCH  15  16
ATOM     16  C   UNL     1      -1.479  -7.212  -4.767  0.00  0.00    +0.050 C 
BRANCH  16  17
ATOM     17  C   UNL     1      -1.690  -6.750  -6.185  0.00  0.00    -0.037 C 
ATOM     18  C   UNL     1      -1.053  -5.735  -6.813  0.00  0.00    +0.002 A 
ATOM     19  C   UNL     1      -0.015  -4.793  -6.379  0.00  0.00    +0.048 A 
ATOM     20  C   UNL     1       0.436  -3.863  -7.254  0.00  0.00    +0.124 A 
ATOM     21  C   UNL     1      -0.066  -3.778  -8.562  0.00  0.00    +0.040 A 
ATOM     22  C   UNL     1      -1.020  -4.608  -9.032  0.00  0.00    +0.029 A 
ATOM     23  C   UNL     1      -1.565  -5.623  -8.198  0.00  0.00    +0.043 A 
ATOM     24  N   UNL     1      -2.482  -6.534  -8.418  0.00  0.00    -0.378 N 
ATOM     25  C   UNL     1      -2.651  -7.331  -7.198  0.00  0.00    +0.103 C 
ATOM     26  C   UNL     1      -4.089  -7.212  -6.689  0.00  0.00    +0.035 C 
ATOM     27  F   UNL     1       1.392  -2.994  -6.857  0.00  0.00    -0.205 F 
ATOM     28  H   UNL     1      -2.965  -6.662  -9.249  0.00  0.00    +0.160 HD
ENDBRANCH  16  17
ENDBRANCH  15  16
ENDBRANCH   1  15
TORSDOF 7
