REMARK  Name = ZINC62834458
REMARK  2 active torsions:
REMARK  status: ('A' for Active; 'I' for Inactive)
REMARK    1  A    between atoms: C_6  and  N_7
REMARK    2  A    between atoms: C_9  and  C_12
REMARK                            x       y       z     vdW  Elec       q    Type
REMARK                         _______ _______ _______ _____ _____    ______ ____
ROOT
ATOM      1  C   UNL     1       0.035   1.341   0.773  0.00  0.00    +0.025 A 
ATOM      2  C   UNL     1       1.236   1.983   0.973  0.00  0.00    +0.028 A 
ATOM      3  C   UNL     1       2.424   1.383   0.566  0.00  0.00    +0.047 A 
ATOM      4  C   UNL     1       2.389   0.117  -0.052  0.00  0.00    +0.002 A 
ATOM      5  C   UNL     1       1.160  -0.526  -0.250  0.00  0.00    +0.032 A 
ATOM      6  C   UNL     1      -0.006   0.088   0.162  0.00  0.00    +0.025 A 
ATOM      7  C   UNL     1       3.727  -0.233  -0.352  0.00  0.00    +0.041 A 
ATOM      8  C   UNL     1       4.526   0.782   0.069  0.00  0.00    +0.103 A 
ATOM      9  N   UNL     1       3.743   1.772   0.630  0.00  0.00    -0.351 N 
ATOM     10  H   UNL     1       4.069   2.604   1.007  0.00  0.00    +0.166 HD
ENDROOT
BRANCH   8  11
ATOM     11  C   UNL     1       5.991   0.820  -0.052  0.00  0.00    +0.263 C 
ATOM     12  O   UNL     1       6.628  -0.216  -0.060  0.00  0.00    -0.268 OA
ATOM     13  N   UNL     1       6.628   2.004  -0.154  0.00  0.00    -0.289 N 
ATOM     14  C   UNL     1       5.863   3.259  -0.135  0.00  0.00    +0.136 C 
ATOM     15  C   UNL     1       6.329   4.099  -1.332  0.00  0.00    +0.179 C 
ATOM     16  O   UNL     1       7.744   4.261  -1.246  0.00  0.00    -0.373 OA
ATOM     17  C   UNL     1       8.511   3.061  -1.362  0.00  0.00    +0.139 C 
ATOM     18  C   UNL     1       8.080   2.046  -0.278  0.00  0.00    +0.105 C 
ATOM     19  C   UNL     1       8.726   2.596   1.010  0.00  0.00    +0.025 C 
ATOM     20  C   UNL     1      10.101   3.120   0.541  0.00  0.00    +0.004 C 
ATOM     21  C   UNL     1       9.970   3.405  -0.977  0.00  0.00    +0.033 C 
ENDBRANCH   8  11
BRANCH   6  22
ATOM     22  N   UNL     1      -1.236  -0.551  -0.034  0.00  0.00    -0.358 N 
ATOM     23  H   UNL     1      -2.057  -0.122   0.255  0.00  0.00    +0.142 HD
ATOM     24  H   UNL     1      -1.268  -1.423  -0.459  0.00  0.00    +0.142 HD
ENDBRANCH   6  22
TORSDOF 2
