REMARK  Name = ZINC40798614
REMARK  6 active torsions:
REMARK  status: ('A' for Active; 'I' for Inactive)
REMARK    1  A    between atoms: C_1  and  O_2
REMARK    2  A    between atoms: O_2  and  C_3
REMARK    3  A    between atoms: C_6  and  C_9
REMARK    4  A    between atoms: C_9  and  C_11
REMARK    5  A    between atoms: C_12  and  N_20
REMARK    6  A    between atoms: C_21  and  C_23
REMARK                            x       y       z     vdW  Elec       q    Type
REMARK                         _______ _______ _______ _____ _____    ______ ____
ROOT
ATOM      1  C   UNL     1       2.254  -3.959   4.572  0.00  0.00    +0.197 A 
ATOM      2  C   UNL     1       3.025  -4.675   5.467  0.00  0.00    +0.091 A 
ATOM      3  C   UNL     1       3.021  -6.059   4.976  0.00  0.00    +0.042 A 
ATOM      4  C   UNL     1       3.601  -7.247   5.423  0.00  0.00    +0.013 A 
ATOM      5  C   UNL     1       3.402  -8.403   4.722  0.00  0.00    +0.001 A 
ATOM      6  C   UNL     1       2.626  -8.402   3.571  0.00  0.00    +0.004 A 
ATOM      7  C   UNL     1       2.045  -7.239   3.115  0.00  0.00    +0.047 A 
ATOM      8  C   UNL     1       2.234  -6.051   3.811  0.00  0.00    +0.138 A 
ATOM      9  O   UNL     1       1.796  -4.792   3.612  0.00  0.00    -0.450 OA
ENDROOT
BRANCH   2  10
ATOM     10  N   UNL     1       3.671  -4.188   6.594  0.00  0.00    -0.277 N 
ATOM     11  C   UNL     1       3.930  -5.010   7.630  0.00  0.00    +0.270 C 
ATOM     12  O   UNL     1       3.538  -6.161   7.606  0.00  0.00    -0.268 OA
ATOM     13  H   UNL     1       3.936  -3.256   6.637  0.00  0.00    +0.155 HD
BRANCH  11  14
ATOM     14  C   UNL     1       4.689  -4.513   8.796  0.00  0.00    +0.167 A 
ATOM     15  C   UNL     1       5.028  -5.261   9.928  0.00  0.00    +0.098 A 
ATOM     16  C   UNL     1       5.737  -4.428  10.781  0.00  0.00    +0.086 A 
ATOM     17  C   UNL     1       6.322  -4.631  12.047  0.00  0.00    +0.029 A 
ATOM     18  C   UNL     1       6.969  -3.599  12.653  0.00  0.00    +0.004 A 
ATOM     19  C   UNL     1       7.043  -2.352  12.009  0.00  0.00    +0.020 A 
ATOM     20  C   UNL     1       6.477  -2.173  10.797  0.00  0.00    +0.113 A 
ATOM     21  N   UNL     1       5.824  -3.199  10.175  0.00  0.00    -0.238 N 
ATOM     22  N   UNL     1       5.168  -3.285   8.941  0.00  0.00    -0.160 NA
ATOM     23 CL   UNL     1       4.633  -6.927  10.214  0.00  0.00    -0.079 Cl
ENDBRANCH  11  14
ENDBRANCH   2  10
BRANCH   1  24
ATOM     24  C   UNL     1       1.982  -2.571   4.653  0.00  0.00    +0.230 C 
ATOM     25  O   UNL     1       2.518  -1.893   5.513  0.00  0.00    -0.283 OA
BRANCH  24  29
ATOM     26  C   UNL     1      -0.702  -0.769   1.896  0.00  0.00    +0.120 A 
ATOM     27  C   UNL     1      -0.194  -0.026   2.956  0.00  0.00    +0.046 A 
ATOM     28  C   UNL     1       0.676  -0.607   3.852  0.00  0.00    +0.015 A 
ATOM     29  C   UNL     1       1.048  -1.944   3.695  0.00  0.00    +0.026 A 
ATOM     30  C   UNL     1       0.535  -2.688   2.629  0.00  0.00    +0.015 A 
ATOM     31  C   UNL     1      -0.338  -2.102   1.740  0.00  0.00    +0.046 A 
BRANCH  26  33
ATOM     32  C   UNL     1      -1.891   1.179   1.235  0.00  0.00    +0.277 C 
ATOM     33  O   UNL     1      -1.559  -0.194   1.016  0.00  0.00    -0.495 OA
ENDBRANCH  26  33
ENDBRANCH  24  29
ENDBRANCH   1  24
TORSDOF 5
