REMARK  Name = ZINC15226522
REMARK  6 active torsions:
REMARK  status: ('A' for Active; 'I' for Inactive)
REMARK    1  A    between atoms: C_1  and  C_2
REMARK    2  A    between atoms: C_5  and  C_16
REMARK    3  A    between atoms: C_5  and  C_27
REMARK    4  A    between atoms: C_6  and  C_9
REMARK    5  A    between atoms: N_18  and  N_19
REMARK    6  A    between atoms: C_20  and  C_21
REMARK                            x       y       z     vdW  Elec       q    Type
REMARK                         _______ _______ _______ _____ _____    ______ ____
ROOT
ATOM      1  C   UNL     1       0.985   3.732   0.058  0.00  0.00    +0.039 C 
ATOM      2  C   UNL     1       1.121   2.232   0.030  0.00  0.00    -0.076 C 
ATOM      3  C   UNL     1       0.038   1.523   0.070  0.00  0.00    -0.026 C 
ATOM      4  C   UNL     1       0.014   0.023   0.059  0.00  0.00    +0.055 C 
ATOM      5  C   UNL     1       1.359  -0.522  -0.426  0.00  0.00    +0.159 C 
ATOM      6  C   UNL     1       2.477   0.176   0.358  0.00  0.00    +0.049 C 
ATOM      7  C   UNL     1       2.503   1.652  -0.044  0.00  0.00    +0.040 C 
ENDROOT
BRANCH   6   8
ATOM      8  C   UNL     1       3.802  -0.463   0.029  0.00  0.00    -0.042 A 
ATOM      9  C   UNL     1       4.503  -1.143   1.006  0.00  0.00    +0.005 A 
ATOM     10  C   UNL     1       5.715  -1.734   0.703  0.00  0.00    +0.020 A 
ATOM     11  C   UNL     1       6.233  -1.633  -0.577  0.00  0.00    +0.041 A 
ATOM     12  C   UNL     1       5.533  -0.947  -1.553  0.00  0.00    +0.020 A 
ATOM     13  C   UNL     1       4.318  -0.362  -1.250  0.00  0.00    +0.005 A 
ATOM     14 CL   UNL     1       7.758  -2.369  -0.957  0.00  0.00    -0.084 Cl
ENDBRANCH   6   8
BRANCH   5  15
ATOM     15  C   UNL     1       1.421  -2.008  -0.184  0.00  0.00    +0.250 C 
ATOM     16  O   UNL     1       2.286  -2.470   0.530  0.00  0.00    -0.273 OA
ATOM     17  N   UNL     1       0.515  -2.823  -0.759  0.00  0.00    -0.206 N 
ATOM     18  H   UNL     1      -0.177  -2.454  -1.330  0.00  0.00    +0.177 HD
BRANCH  17  19
ATOM     19  N   UNL     1       0.573  -4.205  -0.534  0.00  0.00    -0.188 NA
ATOM     20  C   UNL     1      -0.299  -4.990  -1.088  0.00  0.00    +0.138 C 
BRANCH  20  21
ATOM     21  C   UNL     1      -0.239  -6.444  -0.851  0.00  0.00    -0.003 A 
ATOM     22  C   UNL     1       0.755  -7.000  -0.035  0.00  0.00    +0.029 A 
ATOM     23  C   UNL     1       0.771  -8.364   0.164  0.00  0.00    +0.111 A 
ATOM     24  N   UNL     1      -0.126  -9.143  -0.410  0.00  0.00    -0.263 NA
ATOM     25  C   UNL     1      -1.076  -8.662  -1.190  0.00  0.00    +0.111 A 
ATOM     26  C   UNL     1      -1.170  -7.309  -1.439  0.00  0.00    +0.029 A 
ENDBRANCH  20  21
ENDBRANCH  17  19
ENDBRANCH   5  15
BRANCH   5  27
ATOM     27  C   UNL     1       1.519  -0.238  -1.898  0.00  0.00    +0.372 C 
ATOM     28  O   UNL     1       1.789  -1.135  -2.660  0.00  0.00    -0.245 OA
ATOM     29  O   UNL     1       1.363   1.012  -2.361  0.00  0.00    -0.245 OA
ENDBRANCH   5  27
TORSDOF 5
