REMARK  Name = ZINC66698769
REMARK  7 active torsions:
REMARK  status: ('A' for Active; 'I' for Inactive)
REMARK    1  A    between atoms: C_1  and  C_2
REMARK    2  A    between atoms: C_7  and  N_10
REMARK    3  A    between atoms: C_11  and  C_13
REMARK    4  A    between atoms: C_13  and  N_14
REMARK    5  A    between atoms: N_22  and  C_23
REMARK    6  A    between atoms: C_23  and  C_24
REMARK    7  A    between atoms: C_27  and  O_30
REMARK                            x       y       z     vdW  Elec       q    Type
REMARK                         _______ _______ _______ _____ _____    ______ ____
ROOT
ATOM      1  N   UNL     1       3.333  -5.574   3.360  0.00  0.00    -0.291 NA
ATOM      2  C   UNL     1       4.370  -5.524   2.321  0.00  0.00    +0.104 C 
ATOM      3  C   UNL     1       4.780  -6.951   1.944  0.00  0.00    +0.124 C 
ATOM      4  N   UNL     1       5.162  -7.667   3.170  0.00  0.00    -0.283 N 
ATOM      5  C   UNL     1       4.230  -7.646   4.308  0.00  0.00    +0.124 C 
ATOM      6  C   UNL     1       3.842  -6.191   4.592  0.00  0.00    +0.104 C 
ATOM      7  C   UNL     1       6.336  -8.325   3.249  0.00  0.00    +0.303 C 
ATOM      8  O   UNL     1       7.053  -8.410   2.271  0.00  0.00    -0.253 OA
ATOM      9  N   UNL     1       6.714  -8.890   4.413  0.00  0.00    -0.295 N 
ATOM     10  H   UNL     1       6.111  -8.887   5.172  0.00  0.00    +0.151 HD
ENDROOT
BRANCH   1  11
ATOM     11  C   UNL     1       2.791  -4.235   3.627  0.00  0.00    +0.180 C 
BRANCH  11  13
ATOM     12  N   UNL     1       1.478  -2.520   2.420  0.00  0.00    -0.311 N 
ATOM     13  C   UNL     1       2.062  -3.735   2.407  0.00  0.00    +0.227 C 
ATOM     14  O   UNL     1       2.000  -4.426   1.412  0.00  0.00    -0.274 OA
ATOM     15  H   UNL     1       1.527  -1.968   3.216  0.00  0.00    +0.149 HD
BRANCH  12  21
ATOM     16  C   UNL     1      -0.009   1.532   0.010  0.00  0.00    +0.007 C 
ATOM     17  C   UNL     1       0.010   0.002   0.002  0.00  0.00    -0.012 C 
ATOM     18  C   UNL     1      -1.426  -0.526   0.014  0.00  0.00    +0.003 C 
ATOM     19  C   UNL     1      -1.407  -2.055   0.006  0.00  0.00    +0.002 C 
ATOM     20  C   UNL     1      -0.667  -2.563   1.246  0.00  0.00    +0.022 C 
ATOM     21  C   UNL     1       0.769  -2.035   1.234  0.00  0.00    +0.073 C 
ATOM     22  C   UNL     1       0.750  -0.505   1.242  0.00  0.00    +0.025 C 
ENDBRANCH  12  21
ENDBRANCH  11  13
ENDBRANCH   1  11
BRANCH   9  23
ATOM     23  C   UNL     1       8.037  -9.509   4.530  0.00  0.00    +0.141 C 
BRANCH  23  24
ATOM     24  C   UNL     1       8.211 -10.062   5.921  0.00  0.00    -0.030 A 
ATOM     25  C   UNL     1       8.743  -9.267   6.919  0.00  0.00    +0.009 A 
ATOM     26  C   UNL     1       8.904  -9.771   8.195  0.00  0.00    +0.046 A 
ATOM     27  C   UNL     1       8.530 -11.078   8.475  0.00  0.00    +0.117 A 
ATOM     28  C   UNL     1       7.996 -11.874   7.472  0.00  0.00    +0.046 A 
ATOM     29  C   UNL     1       7.832 -11.363   6.199  0.00  0.00    +0.009 A 
BRANCH  27  30
ATOM     30  O   UNL     1       8.688 -11.577   9.729  0.00  0.00    -0.507 OA
ATOM     31  H   UNL     1       7.922 -11.444  10.304  0.00  0.00    +0.292 HD
ENDBRANCH  27  30
ENDBRANCH  23  24
ENDBRANCH   9  23
TORSDOF 6
