REMARK  Name = ZINC37984251
REMARK  9 active torsions:
REMARK  status: ('A' for Active; 'I' for Inactive)
REMARK    1  A    between atoms: C_1  and  C_2
REMARK    2  A    between atoms: C_2  and  C_4
REMARK    3  A    between atoms: C_2  and  N_8
REMARK    4  A    between atoms: C_4  and  C_5
REMARK    5  A    between atoms: C_5  and  C_6
REMARK    6  A    between atoms: C_5  and  C_7
REMARK    7  A    between atoms: N_8  and  C_9
REMARK    8  A    between atoms: C_10  and  C_12
REMARK    9  A    between atoms: C_14  and  N_20
REMARK                            x       y       z     vdW  Elec       q    Type
REMARK                         _______ _______ _______ _____ _____    ______ ____
ROOT
ATOM      1  C   UNL     1       2.486  -1.851   2.167  0.00  0.00    +0.041 A 
ATOM      2  C   UNL     1       1.742  -2.298   3.260  0.00  0.00    +0.047 A 
ATOM      3  C   UNL     1       2.382  -2.863   4.343  0.00  0.00    +0.147 A 
ATOM      4  C   UNL     1       3.762  -2.989   4.347  0.00  0.00    +0.089 A 
ATOM      5  C   UNL     1       4.506  -2.547   3.265  0.00  0.00    +0.062 A 
ATOM      6  C   UNL     1       3.875  -1.985   2.173  0.00  0.00    +0.034 A 
ATOM      7 CL   UNL     1       6.235  -2.707   3.279  0.00  0.00    -0.082 Cl
ATOM      8 CL   UNL     1       4.561  -3.701   5.713  0.00  0.00    -0.080 Cl
ENDROOT
BRANCH   1  11
ATOM      9  N   UNL     1       0.705  -0.488   1.186  0.00  0.00    -0.298 N 
ATOM     10  C   UNL     1       0.259  -0.159   2.542  0.00  0.00    +0.132 C 
ATOM     11  C   UNL     1       1.805  -1.245   1.004  0.00  0.00    +0.247 C 
ATOM     12  O   UNL     1       2.236  -1.430  -0.118  0.00  0.00    -0.270 OA
BRANCH   9  14
ATOM     13  C   UNL     1      -0.065   1.536   0.050  0.00  0.00    +0.028 C 
ATOM     14  C   UNL     1      -0.044   0.007   0.029  0.00  0.00    +0.073 C 
BRANCH  14  15
ATOM     15  C   UNL     1      -1.478  -0.524   0.085  0.00  0.00    +0.025 C 
BRANCH  15  16
ATOM     16  C   UNL     1      -1.465  -2.046  -0.062  0.00  0.00    -0.015 C 
ATOM     17  C   UNL     1      -2.885  -2.589   0.119  0.00  0.00    +0.007 C 
ATOM     18  C   UNL     1      -0.950  -2.420  -1.453  0.00  0.00    +0.007 C 
ENDBRANCH  15  16
ENDBRANCH  14  15
ENDBRANCH   9  14
ENDBRANCH   1  11
BRANCH   3  19
ATOM     19  N   UNL     1       1.594  -3.336   5.503  0.00  0.00    +0.058 N 
ATOM     20  O   UNL     1       0.390  -3.227   5.501  0.00  0.00    -0.126 OA
ATOM     21  O   UNL     1       2.155  -3.832   6.453  0.00  0.00    -0.126 OA
ENDBRANCH   3  19
TORSDOF 5
