REMARK  Name = ZINC03528052
REMARK  5 active torsions:
REMARK  status: ('A' for Active; 'I' for Inactive)
REMARK    1  A    between atoms: C_1  and  C_2
REMARK    2  A    between atoms: C_2  and  C_3
REMARK    3  A    between atoms: C_3  and  C_22
REMARK    4  A    between atoms: N_6  and  N_10
REMARK    5  A    between atoms: C_11  and  C_12
REMARK                            x       y       z     vdW  Elec       q    Type
REMARK                         _______ _______ _______ _____ _____    ______ ____
ROOT
ATOM      1  N   UNL     1       2.361  -2.796  -0.134  0.00  0.00    -0.176 NA
ATOM      2  C   UNL     1       1.232  -2.166  -0.011  0.00  0.00    +0.139 C 
ENDROOT
BRANCH   2   3
ATOM      3  C   UNL     1       1.207  -0.695  -0.010  0.00  0.00    +0.002 A 
ATOM      4  C   UNL     1      -0.000  -0.006   0.007  0.00  0.00    +0.010 A 
ATOM      5  C   UNL     1      -0.021   1.381   0.007  0.00  0.00    +0.001 A 
ATOM      6  C   UNL     1       1.125   2.117  -0.008  0.00  0.00    +0.008 A 
ATOM      7  C   UNL     1       2.380   1.487  -0.026  0.00  0.00    -0.017 A 
ATOM      8  C   UNL     1       2.450   0.073  -0.027  0.00  0.00    -0.009 A 
ATOM      9  C   UNL     1       3.700  -0.559  -0.045  0.00  0.00    +0.009 A 
ATOM     10  C   UNL     1       4.835   0.195  -0.061  0.00  0.00    +0.001 A 
ATOM     11  C   UNL     1       4.770   1.587  -0.060  0.00  0.00    +0.001 A 
ATOM     12  C   UNL     1       3.572   2.233  -0.043  0.00  0.00    +0.008 A 
ENDBRANCH   2   3
BRANCH   1  16
ATOM     13  C   UNL     1       1.765  -6.385  -0.448  0.00  0.00    +0.111 C 
ATOM     14  C   UNL     1       1.269  -4.955  -0.347  0.00  0.00    +0.266 C 
ATOM     15  O   UNL     1       0.117  -4.577  -0.355  0.00  0.00    -0.271 OA
ATOM     16  N   UNL     1       2.376  -4.192  -0.248  0.00  0.00    -0.109 N 
ATOM     17  C   UNL     1       3.490  -4.933  -0.277  0.00  0.00    +0.330 C 
ATOM     18  O   UNL     1       4.611  -4.469  -0.207  0.00  0.00    -0.250 OA
ATOM     19  N   UNL     1       3.230  -6.248  -0.389  0.00  0.00    -0.284 N 
ATOM     20  C   UNL     1       1.333  -7.011  -1.775  0.00  0.00    +0.041 C 
ATOM     21  H   UNL     1       3.881  -6.966  -0.427  0.00  0.00    +0.151 HD
BRANCH  13  23
ATOM     22  C   UNL     1       1.867  -8.616   0.670  0.00  0.00    +0.006 C 
ATOM     23  C   UNL     1       1.253  -7.216   0.730  0.00  0.00    +0.032 C 
ENDBRANCH  13  23
ENDBRANCH   1  16
TORSDOF 3
