REMARK  Name = ZINC07385415
REMARK  5 active torsions:
REMARK  status: ('A' for Active; 'I' for Inactive)
REMARK    1  A    between atoms: C_1  and  C_2
REMARK    2  A    between atoms: C_3  and  C_22
REMARK    3  A    between atoms: N_5  and  C_11
REMARK    4  A    between atoms: C_8  and  C_9
REMARK    5  A    between atoms: C_11  and  C_12
REMARK                            x       y       z     vdW  Elec       q    Type
REMARK                         _______ _______ _______ _____ _____    ______ ____
ROOT
ATOM      1  C   UNL     1       2.373   1.083   0.497  0.00  0.00    +0.047 C 
ATOM      2  C   UNL     1       1.246   1.916   1.053  0.00  0.00    -0.005 A 
ATOM      3  C   UNL     1       0.005   1.342   1.353  0.00  0.00    +0.063 A 
ATOM      4  N   UNL     1      -0.971   2.059   1.834  0.00  0.00    -0.173 NA
ATOM      5  N   UNL     1      -0.882   3.316   2.067  0.00  0.00    -0.219 N 
ATOM      6  C   UNL     1       0.254   4.004   1.832  0.00  0.00    +0.285 A 
ATOM      7  O   UNL     1       0.319   5.199   2.065  0.00  0.00    -0.265 OA
ATOM      8  C   UNL     1       1.408   3.281   1.284  0.00  0.00    +0.122 A 
ATOM      9  C   UNL     1      -0.206  -0.131   1.116  0.00  0.00    +0.068 C 
ENDROOT
BRANCH   8  10
ATOM     10  C   UNL     1       2.645   3.946   1.004  0.00  0.00    +0.105 C 
ATOM     11  N   UNL     1       3.626   4.474   0.782  0.00  0.00    -0.191 NA
ENDBRANCH   8  10
BRANCH   5  12
ATOM     12  C   UNL     1      -2.045   4.025   2.608  0.00  0.00    +0.243 C 
BRANCH  12  13
ATOM     13  C   UNL     1      -2.890   4.543   1.474  0.00  0.00    +0.237 C 
ATOM     14  O   UNL     1      -2.510   4.421   0.329  0.00  0.00    -0.274 OA
ATOM     15  N   UNL     1      -4.069   5.144   1.732  0.00  0.00    -0.300 N 
ATOM     16  C   UNL     1      -4.949   5.558   0.630  0.00  0.00    +0.108 C 
ATOM     17  C   UNL     1      -5.500   4.309  -0.057  0.00  0.00    +0.019 C 
ATOM     18  C   UNL     1      -6.545   3.647   0.858  0.00  0.00    +0.002 C 
ATOM     19  C   UNL     1      -5.833   2.871   1.960  0.00  0.00    +0.000 C 
ATOM     20  C   UNL     1      -6.103   3.507   3.336  0.00  0.00    +0.002 C 
ATOM     21  C   UNL     1      -5.964   5.027   3.238  0.00  0.00    +0.019 C 
ATOM     22  C   UNL     1      -4.481   5.395   3.103  0.00  0.00    +0.108 C 
ENDBRANCH  12  13
ENDBRANCH   5  12
TORSDOF 3
