REMARK  Name = ZINC63975042
REMARK  4 active torsions:
REMARK  status: ('A' for Active; 'I' for Inactive)
REMARK    1  A    between atoms: C_1  and  C_2
REMARK    2  A    between atoms: N_18  and  C_19
REMARK    3  A    between atoms: C_19  and  C_20
REMARK    4  A    between atoms: C_21  and  C_25
REMARK                            x       y       z     vdW  Elec       q    Type
REMARK                         _______ _______ _______ _____ _____    ______ ____
ROOT
ATOM      1  C   UNL     1      -0.019   1.526   0.010  0.00  0.00    +0.007 C 
ATOM      2  C   UNL     1       0.002  -0.004   0.002  0.00  0.00    -0.013 C 
ATOM      3  C   UNL     1       0.712  -0.494  -1.260  0.00  0.00    +0.004 C 
ATOM      4  C   UNL     1       0.665  -2.021  -1.263  0.00  0.00    +0.010 C 
ATOM      5  C   UNL     1       1.509  -2.579  -0.116  0.00  0.00    +0.038 C 
ATOM      6  C   UNL     1       1.258  -4.064  -0.055  0.00  0.00    +0.028 A 
ATOM      7  C   UNL     1       1.867  -5.040  -0.860  0.00  0.00    +0.127 A 
ATOM      8  N   UNL     1       1.475  -6.301  -0.657  0.00  0.00    -0.221 NA
ATOM      9  C   UNL     1       0.571  -6.645   0.233  0.00  0.00    +0.224 A 
ATOM     10  N   UNL     1      -0.029  -5.766   1.029  0.00  0.00    -0.229 NA
ATOM     11  C   UNL     1       0.322  -4.499   0.895  0.00  0.00    +0.106 A 
ATOM     12  S   UNL     1      -0.172  -3.061   1.801  0.00  0.00    -0.101 S 
ATOM     13  C   UNL     1       1.145  -1.938   1.225  0.00  0.00    +0.061 C 
ATOM     14  C   UNL     1       0.729  -0.503   1.233  0.00  0.00    +0.018 C 
ATOM     15  N   UNL     1       2.821  -4.713  -1.812  0.00  0.00    -0.325 N 
ATOM     16  H   UNL     1       3.085  -3.788  -1.936  0.00  0.00    +0.148 HD
ENDROOT
BRANCH  15  17
ATOM     17  C   UNL     1       3.430  -5.765  -2.629  0.00  0.00    +0.137 C 
BRANCH  17  18
ATOM     18  C   UNL     1       4.427  -5.151  -3.578  0.00  0.00    -0.007 C 
ATOM     19  C   UNL     1       5.746  -5.022  -3.416  0.00  0.00    +0.063 C 
ATOM     20  N   UNL     1       6.304  -4.417  -4.487  0.00  0.00    -0.159 NA
ATOM     21  N   UNL     1       5.506  -4.112  -5.377  0.00  0.00    -0.183 NA
ATOM     22  C   UNL     1       4.165  -4.540  -4.943  0.00  0.00    +0.200 C 
ATOM     23  C   UNL     1       6.508  -5.489  -2.202  0.00  0.00    +0.067 C 
ENDBRANCH  17  18
ENDBRANCH  15  17
TORSDOF 2
