REMARK  Name = ZINC12380180
REMARK  4 active torsions:
REMARK  status: ('A' for Active; 'I' for Inactive)
REMARK    1  A    between atoms: C_1  and  C_2
REMARK    2  A    between atoms: C_2  and  C_4
REMARK    3  A    between atoms: C_17  and  C_20
REMARK    4  A    between atoms: C_24  and  N_26
REMARK                            x       y       z     vdW  Elec       q    Type
REMARK                         _______ _______ _______ _____ _____    ______ ____
ROOT
ATOM      1  C   UNL     1      -0.696   4.365  -0.378  0.00  0.00    +0.017 A 
ATOM      2  C   UNL     1      -1.040   3.010  -0.292  0.00  0.00    +0.013 A 
ATOM      3  C   UNL     1      -0.064   2.064  -0.180  0.00  0.00    +0.024 A 
ATOM      4  C   UNL     1       1.281   2.433  -0.160  0.00  0.00    +0.031 A 
ATOM      5  C   UNL     1       1.626   3.791  -0.240  0.00  0.00    -0.019 A 
ATOM      6  C   UNL     1       0.654   4.739  -0.353  0.00  0.00    +0.017 A 
ATOM      7  C   UNL     1       3.064   4.134  -0.189  0.00  0.00    +0.049 C 
ATOM      8  C   UNL     1       3.601   5.375  -0.802  0.00  0.00    -0.023 C 
ATOM      9  C   UNL     1       4.843   5.143  -1.209  0.00  0.00    -0.030 C 
ATOM     10  C   UNL     1       5.225   3.689  -0.923  0.00  0.00    +0.033 C 
ATOM     11  C   UNL     1       3.851   3.005  -0.919  0.00  0.00    +0.029 C 
ATOM     12  C   UNL     1       3.675   1.767  -0.057  0.00  0.00    +0.105 C 
ATOM     13  N   UNL     1       2.254   1.439  -0.082  0.00  0.00    -0.336 N 
ATOM     14  H   UNL     1       1.981   0.509  -0.050  0.00  0.00    +0.147 HD
ENDROOT
BRANCH  12  15
ATOM     15  C   UNL     1       4.089   2.058   1.362  0.00  0.00    -0.025 A 
ATOM     16  C   UNL     1       5.403   1.870   1.751  0.00  0.00    +0.005 A 
ATOM     17  C   UNL     1       5.784   2.142   3.052  0.00  0.00    +0.003 A 
ATOM     18  C   UNL     1       4.849   2.591   3.966  0.00  0.00    +0.033 A 
ATOM     19  C   UNL     1       3.535   2.774   3.579  0.00  0.00    +0.127 A 
ATOM     20  C   UNL     1       3.155   2.508   2.276  0.00  0.00    +0.038 A 
BRANCH  19  21
ATOM     21  N   UNL     1       2.535   3.256   4.558  0.00  0.00    +0.056 N 
ATOM     22  O   UNL     1       1.377   3.417   4.216  0.00  0.00    -0.126 OA
ATOM     23  O   UNL     1       2.870   3.490   5.705  0.00  0.00    -0.126 OA
ENDBRANCH  19  21
ENDBRANCH  12  15
BRANCH   1  25
ATOM     24  C   UNL     1      -3.193   4.979  -0.526  0.00  0.00    +0.091 C 
ATOM     25  C   UNL     1      -1.743   5.387  -0.500  0.00  0.00    +0.160 C 
ATOM     26  O   UNL     1      -1.440   6.559  -0.579  0.00  0.00    -0.292 OA
ENDBRANCH   1  25
TORSDOF 3
