REMARK  Name = ZINC11614656
REMARK  10 active torsions:
REMARK  status: ('A' for Active; 'I' for Inactive)
REMARK    1  A    between atoms: C_1  and  C_2
REMARK    2  A    between atoms: C_2  and  C_3
REMARK    3  A    between atoms: C_2  and  O_4
REMARK    4  A    between atoms: O_4  and  C_5
REMARK    5  A    between atoms: C_8  and  C_11
REMARK    6  A    between atoms: N_26  and  C_27
REMARK    7  A    between atoms: C_27  and  C_28
REMARK    8  A    between atoms: C_28  and  N_56
REMARK    9  A    between atoms: C_29  and  N_56
REMARK   10  A    between atoms: C_30  and  N_56
REMARK                            x       y       z     vdW  Elec       q    Type
REMARK                         _______ _______ _______ _____ _____    ______ ____
ROOT
ATOM      1  C   UNL     1      -3.765   6.678   0.686  0.00  0.00    +0.144 C 
ATOM      2  C   UNL     1      -5.072   6.370   0.003  0.00  0.00    +0.072 A 
ATOM      3  C   UNL     1      -6.192   5.491   0.352  0.00  0.00    +0.199 A 
ATOM      4  O   UNL     1      -6.187   4.823   1.371  0.00  0.00    -0.287 OA
ATOM      5  C   UNL     1      -7.325   5.456  -0.593  0.00  0.00    +0.066 A 
ATOM      6  C   UNL     1      -8.441   4.654  -0.360  0.00  0.00    +0.035 A 
ATOM      7  C   UNL     1      -9.477   4.651  -1.269  0.00  0.00    +0.042 A 
ATOM      8  C   UNL     1      -9.409   5.442  -2.409  0.00  0.00    +0.023 A 
ATOM      9  C   UNL     1      -8.311   6.238  -2.649  0.00  0.00    +0.048 A 
ATOM     10  C   UNL     1      -7.252   6.257  -1.745  0.00  0.00    +0.140 A 
ATOM     11  O   UNL     1      -6.175   7.032  -1.970  0.00  0.00    -0.450 OA
ATOM     12  C   UNL     1      -5.116   7.098  -1.140  0.00  0.00    +0.199 A 
ATOM     13  C   UNL     1      -3.863   7.888  -1.238  0.00  0.00    +0.283 C 
ATOM     14  O   UNL     1      -3.589   8.645  -2.148  0.00  0.00    -0.267 OA
ATOM     15  N   UNL     1      -3.075   7.645  -0.177  0.00  0.00    -0.285 N 
ATOM     16 CL   UNL     1     -10.873   3.656  -0.988  0.00  0.00    -0.084 Cl
ENDROOT
BRANCH   1  20
ATOM     17  C   UNL     1      -1.430   3.119   1.065  0.00  0.00    +0.121 A 
ATOM     18  C   UNL     1      -1.515   3.767  -0.158  0.00  0.00    +0.046 A 
ATOM     19  C   UNL     1      -2.275   4.914  -0.280  0.00  0.00    +0.009 A 
ATOM     20  C   UNL     1      -2.941   5.422   0.820  0.00  0.00    -0.022 A 
ATOM     21  C   UNL     1      -2.854   4.782   2.042  0.00  0.00    +0.009 A 
ATOM     22  C   UNL     1      -2.100   3.631   2.167  0.00  0.00    +0.046 A 
BRANCH  17  23
ATOM     23  O   UNL     1      -0.688   1.987   1.186  0.00  0.00    -0.489 OA
BRANCH  23  25
ATOM     24  C   UNL     1       0.743   0.616   2.570  0.00  0.00    +0.051 C 
ATOM     25  C   UNL     1      -0.542   1.443   2.500  0.00  0.00    +0.167 C 
ATOM     26  C   UNL     1      -1.742   0.549   2.817  0.00  0.00    +0.051 C 
ENDBRANCH  23  25
ENDBRANCH  17  23
ENDBRANCH   1  20
BRANCH  15  27
ATOM     27  C   UNL     1      -1.761   8.241   0.075  0.00  0.00    +0.090 C 
BRANCH  27  28
ATOM     28  C   UNL     1      -0.675   7.364  -0.550  0.00  0.00    -0.060 C 
BRANCH  28  31
ATOM     29  C   UNL     1       0.963   7.944   1.136  0.00  0.00    -0.097 C 
ATOM     30  C   UNL     1       1.687   7.284  -1.078  0.00  0.00    -0.097 C 
ATOM     31  N   UNL     1       0.642   7.989  -0.306  0.00  0.00    +0.377 N 
ATOM     32  H   UNL     1       0.608   8.969  -0.609  0.00  0.00    -0.083 HD
ENDBRANCH  28  31
ENDBRANCH  27  28
ENDBRANCH  15  27
TORSDOF 6
