REMARK  Name = ZINC27445108
REMARK  7 active torsions:
REMARK  status: ('A' for Active; 'I' for Inactive)
REMARK    1  A    between atoms: C_1  and  C_2
REMARK    2  A    between atoms: C_3  and  C_20
REMARK    3  A    between atoms: C_7  and  S_12
REMARK    4  A    between atoms: C_9  and  C_11
REMARK    5  A    between atoms: S_12  and  C_13
REMARK    6  A    between atoms: C_13  and  C_14
REMARK    7  A    between atoms: C_16  and  C_19
REMARK                            x       y       z     vdW  Elec       q    Type
REMARK                         _______ _______ _______ _____ _____    ______ ____
ROOT
ATOM      1  C   UNL     1       3.760   0.650  -0.030  0.00  0.00    +0.045 C 
ATOM      2  C   UNL     1       2.264   0.838  -0.015  0.00  0.00    -0.029 A 
ATOM      3  C   UNL     1       1.735   2.070   0.025  0.00  0.00    -0.008 A 
ATOM      4  S   UNL     1      -0.022   1.769   0.027  0.00  0.00    -0.074 S 
ATOM      5  C   UNL     1       0.002  -0.004  -0.025  0.00  0.00    +0.113 A 
ATOM      6  C   UNL     1       1.379  -0.313  -0.043  0.00  0.00    +0.043 A 
ATOM      7  C   UNL     1       1.692  -1.700  -0.087  0.00  0.00    +0.109 A 
ATOM      8  N   UNL     1       0.706  -2.584  -0.107  0.00  0.00    -0.225 NA
ATOM      9  C   UNL     1      -0.564  -2.221  -0.088  0.00  0.00    +0.128 A 
ATOM     10  N   UNL     1      -0.916  -0.950  -0.048  0.00  0.00    -0.225 NA
ATOM     11  C   UNL     1      -1.634  -3.281  -0.113  0.00  0.00    +0.088 C 
ATOM     12  C   UNL     1       2.455   3.393   0.059  0.00  0.00    +0.052 C 
ENDROOT
BRANCH   7  13
ATOM     13  S   UNL     1       3.370  -2.236  -0.114  0.00  0.00    -0.097 S 
BRANCH  13  14
ATOM     14  C   UNL     1       3.127  -4.029  -0.167  0.00  0.00    +0.155 C 
BRANCH  14  15
ATOM     15  C   UNL     1       4.468  -4.717  -0.196  0.00  0.00    +0.182 A 
ATOM     16  N   UNL     1       5.166  -5.053  -1.296  0.00  0.00    -0.195 NA
ATOM     17  C   UNL     1       6.262  -5.623  -0.857  0.00  0.00    +0.224 A 
ATOM     18  O   UNL     1       6.193  -5.623   0.477  0.00  0.00    -0.338 OA
ATOM     19  N   UNL     1       5.158  -5.100   0.835  0.00  0.00    -0.060 NA
ATOM     20  C   UNL     1       7.383  -6.178  -1.698  0.00  0.00    +0.112 C 
ENDBRANCH  14  15
ENDBRANCH  13  14
ENDBRANCH   7  13
TORSDOF 3
