REMARK  Name = ZINC48356735
REMARK  6 active torsions:
REMARK  status: ('A' for Active; 'I' for Inactive)
REMARK    1  A    between atoms: C_1  and  C_2
REMARK    2  A    between atoms: C_7  and  C_8
REMARK    3  A    between atoms: C_10  and  C_13
REMARK    4  A    between atoms: C_14  and  C_20
REMARK    5  A    between atoms: N_16  and  C_19
REMARK    6  A    between atoms: C_17  and  C_18
REMARK                            x       y       z     vdW  Elec       q    Type
REMARK                         _______ _______ _______ _____ _____    ______ ____
ROOT
ATOM      1  C   UNL     1       1.468   1.465  -0.225  0.00  0.00    +0.044 C 
ATOM      2  C   UNL     1       1.278  -0.030  -0.194  0.00  0.00    -0.045 A 
ATOM      3  C   UNL     1       1.038  -0.714  -1.367  0.00  0.00    +0.031 A 
ATOM      4  C   UNL     1       0.864  -2.090  -1.341  0.00  0.00    +0.067 A 
ATOM      5  C   UNL     1       0.932  -2.783  -0.119  0.00  0.00    +0.090 A 
ATOM      6  C   UNL     1       1.177  -2.073   1.061  0.00  0.00    +0.033 A 
ATOM      7  C   UNL     1       1.353  -0.709   1.014  0.00  0.00    -0.045 A 
ATOM      8  C   UNL     1       1.622   0.054   2.285  0.00  0.00    +0.044 C 
ATOM      9  N   UNL     1       0.727  -4.095  -0.391  0.00  0.00    -0.228 NA
ATOM     10  C   UNL     1       0.539  -4.255  -1.678  0.00  0.00    +0.143 A 
ATOM     11  N   UNL     1       0.614  -3.043  -2.311  0.00  0.00    -0.338 N 
ATOM     12  H   UNL     1       0.512  -2.883  -3.262  0.00  0.00    +0.167 HD
ENDROOT
BRANCH  10  13
ATOM     13  C   UNL     1       0.285  -5.548  -2.347  0.00  0.00    +0.060 A 
ATOM     14  C   UNL     1      -0.030  -5.739  -3.709  0.00  0.00    +0.071 A 
ATOM     15  N   UNL     1      -0.181  -7.019  -3.915  0.00  0.00    -0.176 NA
ATOM     16  N   UNL     1       0.027  -7.698  -2.710  0.00  0.00    -0.271 N 
ATOM     17  C   UNL     1       0.318  -6.793  -1.757  0.00  0.00    +0.047 A 
ATOM     18  C   UNL     1       0.620  -7.087  -0.310  0.00  0.00    +0.066 C 
ATOM     19  C   UNL     1      -0.051  -9.149  -2.519  0.00  0.00    +0.172 C 
ATOM     20  C   UNL     1      -0.168  -4.653  -4.745  0.00  0.00    +0.068 C 
ENDBRANCH  10  13
TORSDOF 1
