REMARK  Name = ZINC60190668
REMARK  4 active torsions:
REMARK  status: ('A' for Active; 'I' for Inactive)
REMARK    1  A    between atoms: C_4  and  C_7
REMARK    2  A    between atoms: C_9  and  C_12
REMARK    3  A    between atoms: N_14  and  C_15
REMARK    4  A    between atoms: C_18  and  N_22
REMARK                            x       y       z     vdW  Elec       q    Type
REMARK                         _______ _______ _______ _____ _____    ______ ____
ROOT
ATOM      1  C   UNL     1       5.490  -3.846  -0.077  0.00  0.00    +0.267 C 
ATOM      2  O   UNL     1       6.647  -4.222  -0.093  0.00  0.00    -0.268 OA
ATOM      3  N   UNL     1       4.489  -4.748  -0.084  0.00  0.00    -0.278 N 
ATOM      4  H   UNL     1       3.568  -4.451  -0.006  0.00  0.00    +0.155 HD
ENDROOT
BRANCH   3   5
ATOM      5  C   UNL     1       4.776  -6.112  -0.205  0.00  0.00    +0.069 A 
ATOM      6  C   UNL     1       5.926  -6.635   0.371  0.00  0.00    +0.028 A 
ATOM      7  C   UNL     1       6.206  -7.982   0.251  0.00  0.00    +0.035 A 
ATOM      8  C   UNL     1       5.344  -8.811  -0.444  0.00  0.00    +0.129 A 
ATOM      9  C   UNL     1       4.199  -8.295  -1.020  0.00  0.00    +0.073 A 
ATOM     10  C   UNL     1       3.908  -6.949  -0.899  0.00  0.00    +0.147 A 
ATOM     11  F   UNL     1       2.785  -6.446  -1.458  0.00  0.00    -0.203 F 
BRANCH   8  12
ATOM     12  N   UNL     1       5.650 -10.254  -0.570  0.00  0.00    +0.057 N 
ATOM     13  O   UNL     1       6.651 -10.707  -0.067  0.00  0.00    -0.126 OA
ATOM     14  O   UNL     1       4.897 -10.980  -1.177  0.00  0.00    -0.126 OA
ENDBRANCH   8  12
ENDBRANCH   3   5
BRANCH   1  17
ATOM     15  C   UNL     1       3.698  -0.685  -0.005  0.00  0.00    +0.109 A 
ATOM     16  N   UNL     1       3.927  -1.986  -0.030  0.00  0.00    -0.234 NA
ATOM     17  C   UNL     1       5.184  -2.406  -0.049  0.00  0.00    +0.133 A 
ATOM     18  C   UNL     1       6.195  -1.481  -0.041  0.00  0.00    +0.080 A 
ATOM     19  S   UNL     1       5.354  -0.023  -0.014  0.00  0.00    -0.075 S 
BRANCH  15  23
ATOM     20  C   UNL     1      -0.014   1.381   0.062  0.00  0.00    +0.000 A 
ATOM     21  C   UNL     1       1.172   2.094   0.059  0.00  0.00    +0.001 A 
ATOM     22  C   UNL     1       2.381   1.429   0.038  0.00  0.00    +0.010 A 
ATOM     23  C   UNL     1       2.405   0.034   0.019  0.00  0.00    +0.007 A 
ATOM     24  C   UNL     1       1.206  -0.680   0.022  0.00  0.00    +0.010 A 
ATOM     25  C   UNL     1       0.004  -0.003   0.043  0.00  0.00    +0.001 A 
ENDBRANCH  15  23
ENDBRANCH   1  17
TORSDOF 4
