REMARK  Name = ZINC09111163
REMARK  5 active torsions:
REMARK  status: ('A' for Active; 'I' for Inactive)
REMARK    1  A    between atoms: C_4  and  C_7
REMARK    2  A    between atoms: C_7  and  C_8
REMARK    3  A    between atoms: C_8  and  N_9
REMARK    4  A    between atoms: C_25  and  C_31
REMARK    5  A    between atoms: C_31  and  C_33
REMARK                            x       y       z     vdW  Elec       q    Type
REMARK                         _______ _______ _______ _____ _____    ______ ____
ROOT
ATOM      1  N   UNL     1       5.450  -1.678   1.382  0.00  0.00    -0.241 N 
ATOM      2  C   UNL     1       5.536  -3.018   1.369  0.00  0.00    +0.228 C 
ATOM      3  O   UNL     1       4.613  -3.791   1.507  0.00  0.00    -0.275 OA
ATOM      4  C   UNL     1       6.985  -3.398   1.151  0.00  0.00    +0.114 C 
ATOM      5  C   UNL     1       7.432  -4.444   2.169  0.00  0.00    +0.110 C 
ATOM      6  C   UNL     1       6.315  -5.375   2.552  0.00  0.00    -0.003 C 
ATOM      7  C   UNL     1       6.251  -5.875   3.784  0.00  0.00    +0.007 C 
ATOM      8  C   UNL     1       7.265  -5.527   4.798  0.00  0.00    -0.004 A 
ATOM      9  C   UNL     1       7.436  -6.277   5.955  0.00  0.00    +0.010 A 
ATOM     10  C   UNL     1       8.390  -5.898   6.879  0.00  0.00    +0.001 A 
ATOM     11  C   UNL     1       9.175  -4.777   6.666  0.00  0.00    +0.002 A 
ATOM     12  C   UNL     1       9.020  -4.023   5.514  0.00  0.00    +0.024 A 
ATOM     13  C   UNL     1       8.077  -4.395   4.582  0.00  0.00    +0.038 A 
ATOM     14  N   UNL     1       7.866  -3.724   3.381  0.00  0.00    -0.311 N 
ATOM     15  C   UNL     1       7.950  -2.297   3.102  0.00  0.00    +0.158 C 
ATOM     16  C   UNL     1       7.728  -2.092   1.570  0.00  0.00    +0.117 C 
ATOM     17  C   UNL     1       6.636  -1.051   1.373  0.00  0.00    +0.228 C 
ATOM     18  O   UNL     1       6.808   0.141   1.234  0.00  0.00    -0.275 OA
ENDROOT
BRANCH  15  19
ATOM     19  C   UNL     1       6.884  -1.562   3.874  0.00  0.00    +0.184 C 
ATOM     20  O   UNL     1       5.978  -2.178   4.393  0.00  0.00    -0.290 OA
BRANCH  19  21
ATOM     21  C   UNL     1       6.944  -0.097   3.998  0.00  0.00    +0.019 A 
ATOM     22  C   UNL     1       7.984   0.618   3.397  0.00  0.00    +0.011 A 
ATOM     23  C   UNL     1       8.033   1.990   3.518  0.00  0.00    +0.001 A 
ATOM     24  C   UNL     1       7.055   2.661   4.232  0.00  0.00    +0.000 A 
ATOM     25  C   UNL     1       6.022   1.961   4.831  0.00  0.00    +0.001 A 
ATOM     26  C   UNL     1       5.957   0.588   4.714  0.00  0.00    +0.011 A 
ENDBRANCH  19  21
ENDBRANCH  15  19
BRANCH   1  27
ATOM     27  C   UNL     1       4.171  -0.963   1.399  0.00  0.00    +0.121 C 
BRANCH  27  28
ATOM     28  C   UNL     1       3.711  -0.707  -0.038  0.00  0.00    +0.054 C 
BRANCH  28  32
ATOM     29  C   UNL     1      -0.017   1.378   0.010  0.00  0.00    +0.000 A 
ATOM     30  C   UNL     1       1.171   2.086   0.002  0.00  0.00    +0.000 A 
ATOM     31  C   UNL     1       2.377   1.411  -0.013  0.00  0.00    +0.004 A 
ATOM     32  C   UNL     1       2.396   0.029  -0.020  0.00  0.00    -0.046 A 
ATOM     33  C   UNL     1       1.208  -0.679  -0.012  0.00  0.00    +0.004 A 
ATOM     34  C   UNL     1       0.002  -0.004   0.002  0.00  0.00    +0.000 A 
ENDBRANCH  28  32
ENDBRANCH  27  28
ENDBRANCH   1  27
TORSDOF 5
