REMARK  Name = ZINC66847403
REMARK  7 active torsions:
REMARK  status: ('A' for Active; 'I' for Inactive)
REMARK    1  A    between atoms: C_1  and  C_2
REMARK    2  A    between atoms: C_5  and  N_27
REMARK    3  A    between atoms: C_7  and  N_8
REMARK    4  A    between atoms: C_9  and  C_11
REMARK    5  A    between atoms: C_11  and  C_12
REMARK    6  A    between atoms: C_12  and  N_13
REMARK    7  A    between atoms: C_17  and  C_20
REMARK                            x       y       z     vdW  Elec       q    Type
REMARK                         _______ _______ _______ _____ _____    ______ ____
ROOT
ATOM      1  C   UNL     1      -0.169   0.052   4.882  0.00  0.00    +0.111 C 
ENDROOT
BRANCH   1   3
ATOM      2  N   UNL     1       0.025  -0.015   2.417  0.00  0.00    -0.285 N 
ATOM      3  C   UNL     1      -0.057  -0.694   3.578  0.00  0.00    +0.218 C 
ATOM      4  O   UNL     1      -0.040  -1.907   3.573  0.00  0.00    -0.275 OA
ATOM      5  H   UNL     1       0.077   0.954   2.425  0.00  0.00    +0.155 HD
BRANCH   2  12
ATOM      6  C   UNL     1      -1.265   1.183   0.181  0.00  0.00    +0.045 C 
ATOM      7  C   UNL     1      -0.584  -0.158   0.084  0.00  0.00    -0.029 A 
ATOM      8  C   UNL     1      -0.569  -0.841  -1.117  0.00  0.00    +0.007 A 
ATOM      9  C   UNL     1       0.056  -2.071  -1.206  0.00  0.00    +0.033 A 
ATOM     10  C   UNL     1       0.667  -2.622  -0.095  0.00  0.00    +0.128 A 
ATOM     11  C   UNL     1       0.656  -1.944   1.109  0.00  0.00    +0.056 A 
ATOM     12  C   UNL     1       0.034  -0.706   1.201  0.00  0.00    +0.038 A 
BRANCH  10  13
ATOM     13  N   UNL     1       1.334  -3.940  -0.195  0.00  0.00    +0.056 N 
ATOM     14  O   UNL     1       1.344  -4.534  -1.248  0.00  0.00    -0.126 OA
ATOM     15  O   UNL     1       1.868  -4.422   0.776  0.00  0.00    -0.126 OA
ENDBRANCH  10  13
ENDBRANCH   2  12
ENDBRANCH   1   3
BRANCH   1  16
ATOM     16  C   UNL     1      -0.245  -0.948   6.037  0.00  0.00    +0.094 C 
BRANCH  16  17
ATOM     17  N   UNL     1      -0.355  -0.220   7.309  0.00  0.00    -0.297 NA
ATOM     18  C   UNL     1       0.875   0.536   7.590  0.00  0.00    +0.112 C 
ATOM     19  C   UNL     1       0.696   1.325   8.890  0.00  0.00    +0.176 C 
ATOM     20  O   UNL     1       0.361   0.422   9.948  0.00  0.00    -0.369 OA
ATOM     21  C   UNL     1      -0.831  -0.330   9.707  0.00  0.00    +0.165 C 
ATOM     22  C   UNL     1      -0.668  -1.136   8.415  0.00  0.00    +0.121 C 
BRANCH  21  23
ATOM     23  C   UNL     1      -1.075  -1.270  10.860  0.00  0.00    +0.018 A 
ATOM     24  C   UNL     1      -0.018  -1.688  11.646  0.00  0.00    +0.009 A 
ATOM     25  C   UNL     1      -0.241  -2.550  12.704  0.00  0.00    +0.001 A 
ATOM     26  C   UNL     1      -1.521  -2.995  12.976  0.00  0.00    +0.003 A 
ATOM     27  C   UNL     1      -2.579  -2.578  12.191  0.00  0.00    +0.039 A 
ATOM     28  C   UNL     1      -2.358  -1.711  11.134  0.00  0.00    +0.129 A 
ATOM     29  F   UNL     1      -3.392  -1.299  10.369  0.00  0.00    -0.205 F 
ENDBRANCH  21  23
ENDBRANCH  16  17
ENDBRANCH   1  16
TORSDOF 6
