REMARK  Name = ZINC20688992
REMARK  5 active torsions:
REMARK  status: ('A' for Active; 'I' for Inactive)
REMARK    1  A    between atoms: C_1  and  C_2
REMARK    2  A    between atoms: C_5  and  C_7
REMARK    3  A    between atoms: C_17  and  N_25
REMARK    4  A    between atoms: C_20  and  O_23
REMARK    5  A    between atoms: O_23  and  C_24
REMARK                            x       y       z     vdW  Elec       q    Type
REMARK                         _______ _______ _______ _____ _____    ______ ____
ROOT
ATOM      1  C   UNL     1      -2.325   1.422   0.910  0.00  0.00    +0.112 C 
ATOM      2  C   UNL     1      -2.390   0.155   0.082  0.00  0.00    +0.029 C 
ATOM      3  C   UNL     1      -3.517  -0.848   0.356  0.00  0.00    +0.033 C 
ATOM      4  C   UNL     1      -2.854  -2.167  -0.047  0.00  0.00    -0.030 C 
ATOM      5  C   UNL     1      -1.536  -2.070   0.083  0.00  0.00    -0.023 C 
ATOM      6  C   UNL     1      -1.212  -0.722   0.609  0.00  0.00    +0.051 C 
ATOM      7  C   UNL     1       0.038  -0.009   0.267  0.00  0.00    +0.014 A 
ATOM      8  C   UNL     1       1.201  -0.688  -0.036  0.00  0.00    +0.132 A 
ATOM      9  C   UNL     1       2.365   0.001  -0.316  0.00  0.00    +0.037 A 
ATOM     10  C   UNL     1       2.364   1.384  -0.293  0.00  0.00    +0.050 A 
ATOM     11  C   UNL     1       1.204   2.073   0.001  0.00  0.00    +0.141 A 
ATOM     12  C   UNL     1       0.015   1.387   0.279  0.00  0.00    +0.076 A 
ATOM     13  N   UNL     1      -1.127   2.148   0.531  0.00  0.00    -0.333 N 
ATOM     14  H   UNL     1      -1.149   3.246   0.455  0.00  0.00    +0.147 HD
ENDROOT
BRANCH   1  19
ATOM     15  C   UNL     1      -1.053  -0.043   6.232  0.00  0.00    +0.051 C 
ATOM     16  C   UNL     1      -1.636   0.377   4.908  0.00  0.00    -0.013 A 
ATOM     17  C   UNL     1      -2.914   0.712   4.606  0.00  0.00    +0.011 A 
ATOM     18  C   UNL     1      -3.225   1.070   3.307  0.00  0.00    +0.013 A 
ATOM     19  C   UNL     1      -2.242   1.075   2.374  0.00  0.00    +0.010 A 
ATOM     20  S   UNL     1      -0.824   0.557   3.328  0.00  0.00    -0.097 S 
ENDBRANCH   1  19
BRANCH   8  21
ATOM     21  N   UNL     1       1.200  -2.168  -0.062  0.00  0.00    +0.057 N 
ATOM     22  O   UNL     1       0.776  -2.793   0.893  0.00  0.00    -0.126 OA
ATOM     23  O   UNL     1       1.624  -2.760  -1.039  0.00  0.00    -0.126 OA
ENDBRANCH   8  21
BRANCH  11  24
ATOM     24  O   UNL     1       1.216   3.433   0.020  0.00  0.00    -0.493 OA
ATOM     25  C   UNL     1       2.458   4.075  -0.272  0.00  0.00    +0.277 C 
ENDBRANCH  11  24
TORSDOF 3
