REMARK  Name = ZINC22934508
REMARK  9 active torsions:
REMARK  status: ('A' for Active; 'I' for Inactive)
REMARK    1  A    between atoms: C_1  and  C_2
REMARK    2  A    between atoms: C_2  and  C_3
REMARK    3  A    between atoms: C_6  and  C_9
REMARK    4  A    between atoms: C_16  and  O_30
REMARK    5  A    between atoms: C_17  and  C_20
REMARK    6  A    between atoms: C_20  and  N_21
REMARK    7  A    between atoms: N_24  and  C_27
REMARK    8  A    between atoms: C_27  and  C_28
REMARK    9  A    between atoms: C_28  and  O_29
REMARK                            x       y       z     vdW  Elec       q    Type
REMARK                         _______ _______ _______ _____ _____    ______ ____
ROOT
ATOM      1  C   UNL     1       2.782  -1.908   4.658  0.00  0.00    +0.058 C 
ATOM      2  C   UNL     1       2.117  -2.059   5.830  0.00  0.00    +0.176 C 
ATOM      3  C   UNL     1       2.710  -2.429   7.126  0.00  0.00    +0.231 C 
ATOM      4  O   UNL     1       3.881  -2.662   7.370  0.00  0.00    -0.283 OA
ATOM      5  C   UNL     1       1.571  -2.454   8.060  0.00  0.00    +0.068 A 
ATOM      6  C   UNL     1       1.460  -2.731   9.424  0.00  0.00    +0.019 A 
ATOM      7  C   UNL     1       0.239  -2.674  10.033  0.00  0.00    +0.046 A 
ATOM      8  C   UNL     1      -0.895  -2.340   9.297  0.00  0.00    +0.122 A 
ATOM      9  C   UNL     1      -0.800  -2.063   7.943  0.00  0.00    +0.020 A 
ATOM     10  C   UNL     1       0.434  -2.116   7.308  0.00  0.00    +0.144 A 
ATOM     11  O   UNL     1       0.788  -1.889   6.024  0.00  0.00    -0.451 OA
ENDROOT
BRANCH   1  15
ATOM     12  C   UNL     1       0.734  -0.489   1.227  0.00  0.00    -0.048 A 
ATOM     13  C   UNL     1       0.028  -0.762   2.386  0.00  0.00    +0.004 A 
ATOM     14  C   UNL     1       0.686  -1.224   3.506  0.00  0.00    +0.008 A 
ATOM     15  C   UNL     1       2.072  -1.417   3.469  0.00  0.00    -0.021 A 
ATOM     16  C   UNL     1       2.778  -1.138   2.293  0.00  0.00    +0.008 A 
ATOM     17  C   UNL     1       2.104  -0.682   1.180  0.00  0.00    +0.004 A 
BRANCH  12  19
ATOM     18  C   UNL     1      -0.446  -1.172  -0.844  0.00  0.00    +0.009 C 
ATOM     19  C   UNL     1       0.007   0.016   0.007  0.00  0.00    +0.032 C 
ENDBRANCH  12  19
ENDBRANCH   1  15
BRANCH   8  20
ATOM     20  O   UNL     1      -2.104  -2.286   9.912  0.00  0.00    -0.506 OA
ATOM     21  H   UNL     1      -2.323  -1.417  10.274  0.00  0.00    +0.292 HD
ENDBRANCH   8  20
BRANCH   9  22
ATOM     22  C   UNL     1      -2.036  -1.703   7.159  0.00  0.00    -0.035 C 
BRANCH  22  23
ATOM     23  N   UNL     1      -2.232  -0.248   7.193  0.00  0.00    +0.384 N 
ATOM     24  C   UNL     1      -2.507   0.177   8.572  0.00  0.00    -0.063 C 
ATOM     25  C   UNL     1      -2.692   1.696   8.611  0.00  0.00    +0.066 C 
ATOM     26  N   UNL     1      -3.808   2.073   7.731  0.00  0.00    -0.304 NA
ATOM     27  C   UNL     1      -3.557   1.632   6.352  0.00  0.00    +0.066 C 
ATOM     28  C   UNL     1      -3.365   0.114   6.332  0.00  0.00    -0.063 C 
ATOM     29  H   UNL     1      -1.397   0.211   6.860  0.00  0.00    -0.081 HD
BRANCH  26  30
ATOM     30  C   UNL     1      -4.054   3.520   7.785  0.00  0.00    +0.112 C 
BRANCH  30  31
ATOM     31  C   UNL     1      -5.364   3.842   7.063  0.00  0.00    +0.171 C 
BRANCH  31  32
ATOM     32  O   UNL     1      -6.455   3.246   7.768  0.00  0.00    -0.394 OA
ATOM     33  H   UNL     1      -7.319   3.409   7.365  0.00  0.00    +0.209 HD
ENDBRANCH  31  32
ENDBRANCH  30  31
ENDBRANCH  26  30
ENDBRANCH  22  23
ENDBRANCH   9  22
TORSDOF 8
