REMARK  Name = ZINC62752767
REMARK  2 active torsions:
REMARK  status: ('A' for Active; 'I' for Inactive)
REMARK    1  A    between atoms: N_12  and  C_13
REMARK    2  A    between atoms: C_18  and  C_20
REMARK                            x       y       z     vdW  Elec       q    Type
REMARK                         _______ _______ _______ _____ _____    ______ ____
ROOT
ATOM      1  C   UNL     1       1.571   2.970   1.949  0.00  0.00    +0.000 C 
ATOM      2  C   UNL     1       2.950   3.220   1.334  0.00  0.00    -0.002 C 
ATOM      3  C   UNL     1       3.062   2.464   0.009  0.00  0.00    -0.015 C 
ATOM      4  C   UNL     1       2.880   0.966   0.260  0.00  0.00    -0.065 C 
ATOM      5  C   UNL     1       1.501   0.716   0.875  0.00  0.00    -0.025 C 
ATOM      6  C   UNL     1       1.389   1.472   2.200  0.00  0.00    +0.002 C 
ATOM      7  C   UNL     1       1.325  -0.784   1.128  0.00  0.00    +0.000 C 
ATOM      8  C   UNL     1       1.518  -1.540  -0.190  0.00  0.00    -0.018 C 
ATOM      9  C   UNL     1       2.897  -1.207  -0.765  0.00  0.00    -0.078 C 
ATOM     10  N   UNL     1       2.990   0.238  -1.010  0.00  0.00    +0.384 N 
ATOM     11  H   UNL     1       2.245   0.524  -1.626  0.00  0.00    -0.081 HD
ENDROOT
BRANCH  10  12
ATOM     12  C   UNL     1       4.284   0.542  -1.636  0.00  0.00    -0.054 C 
ATOM     13  C   UNL     1       5.271   1.074  -0.577  0.00  0.00    -0.014 C 
ATOM     14  C   UNL     1       6.078   2.164  -1.325  0.00  0.00    -0.001 C 
ATOM     15  C   UNL     1       5.004   2.832  -2.220  0.00  0.00    +0.013 C 
ATOM     16  C   UNL     1       4.114   1.658  -2.681  0.00  0.00    +0.089 C 
BRANCH  16  17
ATOM     17  C   UNL     1       2.673   2.095  -2.740  0.00  0.00    +0.357 C 
ATOM     18  O   UNL     1       2.366   3.229  -2.413  0.00  0.00    -0.246 OA
ATOM     19  O   UNL     1       1.814   1.315  -3.115  0.00  0.00    -0.246 OA
ENDBRANCH  16  17
ENDBRANCH  10  12
TORSDOF 2
