REMARK  Name = ZINC36232508
REMARK  5 active torsions:
REMARK  status: ('A' for Active; 'I' for Inactive)
REMARK    1  A    between atoms: C_1  and  C_2
REMARK    2  A    between atoms: C_2  and  C_21
REMARK    3  A    between atoms: N_4  and  S_8
REMARK    4  A    between atoms: S_8  and  C_11
REMARK    5  A    between atoms: C_15  and  N_17
REMARK                            x       y       z     vdW  Elec       q    Type
REMARK                         _______ _______ _______ _____ _____    ______ ____
ROOT
ATOM      1  S   UNL     1      -3.512   0.543   1.413  0.00  0.00    +0.061 S 
ATOM      2  O   UNL     1      -3.553   1.206   2.669  0.00  0.00    -0.153 OA
ATOM      3  O   UNL     1      -3.697   1.229   0.182  0.00  0.00    -0.153 OA
ENDROOT
BRANCH   1   7
ATOM      4  C   UNL     1      -0.019   1.526   0.010  0.00  0.00    +0.042 C 
ATOM      5  C   UNL     1       0.002  -0.004   0.002  0.00  0.00    +0.078 C 
ATOM      6  C   UNL     1      -1.436  -0.536   0.019  0.00  0.00    +0.144 C 
ATOM      7  N   UNL     1      -2.037  -0.205   1.321  0.00  0.00    -0.172 NA
ATOM      8  C   UNL     1      -1.289  -0.558   2.538  0.00  0.00    +0.137 C 
ATOM      9  C   UNL     1       0.141  -0.025   2.398  0.00  0.00    +0.177 C 
ATOM     10  O   UNL     1       0.693  -0.479   1.160  0.00  0.00    -0.371 OA
ATOM     11  C   UNL     1       0.716  -0.499  -1.258  0.00  0.00    +0.042 C 
ENDBRANCH   1   7
BRANCH   1  12
ATOM     12  C   UNL     1      -4.735  -0.724   1.473  0.00  0.00    +0.108 A 
ATOM     13  C   UNL     1      -5.280  -1.214   0.300  0.00  0.00    +0.030 A 
ATOM     14  C   UNL     1      -6.240  -2.208   0.346  0.00  0.00    +0.024 A 
ATOM     15  C   UNL     1      -6.655  -2.712   1.566  0.00  0.00    +0.071 A 
ATOM     16  C   UNL     1      -6.109  -2.221   2.739  0.00  0.00    +0.146 A 
ATOM     17  C   UNL     1      -5.146  -1.231   2.691  0.00  0.00    +0.062 A 
ATOM     18 CL   UNL     1      -7.860  -3.960   1.625  0.00  0.00    -0.081 Cl
BRANCH  16  19
ATOM     19  N   UNL     1      -6.553  -2.760   4.044  0.00  0.00    +0.058 N 
ATOM     20  O   UNL     1      -6.075  -2.331   5.069  0.00  0.00    -0.126 OA
ATOM     21  O   UNL     1      -7.392  -3.630   4.085  0.00  0.00    -0.126 OA
ENDBRANCH  16  19
ENDBRANCH   1  12
TORSDOF 3
