REMARK  Name = ZINC36311593
REMARK  5 active torsions:
REMARK  status: ('A' for Active; 'I' for Inactive)
REMARK    1  A    between atoms: C_3  and  N_8
REMARK    2  A    between atoms: C_9  and  C_11
REMARK    3  A    between atoms: C_11  and  C_13
REMARK    4  A    between atoms: C_11  and  N_18
REMARK    5  A    between atoms: C_24  and  C_26
REMARK                            x       y       z     vdW  Elec       q    Type
REMARK                         _______ _______ _______ _____ _____    ______ ____
ROOT
ATOM      1  C   UNL     1       6.010   2.307   0.154  0.00  0.00    +0.023 C 
ENDROOT
BRANCH   1   2
ATOM      2  N   UNL     1       7.052   1.277   0.260  0.00  0.00    +0.390 N 
ATOM      3  C   UNL     1       8.332   1.912   0.599  0.00  0.00    -0.058 C 
ATOM      4  C   UNL     1       9.394   0.830   0.822  0.00  0.00    +0.089 C 
ATOM      5  N   UNL     1       9.440  -0.030  -0.370  0.00  0.00    -0.305 N 
ATOM      6  C   UNL     1       8.174  -0.579  -0.879  0.00  0.00    +0.089 C 
ATOM      7  C   UNL     1       7.169   0.570  -1.022  0.00  0.00    -0.058 C 
ATOM      8  C   UNL     1      10.610  -0.307  -0.980  0.00  0.00    +0.219 C 
ATOM      9  O   UNL     1      11.644   0.154  -0.546  0.00  0.00    -0.275 OA
ATOM     10  H   UNL     1       6.802   0.621   0.984  0.00  0.00    -0.081 HD
BRANCH   8  11
ATOM     11  C   UNL     1      10.633  -1.191  -2.200  0.00  0.00    +0.075 C 
ATOM     12  C   UNL     1      11.279  -2.571  -2.061  0.00  0.00    +0.013 C 
ATOM     13  C   UNL     1      11.992  -1.468  -2.846  0.00  0.00    +0.013 C 
ENDBRANCH   8  11
ENDBRANCH   1   2
BRANCH   1  14
ATOM     14  C   UNL     1       5.793   2.955   1.523  0.00  0.00    -0.016 C 
ATOM     15  C   UNL     1       5.372   1.887   2.553  0.00  0.00    +0.002 C 
ATOM     16  C   UNL     1       4.336   2.611   3.449  0.00  0.00    +0.000 C 
ATOM     17  C   UNL     1       3.559   3.486   2.435  0.00  0.00    +0.000 C 
ATOM     18  C   UNL     1       4.641   3.972   1.448  0.00  0.00    +0.002 C 
ENDBRANCH   1  14
BRANCH   1  20
ATOM     19  N   UNL     1       3.854   2.385  -1.057  0.00  0.00    -0.287 N 
ATOM     20  C   UNL     1       4.723   1.674  -0.311  0.00  0.00    +0.204 C 
ATOM     21  O   UNL     1       4.471   0.526  -0.014  0.00  0.00    -0.277 OA
ATOM     22  H   UNL     1       4.108   3.256  -1.399  0.00  0.00    +0.155 HD
BRANCH  19  25
ATOM     23  C   UNL     1       0.285   2.205  -1.921  0.00  0.00    +0.003 A 
ATOM     24  C   UNL     1       1.536   2.720  -1.643  0.00  0.00    +0.023 A 
ATOM     25  C   UNL     1       2.586   1.865  -1.339  0.00  0.00    +0.035 A 
ATOM     26  C   UNL     1       2.376   0.492  -1.315  0.00  0.00    +0.043 A 
ATOM     27  C   UNL     1       1.122  -0.018  -1.594  0.00  0.00    +0.043 A 
ATOM     28  C   UNL     1       0.077   0.838  -1.897  0.00  0.00    +0.020 A 
ATOM     29 CL   UNL     1       0.858  -1.733  -1.565  0.00  0.00    -0.083 Cl
ENDBRANCH  19  25
ENDBRANCH   1  20
TORSDOF 5
