REMARK  Name = ZINC67548260
REMARK  10 active torsions:
REMARK  status: ('A' for Active; 'I' for Inactive)
REMARK    1  A    between atoms: C_1  and  C_2
REMARK    2  A    between atoms: C_4  and  C_25
REMARK    3  A    between atoms: C_7  and  N_8
REMARK    4  A    between atoms: N_11  and  C_12
REMARK    5  A    between atoms: C_12  and  C_14
REMARK    6  A    between atoms: C_12  and  C_15
REMARK    7  A    between atoms: C_22  and  C_24
REMARK    8  A    between atoms: N_27  and  C_28
REMARK    9  A    between atoms: C_28  and  C_29
REMARK   10  A    between atoms: C_28  and  C_30
REMARK                            x       y       z     vdW  Elec       q    Type
REMARK                         _______ _______ _______ _____ _____    ______ ____
ROOT
ATOM      1  N   UNL     1      -0.455  -0.301   2.329  0.00  0.00    -0.269 N 
ATOM      2  C   UNL     1      -0.322  -0.876   3.541  0.00  0.00    +0.304 C 
ATOM      3  O   UNL     1      -0.135  -2.074   3.627  0.00  0.00    -0.252 OA
ATOM      4  N   UNL     1      -0.397  -0.123   4.656  0.00  0.00    -0.288 N 
ATOM      5  H   UNL     1      -0.534   0.663   2.256  0.00  0.00    +0.156 HD
ATOM      6  H   UNL     1      -0.546   0.833   4.586  0.00  0.00    +0.151 HD
ENDROOT
BRANCH   1  13
ATOM      7  C   UNL     1      -2.109   0.530   0.173  0.00  0.00    +0.045 C 
ATOM      8  C   UNL     1      -1.274  -0.723   0.101  0.00  0.00    -0.028 A 
ATOM      9  C   UNL     1      -1.296  -1.498  -1.037  0.00  0.00    +0.018 A 
ATOM     10  C   UNL     1      -0.522  -2.660  -1.103  0.00  0.00    +0.037 A 
ATOM     11  C   UNL     1       0.272  -3.030  -0.014  0.00  0.00    +0.015 A 
ATOM     12  C   UNL     1       0.289  -2.250   1.120  0.00  0.00    +0.024 A 
ATOM     13  C   UNL     1      -0.479  -1.091   1.181  0.00  0.00    +0.038 A 
BRANCH  10  14
ATOM     14  C   UNL     1      -0.542  -3.494  -2.321  0.00  0.00    +0.244 C 
ATOM     15  O   UNL     1      -1.234  -3.171  -3.267  0.00  0.00    -0.270 OA
ATOM     16  N   UNL     1       0.205  -4.614  -2.383  0.00  0.00    -0.309 N 
ATOM     17  H   UNL     1       0.756  -4.872  -1.628  0.00  0.00    +0.149 HD
BRANCH  16  18
ATOM     18  C   UNL     1       0.184  -5.442  -3.592  0.00  0.00    +0.067 C 
ATOM     19  C   UNL     1       1.189  -4.890  -4.605  0.00  0.00    +0.027 C 
ATOM     20  C   UNL     1       0.561  -6.880  -3.231  0.00  0.00    +0.027 C 
ENDBRANCH  16  18
ENDBRANCH  10  14
ENDBRANCH   1  13
BRANCH   4  21
ATOM     21  C   UNL     1      -0.252  -0.748   5.973  0.00  0.00    +0.157 C 
ATOM     22  C   UNL     1       1.233  -0.859   6.324  0.00  0.00    +0.038 C 
BRANCH  21  23
ATOM     23  C   UNL     1      -0.951   0.095   7.008  0.00  0.00    +0.236 C 
ATOM     24  O   UNL     1      -1.271   1.235   6.747  0.00  0.00    -0.274 OA
ATOM     25  N   UNL     1      -1.221  -0.419   8.225  0.00  0.00    -0.297 N 
ATOM     26  C   UNL     1      -0.728  -1.750   8.601  0.00  0.00    +0.108 C 
ATOM     27  C   UNL     1       0.044  -1.636   9.920  0.00  0.00    +0.019 C 
ATOM     28  C   UNL     1      -0.849  -0.975  10.973  0.00  0.00    +0.003 C 
ATOM     29  C   UNL     1      -1.228   0.434  10.511  0.00  0.00    +0.022 C 
ATOM     30  C   UNL     1      -2.009   0.345   9.202  0.00  0.00    +0.073 C 
ATOM     31  C   UNL     1      -2.267   1.754   8.664  0.00  0.00    +0.028 C 
ENDBRANCH  21  23
ENDBRANCH   4  21
TORSDOF 5
