REMARK  Name = ZINC39024840
REMARK  4 active torsions:
REMARK  status: ('A' for Active; 'I' for Inactive)
REMARK    1  A    between atoms: C_1  and  C_2
REMARK    2  A    between atoms: C_4  and  C_16
REMARK    3  A    between atoms: C_6  and  C_14
REMARK    4  A    between atoms: C_7  and  N_13
REMARK                            x       y       z     vdW  Elec       q    Type
REMARK                         _______ _______ _______ _____ _____    ______ ____
ROOT
ATOM      1  C   UNL     1      -0.098   1.601  -0.022  0.00  0.00    +0.067 C 
ATOM      2  C   UNL     1      -0.019   0.096  -0.002  0.00  0.00    +0.066 C 
ATOM      3  C   UNL     1      -1.054  -0.708   0.011  0.00  0.00    +0.030 C 
ATOM      4  C   UNL     1      -2.537  -0.492  -0.122  0.00  0.00    +0.102 C 
ATOM      5  C   UNL     1      -3.030  -1.603  -1.031  0.00  0.00    +0.098 C 
ATOM      6  C   UNL     1      -2.231  -2.627  -1.397  0.00  0.00    +0.195 C 
ATOM      7  O   UNL     1      -0.941  -2.800  -1.059  0.00  0.00    -0.448 OA
ATOM      8  C   UNL     1      -0.465  -2.116   0.103  0.00  0.00    +0.343 C 
ATOM      9  N   UNL     1       0.976  -1.847   0.038  0.00  0.00    -0.138 NA
ATOM     10  N   UNL     1       1.134  -0.621   0.000  0.00  0.00    -0.155 NA
ENDROOT
BRANCH   4  11
ATOM     11  C   UNL     1      -3.201  -0.585   1.227  0.00  0.00    +0.019 A 
ATOM     12  C   UNL     1      -3.239  -1.795   1.899  0.00  0.00    +0.129 A 
ATOM     13  C   UNL     1      -3.849  -1.879   3.138  0.00  0.00    +0.039 A 
ATOM     14  C   UNL     1      -4.420  -0.755   3.705  0.00  0.00    +0.004 A 
ATOM     15  C   UNL     1      -4.383   0.453   3.035  0.00  0.00    +0.020 A 
ATOM     16  C   UNL     1      -3.768   0.540   1.798  0.00  0.00    +0.048 A 
ATOM     17 CL   UNL     1      -3.715   2.060   0.961  0.00  0.00    -0.083 Cl
ATOM     18  F   UNL     1      -2.681  -2.893   1.344  0.00  0.00    -0.205 F 
ENDBRANCH   4  11
BRANCH   6  19
ATOM     19  N   UNL     1      -2.792  -3.590  -2.196  0.00  0.00    -0.329 N 
ATOM     20  H   UNL     1      -3.720  -3.514  -2.469  0.00  0.00    +0.145 HD
ATOM     21  H   UNL     1      -2.262  -4.348  -2.488  0.00  0.00    +0.145 HD
ENDBRANCH   6  19
BRANCH   5  22
ATOM     22  C   UNL     1      -4.379  -1.564  -1.511  0.00  0.00    +0.101 C 
ATOM     23  N   UNL     1      -5.448  -1.534  -1.892  0.00  0.00    -0.191 NA
ENDBRANCH   5  22
TORSDOF 3
