REMARK  Name = ZINC39142670
REMARK  3 active torsions:
REMARK  status: ('A' for Active; 'I' for Inactive)
REMARK    1  A    between atoms: C_7  and  C_10
REMARK    2  A    between atoms: C_13  and  N_16
REMARK    3  A    between atoms: N_16  and  C_17
REMARK                            x       y       z     vdW  Elec       q    Type
REMARK                         _______ _______ _______ _____ _____    ______ ____
ROOT
ATOM      1  C   UNL     1       0.570  -3.155  -0.339  0.00  0.00    +0.079 C 
ATOM      2  N   UNL     1      -0.636  -2.861   0.110  0.00  0.00    -0.151 NA
ATOM      3  N   UNL     1      -1.586  -3.645   0.412  0.00  0.00    -0.125 NA
ATOM      4  C   UNL     1      -1.500  -4.989   0.456  0.00  0.00    +0.200 C 
ATOM      5  S   UNL     1       0.086  -5.745   0.243  0.00  0.00    -0.081 S 
ATOM      6  C   UNL     1       0.937  -4.536  -0.828  0.00  0.00    +0.134 C 
ENDROOT
BRANCH   1  13
ATOM      7  C   UNL     1       0.380   1.242   0.911  0.00  0.00    +0.001 A 
ATOM      8  C   UNL     1       1.584   1.903   0.717  0.00  0.00    +0.002 A 
ATOM      9  C   UNL     1       2.674   1.237   0.198  0.00  0.00    +0.026 A 
ATOM     10  C   UNL     1       2.580  -0.112  -0.138  0.00  0.00    +0.043 A 
ATOM     11  N   UNL     1       3.534  -0.970  -0.668  0.00  0.00    -0.380 N 
ATOM     12  C   UNL     1       2.944  -2.300  -0.845  0.00  0.00    +0.150 C 
ATOM     13  C   UNL     1       1.514  -2.178  -0.367  0.00  0.00    +0.005 C 
ATOM     14  C   UNL     1       1.361  -0.781   0.059  0.00  0.00    +0.005 A 
ATOM     15  C   UNL     1       0.262  -0.091   0.587  0.00  0.00    +0.010 A 
ATOM     16  H   UNL     1       4.448  -0.728  -0.886  0.00  0.00    +0.160 HD
ENDBRANCH   1  13
BRANCH   4  17
ATOM     17  N   UNL     1      -2.574  -5.725   0.654  0.00  0.00    -0.186 NA
BRANCH  17  18
ATOM     18  C   UNL     1      -3.813  -5.201   0.420  0.00  0.00    +0.091 A 
ATOM     19  C   UNL     1      -3.981  -4.193  -0.533  0.00  0.00    +0.028 A 
ATOM     20  C   UNL     1      -5.235  -3.669  -0.764  0.00  0.00    +0.002 A 
ATOM     21  C   UNL     1      -6.327  -4.138  -0.055  0.00  0.00    +0.003 A 
ATOM     22  C   UNL     1      -6.171  -5.135   0.891  0.00  0.00    +0.040 A 
ATOM     23  C   UNL     1      -4.923  -5.675   1.130  0.00  0.00    +0.146 A 
ATOM     24  F   UNL     1      -4.772  -6.653   2.050  0.00  0.00    -0.203 F 
ENDBRANCH  17  18
ENDBRANCH   4  17
TORSDOF 3
