REMARK  Name = ZINC39470001
REMARK  7 active torsions:
REMARK  status: ('A' for Active; 'I' for Inactive)
REMARK    1  A    between atoms: C_1  and  C_2
REMARK    2  A    between atoms: C_2  and  O_3
REMARK    3  A    between atoms: O_3  and  C_4
REMARK    4  A    between atoms: P_13  and  S_23
REMARK    5  A    between atoms: S_23  and  C_26
REMARK    6  A    between atoms: C_26  and  C_27
REMARK    7  A    between atoms: C_26  and  C_28
REMARK                            x       y       z     vdW  Elec       q    Type
REMARK                         _______ _______ _______ _____ _____    ______ ____
ROOT
ATOM      1  C   UNL     1       0.777  -1.810  -1.336  0.00  0.00    +0.135 C 
ATOM      2  C   UNL     1       0.264  -2.639  -0.424  0.00  0.00    +0.024 C 
ATOM      3  C   UNL     1       0.376  -4.128  -0.617  0.00  0.00    +0.025 C 
ATOM      4  C   UNL     1      -0.738  -4.843   0.132  0.00  0.00    +0.031 C 
ATOM      5  C   UNL     1      -1.067  -6.195  -0.513  0.00  0.00    +0.100 C 
ATOM      6  C   UNL     1      -1.582  -7.087   0.626  0.00  0.00    +0.191 C 
ATOM      7  O   UNL     1      -1.933  -8.387   0.128  0.00  0.00    -0.299 OA
ATOM      8  P   UNL     1      -0.821  -9.171  -0.765  0.00  0.00    +0.419 P 
ATOM      9  O   UNL     1      -1.467 -10.217  -1.588  0.00  0.00    -0.246 OA
ATOM     10  N   UNL     1      -0.159  -8.010  -1.729  0.00  0.00    -0.161 NA
ATOM     11  N   UNL     1       0.101  -6.774  -1.168  0.00  0.00    -0.228 NA
ATOM     12  C   UNL     1       0.605  -5.957  -2.286  0.00  0.00    +0.111 C 
ATOM     13  C   UNL     1       0.263  -4.467  -2.102  0.00  0.00    +0.036 C 
ATOM     14  C   UNL     1       1.219  -3.617  -2.895  0.00  0.00    +0.002 C 
ATOM     15  C   UNL     1       1.454  -2.363  -2.525  0.00  0.00    +0.079 C 
ATOM     16 CL   UNL     1       2.560  -1.382  -3.435  0.00  0.00    -0.080 Cl
ATOM     17  H   UNL     1       0.048  -8.197  -2.658  0.00  0.00    +0.152 HD
ENDROOT
BRANCH   8  18
ATOM     18  S   UNL     1       0.658 -10.029   0.488  0.00  0.00    +0.058 S 
ATOM     19  O   UNL     1       1.504 -10.754  -0.394  0.00  0.00    -0.164 OA
ATOM     20  O   UNL     1       1.166  -8.941   1.247  0.00  0.00    -0.164 OA
BRANCH  18  21
ATOM     21  C   UNL     1      -0.249 -11.173   1.565  0.00  0.00    +0.136 C 
ATOM     22  C   UNL     1       0.708 -11.763   2.603  0.00  0.00    +0.032 C 
ATOM     23  C   UNL     1      -1.373 -10.418   2.278  0.00  0.00    +0.032 C 
ENDBRANCH  18  21
ENDBRANCH   8  18
BRANCH   1  24
ATOM     24  O   UNL     1       0.671  -0.465  -1.174  0.00  0.00    -0.491 OA
BRANCH  24  26
ATOM     25  C   UNL     1      -0.019   1.526   0.010  0.00  0.00    +0.048 C 
ATOM     26  C   UNL     1       0.002  -0.004   0.002  0.00  0.00    +0.226 C 
ENDBRANCH  24  26
ENDBRANCH   1  24
TORSDOF 4
