REMARK  Name = ZINC04330581
REMARK  11 active torsions:
REMARK  status: ('A' for Active; 'I' for Inactive)
REMARK    1  A    between atoms: C_1  and  C_2
REMARK    2  A    between atoms: C_6  and  N_9
REMARK    3  A    between atoms: C_7  and  C_8
REMARK    4  A    between atoms: C_10  and  C_12
REMARK    5  A    between atoms: N_14  and  C_15
REMARK    6  A    between atoms: C_15  and  C_16
REMARK    7  A    between atoms: C_16  and  C_18
REMARK    8  A    between atoms: C_16  and  N_27
REMARK    9  A    between atoms: C_21  and  N_24
REMARK   10  A    between atoms: N_24  and  C_25
REMARK   11  A    between atoms: N_24  and  C_26
REMARK                            x       y       z     vdW  Elec       q    Type
REMARK                         _______ _______ _______ _____ _____    ______ ____
ROOT
ATOM      1  C   UNL     1       0.330  -6.931   4.593  0.00  0.00    +0.094 C 
ENDROOT
BRANCH   1   4
ATOM      2  C   UNL     1       1.655  -5.357   5.899  0.00  0.00    +0.299 C 
ATOM      3  O   UNL     1       0.854  -4.491   5.614  0.00  0.00    -0.265 OA
ATOM      4  N   UNL     1       1.483  -6.612   5.438  0.00  0.00    -0.309 N 
ATOM      5  H   UNL     1       2.124  -7.304   5.665  0.00  0.00    +0.149 HD
BRANCH   2   7
ATOM      6  N   UNL     1       3.002  -3.777   7.221  0.00  0.00    -0.278 N 
ATOM      7  C   UNL     1       2.831  -5.032   6.760  0.00  0.00    +0.303 C 
ATOM      8  O   UNL     1       3.632  -5.898   7.045  0.00  0.00    -0.265 OA
ATOM      9  H   UNL     1       2.320  -3.106   7.065  0.00  0.00    +0.155 HD
BRANCH   6  15
ATOM     10  C   UNL     1       5.293  -0.903  10.484  0.00  0.00    +0.044 C 
ATOM     11  C   UNL     1       5.303  -2.054   9.512  0.00  0.00    -0.046 A 
ATOM     12  C   UNL     1       6.462  -2.782   9.314  0.00  0.00    +0.004 A 
ATOM     13  C   UNL     1       6.475  -3.840   8.424  0.00  0.00    +0.002 A 
ATOM     14  C   UNL     1       5.329  -4.173   7.728  0.00  0.00    +0.023 A 
ATOM     15  C   UNL     1       4.163  -3.444   7.924  0.00  0.00    +0.037 A 
ATOM     16  C   UNL     1       4.152  -2.385   8.824  0.00  0.00    -0.026 A 
ATOM     17  C   UNL     1       2.888  -1.595   9.044  0.00  0.00    +0.046 C 
ENDBRANCH   6  15
ENDBRANCH   2   7
ENDBRANCH   1   4
BRANCH   1  18
ATOM     18  C   UNL     1       0.303  -8.434   4.313  0.00  0.00    -0.020 C 
BRANCH  18  19
ATOM     19  C   UNL     1       0.173  -9.185   5.613  0.00  0.00    -0.059 A 
ATOM     20  C   UNL     1      -1.066  -9.315   6.213  0.00  0.00    +0.004 A 
ATOM     21  C   UNL     1      -1.189 -10.002   7.405  0.00  0.00    +0.023 A 
ATOM     22  C   UNL     1      -0.067 -10.564   8.000  0.00  0.00    +0.029 A 
ATOM     23  C   UNL     1       1.176 -10.432   7.394  0.00  0.00    +0.023 A 
ATOM     24  C   UNL     1       1.291  -9.748   6.199  0.00  0.00    +0.004 A 
BRANCH  22  25
ATOM     25  N   UNL     1      -0.187 -11.260   9.205  0.00  0.00    -0.336 N 
ATOM     26  C   UNL     1      -1.512 -11.497   9.785  0.00  0.00    +0.129 C 
ATOM     27  C   UNL     1       1.011 -11.753   9.889  0.00  0.00    +0.129 C 
ENDBRANCH  22  25
ENDBRANCH  18  19
BRANCH  18  28
ATOM     28  N   UNL     1      -0.841  -8.751   3.448  0.00  0.00    +0.385 N 
ATOM     29  C   UNL     1      -0.631  -8.183   2.091  0.00  0.00    -0.078 C 
ATOM     30  C   UNL     1      -1.565  -9.039   1.200  0.00  0.00    -0.020 C 
ATOM     31  C   UNL     1      -1.437 -10.450   1.818  0.00  0.00    -0.020 C 
ATOM     32  C   UNL     1      -0.950 -10.214   3.260  0.00  0.00    -0.078 C 
ATOM     33  H   UNL     1      -1.693  -8.388   3.849  0.00  0.00    -0.081 HD
ENDBRANCH  18  28
ENDBRANCH   1  18
TORSDOF 7
