REMARK  Name = ZINC36010322
REMARK  9 active torsions:
REMARK  status: ('A' for Active; 'I' for Inactive)
REMARK    1  A    between atoms: C_1  and  C_2
REMARK    2  A    between atoms: C_5  and  C_8
REMARK    3  A    between atoms: N_10  and  C_11
REMARK    4  A    between atoms: N_10  and  C_31
REMARK    5  A    between atoms: C_11  and  C_12
REMARK    6  A    between atoms: C_22  and  C_24
REMARK    7  A    between atoms: C_31  and  C_32
REMARK    8  A    between atoms: C_31  and  C_33
REMARK    9  A    between atoms: C_31  and  C_34
REMARK                            x       y       z     vdW  Elec       q    Type
REMARK                         _______ _______ _______ _____ _____    ______ ____
ROOT
ATOM      1  C   UNL     1       1.702  -3.622   0.664  0.00  0.00    +0.234 C 
ATOM      2  O   UNL     1       2.412  -2.789   1.185  0.00  0.00    -0.274 OA
ATOM      3  N   UNL     1       1.705  -3.767  -0.676  0.00  0.00    -0.286 N 
ATOM      4  C   UNL     1       0.813  -4.733  -1.335  0.00  0.00    +0.130 C 
ATOM      5  C   UNL     1      -0.179  -3.978  -2.226  0.00  0.00    +0.140 C 
ATOM      6  N   UNL     1       0.545  -2.977  -3.016  0.00  0.00    -0.347 N 
ATOM      7  C   UNL     1       0.114  -2.363  -4.151  0.00  0.00    +0.086 A 
ATOM      8  C   UNL     1       1.074  -1.505  -4.559  0.00  0.00    +0.019 A 
ATOM      9  C   UNL     1       2.140  -1.596  -3.640  0.00  0.00    +0.025 A 
ATOM     10  C   UNL     1       1.793  -2.503  -2.714  0.00  0.00    +0.044 A 
ATOM     11  C   UNL     1       2.600  -2.959  -1.525  0.00  0.00    +0.153 C 
ENDROOT
BRANCH  11  12
ATOM     12  C   UNL     1       3.099  -1.764  -0.754  0.00  0.00    -0.021 A 
ATOM     13  C   UNL     1       2.198  -0.863  -0.216  0.00  0.00    +0.007 A 
ATOM     14  C   UNL     1       2.656   0.233   0.491  0.00  0.00    +0.020 A 
ATOM     15  C   UNL     1       4.015   0.429   0.660  0.00  0.00    +0.041 A 
ATOM     16  C   UNL     1       4.915  -0.473   0.121  0.00  0.00    +0.020 A 
ATOM     17  C   UNL     1       4.457  -1.571  -0.581  0.00  0.00    +0.007 A 
ATOM     18 CL   UNL     1       4.590   1.806   1.547  0.00  0.00    -0.084 Cl
ENDBRANCH  11  12
BRANCH   1  19
ATOM     19  C   UNL     1       0.816  -4.495   1.515  0.00  0.00    +0.204 C 
BRANCH  19  22
ATOM     20  C   UNL     1       0.218  -3.197   3.488  0.00  0.00    +0.247 C 
ATOM     21  O   UNL     1      -0.934  -3.061   3.124  0.00  0.00    -0.270 OA
ATOM     22  N   UNL     1       0.994  -4.144   2.926  0.00  0.00    -0.284 N 
BRANCH  20  27
ATOM     23  C   UNL     1       2.353   0.202   7.611  0.00  0.00    +0.044 C 
ATOM     24  C   UNL     1       1.794  -0.688   6.531  0.00  0.00    -0.050 A 
ATOM     25  C   UNL     1       0.865  -0.186   5.637  0.00  0.00    +0.004 A 
ATOM     26  C   UNL     1       0.349  -0.995   4.646  0.00  0.00    +0.013 A 
ATOM     27  C   UNL     1       0.767  -2.324   4.547  0.00  0.00    +0.037 A 
ATOM     28  C   UNL     1       1.704  -2.824   5.452  0.00  0.00    +0.013 A 
ATOM     29  C   UNL     1       2.216  -2.002   6.435  0.00  0.00    +0.004 A 
ENDBRANCH  20  27
BRANCH  22  30
ATOM     30  C   UNL     1       2.016  -4.823   3.726  0.00  0.00    +0.030 C 
ATOM     31  C   UNL     1       1.379  -5.381   5.000  0.00  0.00    +0.031 C 
ATOM     32  C   UNL     1       2.622  -5.970   2.914  0.00  0.00    +0.031 C 
ATOM     33  C   UNL     1       3.116  -3.827   4.100  0.00  0.00    +0.031 C 
ENDBRANCH  22  30
ENDBRANCH  19  22
ENDBRANCH   1  19
TORSDOF 5
