REMARK  Name = ZINC15624928
REMARK  7 active torsions:
REMARK  status: ('A' for Active; 'I' for Inactive)
REMARK    1  A    between atoms: C_1  and  O_2
REMARK    2  A    between atoms: O_2  and  C_3
REMARK    3  A    between atoms: C_6  and  C_9
REMARK    4  A    between atoms: C_15  and  C_17
REMARK    5  A    between atoms: C_18  and  C_19
REMARK    6  A    between atoms: C_23  and  O_25
REMARK    7  A    between atoms: O_25  and  C_26
REMARK                            x       y       z     vdW  Elec       q    Type
REMARK                         _______ _______ _______ _____ _____    ______ ____
ROOT
ATOM      1  C   UNL     1       7.561   8.192  -0.769  0.00  0.00    +0.107 C 
ATOM      2  C   UNL     1       7.142   9.619  -1.180  0.00  0.00    +0.029 C 
ATOM      3  C   UNL     1       5.641   9.667  -0.787  0.00  0.00    +0.021 C 
ATOM      4  C   UNL     1       5.192   8.217  -1.106  0.00  0.00    +0.109 C 
ATOM      5  N   UNL     1       6.339   7.376  -0.718  0.00  0.00    -0.291 N 
ATOM      6  C   UNL     1       6.278   6.073  -0.379  0.00  0.00    +0.240 C 
ATOM      7  O   UNL     1       7.295   5.473  -0.081  0.00  0.00    -0.271 OA
ENDROOT
BRANCH   1  11
ATOM      8  C   UNL     1      10.268   6.576  -3.654  0.00  0.00    +0.120 A 
ATOM      9  C   UNL     1      10.751   7.092  -2.461  0.00  0.00    +0.046 A 
ATOM     10  C   UNL     1       9.874   7.614  -1.530  0.00  0.00    +0.009 A 
ATOM     11  C   UNL     1       8.515   7.622  -1.787  0.00  0.00    -0.027 A 
ATOM     12  C   UNL     1       8.031   7.103  -2.973  0.00  0.00    +0.009 A 
ATOM     13  C   UNL     1       8.905   6.585  -3.909  0.00  0.00    +0.046 A 
BRANCH   8  15
ATOM     14  C   UNL     1      10.561   5.548  -5.778  0.00  0.00    +0.277 C 
ATOM     15  O   UNL     1      11.129   6.062  -4.572  0.00  0.00    -0.495 OA
ENDBRANCH   8  15
ENDBRANCH   1  11
BRANCH   6  16
ATOM     16  C   UNL     1       4.991   5.379  -0.369  0.00  0.00    +0.068 C 
ATOM     17  C   UNL     1       4.930   4.074  -0.030  0.00  0.00    +0.013 C 
BRANCH  17  18
ATOM     18  C   UNL     1       3.636   3.377  -0.020  0.00  0.00    -0.018 A 
ATOM     19  C   UNL     1       3.570   2.024   0.332  0.00  0.00    +0.057 A 
ATOM     20  C   UNL     1       2.351   1.369   0.340  0.00  0.00    +0.166 A 
ATOM     21  C   UNL     1       1.190   2.056   0.002  0.00  0.00    +0.204 A 
ATOM     22  C   UNL     1       1.252   3.404  -0.350  0.00  0.00    +0.166 A 
ATOM     23  C   UNL     1       2.466   4.063  -0.362  0.00  0.00    +0.057 A 
ATOM     24  O   UNL     1      -0.017   1.427   0.010  0.00  0.00    -0.482 OA
ATOM     25  C   UNL     1       0.002  -0.004   0.002  0.00  0.00    +0.270 C 
ATOM     26  C   UNL     1       1.026  -0.476   1.043  0.00  0.00    +0.270 C 
ATOM     27  O   UNL     1       2.307   0.052   0.682  0.00  0.00    -0.485 OA
BRANCH  22  28
ATOM     28  O   UNL     1       0.115   4.071  -0.683  0.00  0.00    -0.491 OA
ATOM     29  C   UNL     1       0.250   5.449  -1.034  0.00  0.00    +0.277 C 
ENDBRANCH  22  28
ENDBRANCH  17  18
ENDBRANCH   6  16
TORSDOF 5
