REMARK  Name = ZINC08882168
REMARK  7 active torsions:
REMARK  status: ('A' for Active; 'I' for Inactive)
REMARK    1  A    between atoms: C_1  and  C_2
REMARK    2  A    between atoms: C_4  and  C_7
REMARK    3  A    between atoms: C_10  and  C_12
REMARK    4  A    between atoms: C_12  and  N_13
REMARK    5  A    between atoms: C_14  and  C_16
REMARK    6  A    between atoms: C_16  and  N_17
REMARK    7  A    between atoms: C_25  and  C_27
REMARK                            x       y       z     vdW  Elec       q    Type
REMARK                         _______ _______ _______ _____ _____    ______ ____
ROOT
ATOM      1  N   UNL     1       4.141   0.787  -1.699  0.00  0.00    -0.309 N 
ATOM      2  C   UNL     1       2.909   1.266  -1.439  0.00  0.00    +0.231 C 
ATOM      3  O   UNL     1       2.166   1.556  -2.352  0.00  0.00    -0.274 OA
ATOM      4  H   UNL     1       4.736   0.555  -0.968  0.00  0.00    +0.149 HD
ENDROOT
BRANCH   1   5
ATOM      5  C   UNL     1       4.584   0.617  -3.085  0.00  0.00    +0.146 C 
BRANCH   5   9
ATOM      6  C   UNL     1       8.636  -0.448  -3.126  0.00  0.00    +0.038 A 
ATOM      7  C   UNL     1       7.753  -1.494  -3.124  0.00  0.00    +0.018 A 
ATOM      8  C   UNL     1       6.402  -1.221  -3.105  0.00  0.00    +0.013 A 
ATOM      9  C   UNL     1       5.989   0.071  -3.100  0.00  0.00    +0.007 A 
ATOM     10  S   UNL     1       7.538   0.959  -3.109  0.00  0.00    -0.090 S 
BRANCH   6  14
ATOM     11  C   UNL     1      12.999  -2.857  -3.179  0.00  0.00    +0.073 C 
ATOM     12  C   UNL     1      12.087  -1.658  -3.165  0.00  0.00    +0.076 A 
ATOM     13  N   UNL     1      10.776  -1.624  -3.152  0.00  0.00    -0.244 NA
ATOM     14  C   UNL     1      10.114  -0.477  -3.140  0.00  0.00    +0.085 A 
ATOM     15  C   UNL     1      10.844   0.683  -3.146  0.00  0.00    +0.075 A 
ATOM     16  S   UNL     1      12.506   0.027  -3.159  0.00  0.00    -0.080 S 
ENDBRANCH   6  14
ENDBRANCH   5   9
ENDBRANCH   1   5
BRANCH   2  17
ATOM     17  C   UNL     1       2.453   1.440  -0.013  0.00  0.00    +0.213 C 
BRANCH  17  18
ATOM     18  N   UNL     1       1.088   1.971   0.002  0.00  0.00    -0.215 N 
ATOM     19  C   UNL     1       0.785   3.285   0.012  0.00  0.00    +0.247 C 
ATOM     20  O   UNL     1       1.561   4.217   0.010  0.00  0.00    -0.273 OA
ATOM     21  C   UNL     1      -0.725   3.352   0.027  0.00  0.00    +0.115 C 
ATOM     22  C   UNL     1      -1.237   4.066  -1.219  0.00  0.00    +0.035 C 
ATOM     23  C   UNL     1      -2.767   4.099  -1.199  0.00  0.00    +0.003 C 
ATOM     24  C   UNL     1      -3.244   4.828   0.059  0.00  0.00    +0.000 C 
ATOM     25  C   UNL     1      -2.743   4.086   1.300  0.00  0.00    +0.006 C 
ATOM     26  C   UNL     1      -1.213   4.053   1.290  0.00  0.00    +0.018 C 
ATOM     27  C   UNL     1      -0.712   3.293   2.520  0.00  0.00    +0.010 C 
ATOM     28  N   UNL     1      -1.144   1.945   0.018  0.00  0.00    -0.285 N 
ATOM     29  C   UNL     1      -0.014   1.211   0.009  0.00  0.00    +0.310 C 
ATOM     30  O   UNL     1       0.002  -0.004   0.002  0.00  0.00    -0.252 OA
ATOM     31  H   UNL     1      -2.054   1.610   0.019  0.00  0.00    +0.151 HD
ENDBRANCH  17  18
ENDBRANCH   2  17
TORSDOF 5
