REMARK  Name = ZINC54838645
REMARK  5 active torsions:
REMARK  status: ('A' for Active; 'I' for Inactive)
REMARK    1  A    between atoms: C_1  and  C_2
REMARK    2  A    between atoms: C_5  and  C_7
REMARK    3  A    between atoms: N_12  and  C_15
REMARK    4  A    between atoms: C_18  and  N_23
REMARK    5  A    between atoms: C_20  and  C_21
REMARK                            x       y       z     vdW  Elec       q    Type
REMARK                         _______ _______ _______ _____ _____    ______ ____
ROOT
ATOM      1  C   UNL     1       1.076  -3.942  -0.025  0.00  0.00    +0.253 C 
ATOM      2  O   UNL     1       0.348  -4.911   0.091  0.00  0.00    -0.269 OA
ATOM      3  N   UNL     1       2.409  -4.109  -0.134  0.00  0.00    -0.294 N 
ATOM      4  C   UNL     1       3.311  -2.949  -0.127  0.00  0.00    +0.127 C 
ATOM      5  C   UNL     1       4.350  -3.143   0.984  0.00  0.00    +0.124 C 
ATOM      6  N   UNL     1       4.928  -4.489   0.856  0.00  0.00    -0.326 N 
ATOM      7  C   UNL     1       4.025  -5.649   0.849  0.00  0.00    +0.124 C 
ATOM      8  C   UNL     1       2.986  -5.455  -0.256  0.00  0.00    +0.127 C 
ENDROOT
BRANCH   1  13
ATOM      9  C   UNL     1      -0.150   1.440  -0.638  0.00  0.00    +0.051 C 
ATOM     10  C   UNL     1      -0.065  -0.036  -0.346  0.00  0.00    -0.013 A 
ATOM     11  C   UNL     1      -0.981  -0.816   0.280  0.00  0.00    +0.011 A 
ATOM     12  C   UNL     1      -0.715  -2.153   0.451  0.00  0.00    +0.021 A 
ATOM     13  C   UNL     1       0.502  -2.594  -0.048  0.00  0.00    +0.074 A 
ATOM     14  S   UNL     1       1.183  -1.093  -0.729  0.00  0.00    -0.089 S 
ENDBRANCH   1  13
BRANCH   6  15
ATOM     15  C   UNL     1       6.303  -4.661   0.744  0.00  0.00    +0.047 A 
ATOM     16  C   UNL     1       7.080  -4.829   1.882  0.00  0.00    +0.026 A 
ATOM     17  C   UNL     1       8.445  -5.000   1.768  0.00  0.00    +0.034 A 
ATOM     18  C   UNL     1       9.050  -5.006   0.522  0.00  0.00    +0.128 A 
ATOM     19  C   UNL     1       8.295  -4.841  -0.619  0.00  0.00    +0.053 A 
ATOM     20  C   UNL     1       6.911  -4.673  -0.521  0.00  0.00    +0.075 A 
BRANCH  18  21
ATOM     21  N   UNL     1      10.515  -5.189   0.415  0.00  0.00    +0.056 N 
ATOM     22  O   UNL     1      11.180  -5.334   1.414  0.00  0.00    -0.126 OA
ATOM     23  O   UNL     1      11.046  -5.195  -0.671  0.00  0.00    -0.126 OA
ENDBRANCH  18  21
BRANCH  20  24
ATOM     24  C   UNL     1       6.120  -4.507  -1.703  0.00  0.00    +0.101 C 
ATOM     25  N   UNL     1       5.492  -4.375  -2.640  0.00  0.00    -0.191 NA
ENDBRANCH  20  24
ENDBRANCH   6  15
TORSDOF 4
