REMARK  Name = ZINC16692678
REMARK  6 active torsions:
REMARK  status: ('A' for Active; 'I' for Inactive)
REMARK    1  A    between atoms: C_1  and  O_2
REMARK    2  A    between atoms: O_2  and  C_3
REMARK    3  A    between atoms: C_5  and  C_10
REMARK    4  A    between atoms: C_8  and  O_9
REMARK    5  A    between atoms: C_15  and  N_17
REMARK    6  A    between atoms: N_17  and  C_18
REMARK                            x       y       z     vdW  Elec       q    Type
REMARK                         _______ _______ _______ _____ _____    ______ ____
ROOT
ATOM      1  C   UNL     1      -4.840   0.213  -0.072  0.00  0.00    +0.028 C 
ATOM      2  C   UNL     1      -6.040  -0.419  -0.130  0.00  0.00    +0.079 C 
ATOM      3  C   UNL     1      -7.409   0.145  -0.175  0.00  0.00    +0.276 C 
ATOM      4  O   UNL     1      -7.610   1.349  -0.166  0.00  0.00    -0.267 OA
ATOM      5  N   UNL     1      -8.395  -0.723  -0.228  0.00  0.00    -0.152 NA
ATOM      6  C   UNL     1      -8.191  -2.031  -0.240  0.00  0.00    +0.175 C 
ATOM      7  S   UNL     1      -6.411  -2.168  -0.179  0.00  0.00    -0.050 S 
ENDROOT
BRANCH   1  10
ATOM      8  C   UNL     1      -1.213  -0.665   0.294  0.00  0.00    +0.162 A 
ATOM      9  C   UNL     1      -2.363   0.067   0.076  0.00  0.00    +0.057 A 
ATOM     10  C   UNL     1      -3.613  -0.559   0.158  0.00  0.00    -0.020 A 
ATOM     11  C   UNL     1      -3.689  -1.924   0.461  0.00  0.00    +0.012 A 
ATOM     12  C   UNL     1      -2.536  -2.646   0.676  0.00  0.00    +0.050 A 
ATOM     13  C   UNL     1      -1.297  -2.025   0.590  0.00  0.00    +0.158 A 
BRANCH   8  15
ATOM     14  C   UNL     1       0.014   1.336  -0.090  0.00  0.00    +0.277 C 
ATOM     15  O   UNL     1       0.003  -0.060   0.216  0.00  0.00    -0.491 OA
ENDBRANCH   8  15
BRANCH  13  16
ATOM     16  O   UNL     1      -0.163  -2.744   0.798  0.00  0.00    -0.503 OA
ATOM     17  H   UNL     1       0.127  -2.763   1.720  0.00  0.00    +0.292 HD
ENDBRANCH  13  16
ENDBRANCH   1  10
BRANCH   6  18
ATOM     18  N   UNL     1      -9.121  -3.037  -0.292  0.00  0.00    -0.192 NA
BRANCH  18  19
ATOM     19  C   UNL     1     -10.468  -2.733  -0.511  0.00  0.00    +0.056 A 
ATOM     20  C   UNL     1     -10.819  -1.557  -1.162  0.00  0.00    +0.026 A 
ATOM     21  C   UNL     1     -12.151  -1.260  -1.377  0.00  0.00    +0.022 A 
ATOM     22  C   UNL     1     -13.134  -2.132  -0.946  0.00  0.00    +0.041 A 
ATOM     23  C   UNL     1     -12.787  -3.304  -0.298  0.00  0.00    +0.022 A 
ATOM     24  C   UNL     1     -11.457  -3.609  -0.085  0.00  0.00    +0.026 A 
ATOM     25 CL   UNL     1     -14.807  -1.755  -1.218  0.00  0.00    -0.084 Cl
ENDBRANCH  18  19
ENDBRANCH   6  18
TORSDOF 5
