REMARK  Name = ZINC41710819
REMARK  5 active torsions:
REMARK  status: ('A' for Active; 'I' for Inactive)
REMARK    1  A    between atoms: C_1  and  C_2
REMARK    2  A    between atoms: C_9  and  C_21
REMARK    3  A    between atoms: C_14  and  C_19
REMARK    4  A    between atoms: C_14  and  C_20
REMARK    5  A    between atoms: C_16  and  O_18
REMARK                            x       y       z     vdW  Elec       q    Type
REMARK                         _______ _______ _______ _____ _____    ______ ____
ROOT
ATOM      1  C   UNL     1       1.054   1.427  -0.142  0.00  0.00    +0.045 C 
ATOM      2  C   UNL     1       0.864  -0.067  -0.106  0.00  0.00    -0.032 A 
ATOM      3  C   UNL     1       1.535  -0.881  -1.008  0.00  0.00    +0.008 A 
ATOM      4  C   UNL     1       1.332  -2.249  -0.941  0.00  0.00    +0.047 A 
ATOM      5  C   UNL     1       0.468  -2.757   0.021  0.00  0.00    +0.138 A 
ATOM      6  N   UNL     1      -0.154  -1.948   0.864  0.00  0.00    -0.237 NA
ATOM      7  C   UNL     1       0.024  -0.642   0.828  0.00  0.00    +0.116 A 
ATOM      8  N   UNL     1       0.253  -4.136   0.100  0.00  0.00    -0.302 N 
ATOM      9  C   UNL     1      -0.027  -4.962  -0.955  0.00  0.00    +0.023 A 
ATOM     10  C   UNL     1      -0.167  -6.220  -0.482  0.00  0.00    +0.029 A 
ATOM     11  C   UNL     1       0.034  -6.169   0.906  0.00  0.00    +0.002 A 
ATOM     12  C   UNL     1       0.293  -4.883   1.237  0.00  0.00    +0.032 A 
ATOM     13  C   UNL     1       0.569  -4.412   2.644  0.00  0.00    +0.060 C 
ATOM     14  C   UNL     1       0.104  -5.501   3.619  0.00  0.00    -0.027 C 
ATOM     15  C   UNL     1       0.679  -6.853   3.187  0.00  0.00    +0.043 C 
ATOM     16  C   UNL     1      -0.012  -7.308   1.893  0.00  0.00    +0.147 C 
ATOM     17  C   UNL     1      -1.424  -5.572   3.613  0.00  0.00    +0.011 C 
ATOM     18  C   UNL     1       0.594  -5.166   5.029  0.00  0.00    +0.011 C 
ATOM     19  C   UNL     1      -0.158  -4.542  -2.396  0.00  0.00    +0.064 C 
ENDROOT
BRANCH  16  20
ATOM     20  O   UNL     1       0.684  -8.436   1.359  0.00  0.00    -0.387 OA
ATOM     21  H   UNL     1       0.317  -8.766   0.527  0.00  0.00    +0.210 HD
ENDBRANCH  16  20
TORSDOF 1
