REMARK  Name = ZINC11113563
REMARK  6 active torsions:
REMARK  status: ('A' for Active; 'I' for Inactive)
REMARK    1  A    between atoms: C_4  and  C_8
REMARK    2  A    between atoms: C_8  and  O_10
REMARK    3  A    between atoms: O_10  and  C_11
REMARK    4  A    between atoms: C_11  and  C_12
REMARK    5  A    between atoms: N_14  and  C_15
REMARK    6  A    between atoms: C_18  and  N_22
REMARK                            x       y       z     vdW  Elec       q    Type
REMARK                         _______ _______ _______ _____ _____    ______ ____
ROOT
ATOM      1  C   UNL     1      -2.394   1.385  -0.081  0.00  0.00    +0.255 C 
ATOM      2  O   UNL     1      -2.384   0.173  -0.088  0.00  0.00    -0.272 OA
ATOM      3  N   UNL     1      -1.237   2.069   0.019  0.00  0.00    -0.282 N 
ATOM      4  H   UNL     1      -1.251   3.035   0.105  0.00  0.00    +0.155 HD
ENDROOT
BRANCH   3   5
ATOM      5  C   UNL     1      -0.016   1.385  -0.001  0.00  0.00    +0.048 A 
ATOM      6  C   UNL     1       0.076   0.144  -0.617  0.00  0.00    +0.026 A 
ATOM      7  C   UNL     1       1.283  -0.526  -0.640  0.00  0.00    +0.034 A 
ATOM      8  C   UNL     1       2.401   0.038  -0.052  0.00  0.00    +0.127 A 
ATOM      9  C   UNL     1       2.313   1.274   0.561  0.00  0.00    +0.049 A 
ATOM     10  C   UNL     1       1.108   1.950   0.589  0.00  0.00    +0.041 A 
ATOM     11 BR   UNL     1       0.989   3.640   1.428  0.00  0.00    -0.048 Br
BRANCH   8  12
ATOM     12  N   UNL     1       3.693  -0.682  -0.080  0.00  0.00    +0.056 N 
ATOM     13  O   UNL     1       3.772  -1.771  -0.620  0.00  0.00    -0.126 OA
ATOM     14  O   UNL     1       4.678  -0.187   0.437  0.00  0.00    -0.126 OA
ENDBRANCH   8  12
ENDBRANCH   3   5
BRANCH   1  15
ATOM     15  C   UNL     1      -3.702   2.128  -0.184  0.00  0.00    +0.328 C 
BRANCH  15  16
ATOM     16  O   UNL     1      -4.793   1.175  -0.280  0.00  0.00    -0.452 OA
BRANCH  16  17
ATOM     17  C   UNL     1      -6.039   1.679  -0.380  0.00  0.00    +0.342 C 
ATOM     18  O   UNL     1      -6.208   2.882  -0.387  0.00  0.00    -0.245 OA
BRANCH  17  22
ATOM     19  C   UNL     1      -9.372  -0.936  -0.672  0.00  0.00    +0.003 A 
ATOM     20  C   UNL     1      -8.733  -0.505  -1.821  0.00  0.00    +0.021 A 
ATOM     21  C   UNL     1      -7.649   0.345  -1.734  0.00  0.00    +0.056 A 
ATOM     22  C   UNL     1      -7.197   0.770  -0.482  0.00  0.00    +0.095 A 
ATOM     23  C   UNL     1      -7.844   0.326   0.675  0.00  0.00    +0.056 A 
ATOM     24  C   UNL     1      -8.931  -0.520   0.571  0.00  0.00    +0.021 A 
ATOM     25 CL   UNL     1      -7.288   0.841   2.236  0.00  0.00    -0.083 Cl
ATOM     26 CL   UNL     1      -6.848   0.885  -3.177  0.00  0.00    -0.083 Cl
ENDBRANCH  17  22
ENDBRANCH  16  17
ENDBRANCH  15  16
ENDBRANCH   1  15
TORSDOF 6
