REMARK  Name = ZINC04273747
REMARK  5 active torsions:
REMARK  status: ('A' for Active; 'I' for Inactive)
REMARK    1  A    between atoms: C_1  and  C_2
REMARK    2  A    between atoms: C_2  and  C_4
REMARK    3  A    between atoms: C_2  and  S_10
REMARK    4  A    between atoms: S_10  and  C_11
REMARK    5  A    between atoms: N_17  and  C_20
REMARK                            x       y       z     vdW  Elec       q    Type
REMARK                         _______ _______ _______ _____ _____    ______ ____
ROOT
ATOM      1  C   UNL     1       0.002  -0.004   0.002  0.00  0.00    +0.130 A 
ATOM      2  C   UNL     1      -1.200  -0.742   0.009  0.00  0.00    +0.164 A 
ATOM      3  C   UNL     1      -1.112  -2.145   0.001  0.00  0.00    +0.188 A 
ATOM      4  N   UNL     1       0.088  -2.719  -0.014  0.00  0.00    -0.214 NA
ATOM      5  C   UNL     1       1.182  -1.989  -0.020  0.00  0.00    +0.224 A 
ATOM      6  N   UNL     1       1.153  -0.668  -0.018  0.00  0.00    -0.227 NA
ATOM      7  N   UNL     1      -2.402  -2.605   0.011  0.00  0.00    -0.194 N 
ATOM      8  N   UNL     1      -3.231  -1.472   0.025  0.00  0.00    -0.058 NA
ATOM      9  N   UNL     1      -2.502  -0.411   0.024  0.00  0.00    -0.125 NA
ENDROOT
BRANCH   7  10
ATOM     10  C   UNL     1      -2.814  -3.944   0.007  0.00  0.00    +0.069 A 
ATOM     11  C   UNL     1      -2.088  -4.894  -0.700  0.00  0.00    +0.028 A 
ATOM     12  C   UNL     1      -2.494  -6.214  -0.698  0.00  0.00    +0.002 A 
ATOM     13  C   UNL     1      -3.628  -6.589  -0.001  0.00  0.00    +0.000 A 
ATOM     14  C   UNL     1      -4.356  -5.645   0.700  0.00  0.00    +0.002 A 
ATOM     15  C   UNL     1      -3.952  -4.324   0.706  0.00  0.00    +0.028 A 
ENDBRANCH   7  10
BRANCH   1  16
ATOM     16  S   UNL     1      -0.022   1.758   0.012  0.00  0.00    -0.096 S 
BRANCH  16  18
ATOM     17  C   UNL     1       2.384   1.586   1.295  0.00  0.00    +0.024 C 
ATOM     18  C   UNL     1       1.756   2.096  -0.004  0.00  0.00    +0.080 C 
BRANCH  18  19
ATOM     19  C   UNL     1       1.984   3.581  -0.121  0.00  0.00    -0.034 A 
ATOM     20  C   UNL     1       1.485   4.436   0.844  0.00  0.00    +0.005 A 
ATOM     21  C   UNL     1       1.697   5.798   0.738  0.00  0.00    +0.000 A 
ATOM     22  C   UNL     1       2.401   6.306  -0.339  0.00  0.00    +0.000 A 
ATOM     23  C   UNL     1       2.896   5.452  -1.306  0.00  0.00    +0.000 A 
ATOM     24  C   UNL     1       2.687   4.089  -1.198  0.00  0.00    +0.005 A 
ENDBRANCH  18  19
ENDBRANCH  16  18
ENDBRANCH   1  16
TORSDOF 4
