REMARK  Name = ZINC13732606
REMARK  6 active torsions:
REMARK  status: ('A' for Active; 'I' for Inactive)
REMARK    1  A    between atoms: C_1  and  N_2
REMARK    2  A    between atoms: N_2  and  C_3
REMARK    3  A    between atoms: N_2  and  C_4
REMARK    4  A    between atoms: C_7  and  C_10
REMARK    5  A    between atoms: C_13  and  C_18
REMARK    6  A    between atoms: C_18  and  C_19
REMARK                            x       y       z     vdW  Elec       q    Type
REMARK                         _______ _______ _______ _____ _____    ______ ____
ROOT
ATOM      1  C   UNL     1       3.884  -0.819  -0.046  0.00  0.00    +0.132 A 
ATOM      2  N   UNL     1       3.432   0.409  -0.023  0.00  0.00    -0.156 NA
ATOM      3  N   UNL     1       2.068   0.671  -0.011  0.00  0.00    -0.190 N 
ATOM      4  C   UNL     1       1.203   1.746   0.011  0.00  0.00    +0.160 A 
ATOM      5  N   UNL     1      -0.016   1.283   0.009  0.00  0.00    -0.131 NA
ATOM      6  N   UNL     1       0.002  -0.005  -0.012  0.00  0.00    -0.120 NA
ATOM      7  C   UNL     1       1.233  -0.418  -0.025  0.00  0.00    +0.218 A 
ATOM      8  S   UNL     1       2.376  -1.776  -0.054  0.00  0.00    -0.026 S 
ENDROOT
BRANCH   1  12
ATOM      9  C   UNL     1       7.910  -2.180  -0.092  0.00  0.00    +0.029 A 
ATOM     10  C   UNL     1       6.867  -3.100  -0.102  0.00  0.00    +0.024 A 
ATOM     11  C   UNL     1       5.561  -2.661  -0.087  0.00  0.00    +0.012 A 
ATOM     12  C   UNL     1       5.285  -1.293  -0.062  0.00  0.00    +0.009 A 
ATOM     13  C   UNL     1       6.335  -0.373  -0.057  0.00  0.00    +0.012 A 
ATOM     14  C   UNL     1       7.639  -0.817  -0.067  0.00  0.00    +0.024 A 
BRANCH   9  16
ATOM     15  C   UNL     1       9.521  -4.060  -0.007  0.00  0.00    +0.129 C 
ATOM     16  N   UNL     1       9.231  -2.627  -0.107  0.00  0.00    -0.336 N 
ATOM     17  C   UNL     1      10.329  -1.664  -0.223  0.00  0.00    +0.129 C 
ENDBRANCH   9  16
ENDBRANCH   1  12
BRANCH   4  18
ATOM     18  C   UNL     1       1.597   3.200   0.034  0.00  0.00    +0.113 C 
BRANCH  18  19
ATOM     19  C   UNL     1       1.736   3.661   1.462  0.00  0.00    -0.040 A 
ATOM     20  C   UNL     1       0.646   4.191   2.127  0.00  0.00    +0.004 A 
ATOM     21  C   UNL     1       0.772   4.609   3.438  0.00  0.00    +0.000 A 
ATOM     22  C   UNL     1       1.991   4.507   4.082  0.00  0.00    +0.000 A 
ATOM     23  C   UNL     1       3.083   3.982   3.416  0.00  0.00    +0.000 A 
ATOM     24  C   UNL     1       2.955   3.559   2.106  0.00  0.00    +0.004 A 
ENDBRANCH  18  19
ENDBRANCH   4  18
TORSDOF 4
