REMARK  Name = ZINC44214105
REMARK  3 active torsions:
REMARK  status: ('A' for Active; 'I' for Inactive)
REMARK    1  A    between atoms: C_10  and  O_11
REMARK    2  A    between atoms: O_11  and  C_12
REMARK    3  A    between atoms: C_18  and  O_20
REMARK                            x       y       z     vdW  Elec       q    Type
REMARK                         _______ _______ _______ _____ _____    ______ ____
ROOT
ATOM      1  C   UNL     1       0.008   1.308  -0.644  0.00  0.00    +0.001 A 
ATOM      2  C   UNL     1       1.193   2.041  -0.658  0.00  0.00    +0.001 A 
ATOM      3  C   UNL     1       2.395   1.433  -0.461  0.00  0.00    +0.012 A 
ATOM      4  C   UNL     1       2.446   0.047  -0.241  0.00  0.00    +0.024 A 
ATOM      5  C   UNL     1       1.241  -0.699  -0.227  0.00  0.00    -0.014 A 
ATOM      6  C   UNL     1       0.018  -0.037  -0.433  0.00  0.00    +0.008 A 
ATOM      7  C   UNL     1       1.291  -2.086  -0.006  0.00  0.00    +0.009 A 
ATOM      8  C   UNL     1       2.493  -2.696   0.192  0.00  0.00    +0.004 A 
ATOM      9  C   UNL     1       3.679  -1.967   0.178  0.00  0.00    +0.046 A 
ATOM     10  C   UNL     1       3.671  -0.617  -0.033  0.00  0.00    +0.129 A 
ENDROOT
BRANCH  10  11
ATOM     11  O   UNL     1       4.837   0.080  -0.043  0.00  0.00    -0.483 OA
BRANCH  11  12
ATOM     12  C   UNL     1       6.046  -0.676   0.052  0.00  0.00    +0.227 C 
ATOM     13  C   UNL     1       6.362  -0.950   1.525  0.00  0.00    +0.207 C 
ATOM     14  O   UNL     1       7.601  -1.656   1.621  0.00  0.00    -0.376 OA
ATOM     15  C   UNL     1       8.722  -0.941   1.097  0.00  0.00    +0.162 C 
ATOM     16  C   UNL     1       8.500  -0.667  -0.392  0.00  0.00    +0.063 C 
ATOM     17  C   UNL     1       7.197   0.118  -0.572  0.00  0.00    +0.159 C 
BRANCH  17  18
ATOM     18  O   UNL     1       6.943   0.313  -1.964  0.00  0.00    -0.388 OA
ATOM     19  H   UNL     1       7.634   0.810  -2.424  0.00  0.00    +0.210 HD
ENDBRANCH  17  18
ENDBRANCH  11  12
ENDBRANCH  10  11
TORSDOF 3
