REMARK  Name = ZINC63623193
REMARK  10 active torsions:
REMARK  status: ('A' for Active; 'I' for Inactive)
REMARK    1  A    between atoms: C_1  and  C_2
REMARK    2  A    between atoms: C_2  and  C_3
REMARK    3  A    between atoms: C_2  and  O_4
REMARK    4  A    between atoms: O_4  and  C_5
REMARK    5  A    between atoms: C_8  and  C_11
REMARK    6  A    between atoms: C_12  and  C_13
REMARK    7  A    between atoms: C_12  and  C_15
REMARK    8  A    between atoms: N_17  and  C_18
REMARK    9  A    between atoms: C_18  and  C_19
REMARK   10  A    between atoms: C_19  and  C_20
REMARK                            x       y       z     vdW  Elec       q    Type
REMARK                         _______ _______ _______ _____ _____    ______ ____
ROOT
ATOM      1  C   UNL     1      -2.159  -1.408   8.395  0.00  0.00    +0.254 C 
ATOM      2  O   UNL     1      -3.362  -1.230   8.418  0.00  0.00    -0.269 OA
ATOM      3  N   UNL     1      -1.492  -1.656   9.540  0.00  0.00    -0.310 N 
ATOM      4  H   UNL     1      -0.533  -1.798   9.521  0.00  0.00    +0.149 HD
ENDROOT
BRANCH   1   6
ATOM      5  C   UNL     1      -2.113  -1.101   5.947  0.00  0.00    +0.032 C 
ATOM      6  C   UNL     1      -1.432  -1.354   7.117  0.00  0.00    +0.114 C 
BRANCH   5  10
ATOM      7  C   UNL     1      -0.116  -1.391   2.233  0.00  0.00    +0.121 A 
ATOM      8  C   UNL     1      -1.130  -0.454   2.402  0.00  0.00    +0.046 A 
ATOM      9  C   UNL     1      -1.779  -0.355   3.600  0.00  0.00    +0.011 A 
ATOM     10  C   UNL     1      -1.422  -1.201   4.660  0.00  0.00    -0.023 A 
ATOM     11  C   UNL     1      -0.399  -2.144   4.482  0.00  0.00    +0.011 A 
ATOM     12  C   UNL     1       0.239  -2.237   3.278  0.00  0.00    +0.046 A 
BRANCH   7  13
ATOM     13  O   UNL     1       0.525  -1.484   1.040  0.00  0.00    -0.489 OA
BRANCH  13  15
ATOM     14  C   UNL     1       0.736   0.785   0.234  0.00  0.00    +0.051 C 
ATOM     15  C   UNL     1       0.105  -0.591   0.007  0.00  0.00    +0.167 C 
ATOM     16  C   UNL     1       0.550  -1.138  -1.351  0.00  0.00    +0.051 C 
ENDBRANCH  13  15
ENDBRANCH   7  13
ENDBRANCH   5  10
BRANCH   6  17
ATOM     17  C   UNL     1      -0.015  -1.564   7.090  0.00  0.00    +0.104 C 
ATOM     18  N   UNL     1       1.108  -1.730   7.068  0.00  0.00    -0.191 NA
ENDBRANCH   6  17
ENDBRANCH   1   6
BRANCH   3  19
ATOM     19  C   UNL     1      -2.216  -1.710  10.812  0.00  0.00    +0.109 C 
BRANCH  19  20
ATOM     20  C   UNL     1      -1.232  -2.004  11.946  0.00  0.00    +0.052 C 
BRANCH  20  21
ATOM     21  C   UNL     1      -1.977  -2.060  13.255  0.00  0.00    -0.040 C 
ATOM     22  C   UNL     1      -2.453  -3.165  13.874  0.00  0.00    -0.001 A 
ATOM     23  C   UNL     1      -2.422  -4.591  13.526  0.00  0.00    +0.010 A 
ATOM     24  C   UNL     1      -2.997  -5.483  14.363  0.00  0.00    +0.001 A 
ATOM     25  C   UNL     1      -3.622  -5.082  15.552  0.00  0.00    +0.002 A 
ATOM     26  C   UNL     1      -3.691  -3.791  15.939  0.00  0.00    +0.026 A 
ATOM     27  C   UNL     1      -3.118  -2.767  15.135  0.00  0.00    +0.043 A 
ATOM     28  N   UNL     1      -3.056  -1.467  15.290  0.00  0.00    -0.380 N 
ATOM     29  C   UNL     1      -2.338  -0.893  14.147  0.00  0.00    +0.144 C 
ATOM     30  H   UNL     1      -3.420  -0.968  16.038  0.00  0.00    +0.160 HD
ENDBRANCH  20  21
ENDBRANCH  19  20
ENDBRANCH   3  19
TORSDOF 8
