REMARK  Name = ZINC13645849
REMARK  6 active torsions:
REMARK  status: ('A' for Active; 'I' for Inactive)
REMARK    1  A    between atoms: C_1  and  C_2
REMARK    2  A    between atoms: C_6  and  C_7
REMARK    3  A    between atoms: C_17  and  O_25
REMARK    4  A    between atoms: C_20  and  O_23
REMARK    5  A    between atoms: O_23  and  C_24
REMARK    6  A    between atoms: O_25  and  C_26
REMARK                            x       y       z     vdW  Elec       q    Type
REMARK                         _______ _______ _______ _____ _____    ______ ____
ROOT
ATOM      1  C   UNL     1      -0.643   1.625   1.276  0.00  0.00    +0.112 C 
ATOM      2  C   UNL     1      -0.013   1.086   0.008  0.00  0.00    +0.029 C 
ATOM      3  C   UNL     1      -0.471   1.651  -1.342  0.00  0.00    +0.033 C 
ATOM      4  C   UNL     1       0.794   1.482  -2.188  0.00  0.00    -0.030 C 
ATOM      5  C   UNL     1       1.867   1.486  -1.404  0.00  0.00    -0.022 C 
ATOM      6  C   UNL     1       1.426   1.690  -0.003  0.00  0.00    +0.052 C 
ATOM      7  C   UNL     1       2.147   1.093   1.142  0.00  0.00    +0.026 A 
ATOM      8  C   UNL     1       3.507   0.837   1.092  0.00  0.00    +0.126 A 
ATOM      9  C   UNL     1       4.161   0.288   2.184  0.00  0.00    +0.049 A 
ATOM     10  C   UNL     1       3.446  -0.003   3.332  0.00  0.00    +0.051 A 
ATOM     11  C   UNL     1       2.089   0.246   3.388  0.00  0.00    +0.141 A 
ATOM     12  C   UNL     1       1.413   0.793   2.290  0.00  0.00    +0.077 A 
ATOM     13  N   UNL     1       0.035   0.981   2.408  0.00  0.00    -0.333 N 
ATOM     14  H   UNL     1      -0.427   0.121   2.664  0.00  0.00    +0.147 HD
ENDROOT
BRANCH   1  20
ATOM     15  C   UNL     1      -2.971   3.564   0.772  0.00  0.00    +0.044 C 
ATOM     16  C   UNL     1      -3.175   2.105   1.087  0.00  0.00    -0.038 A 
ATOM     17  C   UNL     1      -4.450   1.574   1.158  0.00  0.00    +0.011 A 
ATOM     18  C   UNL     1      -4.599   0.259   1.450  0.00  0.00    +0.046 A 
ATOM     19  S   UNL     1      -2.905  -0.274   1.627  0.00  0.00    -0.099 S 
ATOM     20  C   UNL     1      -2.112   1.292   1.301  0.00  0.00    +0.013 A 
ENDBRANCH   1  20
BRANCH  11  21
ATOM     21  O   UNL     1       1.400  -0.044   4.525  0.00  0.00    -0.493 OA
ATOM     22  C   UNL     1       2.144  -0.600   5.611  0.00  0.00    +0.277 C 
ENDBRANCH  11  21
BRANCH   8  23
ATOM     23  O   UNL     1       4.207   1.126  -0.038  0.00  0.00    -0.495 OA
ATOM     24  C   UNL     1       5.606   0.838  -0.026  0.00  0.00    +0.277 C 
ENDBRANCH   8  23
TORSDOF 3
