REMARK  Name = ZINC41091825
REMARK  7 active torsions:
REMARK  status: ('A' for Active; 'I' for Inactive)
REMARK    1  A    between atoms: C_1  and  C_2
REMARK    2  A    between atoms: C_2  and  O_3
REMARK    3  A    between atoms: O_3  and  C_4
REMARK    4  A    between atoms: C_9  and  S_10
REMARK    5  A    between atoms: S_10  and  N_13
REMARK    6  A    between atoms: N_13  and  C_14
REMARK    7  A    between atoms: C_19  and  C_20
REMARK                            x       y       z     vdW  Elec       q    Type
REMARK                         _______ _______ _______ _____ _____    ______ ____
ROOT
ATOM      1  S   UNL     1      -4.055  -1.365   0.161  0.00  0.00    +0.076 S 
ATOM      2  O   UNL     1      -3.992  -0.410  -0.889  0.00  0.00    -0.150 OA
ATOM      3  O   UNL     1      -5.004  -2.422   0.173  0.00  0.00    -0.150 OA
ENDROOT
BRANCH   1   9
ATOM      4  C   UNL     1      -1.325  -1.325   0.315  0.00  0.00    +0.148 A 
ATOM      5  C   UNL     1      -0.074  -1.919   0.395  0.00  0.00    +0.067 A 
ATOM      6  C   UNL     1       0.036  -3.297   0.408  0.00  0.00    +0.045 A 
ATOM      7  C   UNL     1      -1.101  -4.083   0.342  0.00  0.00    +0.022 A 
ATOM      8  C   UNL     1      -2.348  -3.493   0.262  0.00  0.00    +0.034 A 
ATOM      9  C   UNL     1      -2.463  -2.116   0.255  0.00  0.00    +0.150 A 
ATOM     10 CL   UNL     1       1.601  -4.042   0.507  0.00  0.00    -0.083 Cl
BRANCH   4  11
ATOM     11  O   UNL     1      -1.436   0.029   0.301  0.00  0.00    -0.490 OA
BRANCH  11  13
ATOM     12  C   UNL     1      -0.544   2.273   0.198  0.00  0.00    +0.048 C 
ATOM     13  C   UNL     1      -0.220   0.779   0.275  0.00  0.00    +0.226 C 
ENDBRANCH  11  13
ENDBRANCH   4  11
ENDBRANCH   1   9
BRANCH   1  14
ATOM     14  N   UNL     1      -4.277  -0.513   1.563  0.00  0.00    -0.215 N 
ATOM     15  H   UNL     1      -4.314   0.456   1.541  0.00  0.00    +0.174 HD
BRANCH  14  16
ATOM     16  C   UNL     1      -4.412  -1.185   2.769  0.00  0.00    +0.062 A 
ATOM     17  C   UNL     1      -3.690  -2.349   3.005  0.00  0.00    +0.025 A 
ATOM     18  C   UNL     1      -3.826  -3.016   4.205  0.00  0.00    +0.002 A 
ATOM     19  C   UNL     1      -4.679  -2.532   5.185  0.00  0.00    +0.001 A 
ATOM     20  C   UNL     1      -5.403  -1.381   4.972  0.00  0.00    +0.017 A 
ATOM     21  C   UNL     1      -5.273  -0.689   3.762  0.00  0.00    +0.085 A 
BRANCH  21  22
ATOM     22  C   UNL     1      -6.038   0.545   3.530  0.00  0.00    +0.388 C 
ATOM     23  O   UNL     1      -6.787   0.973   4.397  0.00  0.00    -0.241 OA
ATOM     24  O   UNL     1      -5.926   1.144   2.468  0.00  0.00    -0.241 OA
ENDBRANCH  21  22
ENDBRANCH  14  16
ENDBRANCH   1  14
TORSDOF 6
