REMARK  Name = ZINC59337013
REMARK  4 active torsions:
REMARK  status: ('A' for Active; 'I' for Inactive)
REMARK    1  A    between atoms: C_1  and  C_2
REMARK    2  A    between atoms: C_2  and  C_19
REMARK    3  A    between atoms: C_7  and  C_8
REMARK    4  A    between atoms: C_13  and  O_14
REMARK                            x       y       z     vdW  Elec       q    Type
REMARK                         _______ _______ _______ _____ _____    ______ ____
ROOT
ATOM      1  C   UNL     1      -0.291   2.058   0.286  0.00  0.00    +0.110 C 
ATOM      2  C   UNL     1      -0.014   0.557   0.186  0.00  0.00    +0.283 C 
ATOM      3  O   UNL     1      -1.255  -0.149   0.075  0.00  0.00    -0.414 OA
ATOM      4  C   UNL     1      -2.071  -0.072   1.164  0.00  0.00    +0.349 C 
ATOM      5  O   UNL     1      -3.262   0.156   1.073  0.00  0.00    -0.245 OA
ATOM      6  C   UNL     1      -1.395  -0.290   2.472  0.00  0.00    +0.144 C 
ATOM      7  C   UNL     1      -2.010  -0.910   3.541  0.00  0.00    +0.033 C 
ATOM      8  C   UNL     1       0.003   0.220   2.525  0.00  0.00    +0.349 C 
ATOM      9  O   UNL     1       0.491   0.686   3.536  0.00  0.00    -0.245 OA
ATOM     10  O   UNL     1       0.693   0.125   1.354  0.00  0.00    -0.414 OA
ENDROOT
BRANCH   7  11
ATOM     11  C   UNL     1      -1.238  -1.237   4.739  0.00  0.00    +0.018 A 
ATOM     12  C   UNL     1       0.109  -1.614   4.631  0.00  0.00    +0.026 A 
ATOM     13  C   UNL     1       0.829  -1.920   5.764  0.00  0.00    +0.019 A 
ATOM     14  C   UNL     1       0.228  -1.858   7.014  0.00  0.00    +0.019 A 
ATOM     15  C   UNL     1      -1.096  -1.489   7.137  0.00  0.00    +0.047 A 
ATOM     16  C   UNL     1      -1.838  -1.170   6.010  0.00  0.00    +0.124 A 
ATOM     17 BR   UNL     1       2.644  -2.429   5.617  0.00  0.00    -0.050 Br
BRANCH  16  18
ATOM     18  O   UNL     1      -3.138  -0.802   6.131  0.00  0.00    -0.506 OA
ATOM     19  H   UNL     1      -3.761  -1.541   6.094  0.00  0.00    +0.292 HD
ENDBRANCH  16  18
ENDBRANCH   7  11
BRANCH   2  20
ATOM     20  C   UNL     1       0.825   0.283  -1.036  0.00  0.00    +0.036 A 
ATOM     21  C   UNL     1       0.215   0.023  -2.249  0.00  0.00    +0.011 A 
ATOM     22  C   UNL     1       0.985  -0.228  -3.370  0.00  0.00    +0.001 A 
ATOM     23  C   UNL     1       2.364  -0.218  -3.277  0.00  0.00    +0.000 A 
ATOM     24  C   UNL     1       2.974   0.043  -2.064  0.00  0.00    +0.001 A 
ATOM     25  C   UNL     1       2.204   0.298  -0.945  0.00  0.00    +0.011 A 
ENDBRANCH   2  20
TORSDOF 3
