REMARK  Name = ZINC63529078
REMARK  5 active torsions:
REMARK  status: ('A' for Active; 'I' for Inactive)
REMARK    1  A    between atoms: C_1  and  C_2
REMARK    2  A    between atoms: C_6  and  N_9
REMARK    3  A    between atoms: C_7  and  C_8
REMARK    4  A    between atoms: C_10  and  C_12
REMARK    5  A    between atoms: C_14  and  C_27
REMARK                            x       y       z     vdW  Elec       q    Type
REMARK                         _______ _______ _______ _____ _____    ______ ____
ROOT
ATOM      1  C   UNL     1      -0.129  -4.898   3.686  0.00  0.00    +0.265 C 
ATOM      2  C   UNL     1       1.192  -4.796   4.487  0.00  0.00    +0.067 C 
ATOM      3  C   UNL     1       1.912  -6.048   4.037  0.00  0.00    +0.005 C 
ATOM      4  C   UNL     1       1.034  -6.858   3.464  0.00  0.00    +0.101 C 
ATOM      5  O   UNL     1      -0.218  -6.314   3.453  0.00  0.00    -0.483 OA
ATOM      6  C   UNL     1       1.313  -8.238   2.902  0.00  0.00    +0.078 C 
ATOM      7  C   UNL     1       2.821  -8.503   2.771  0.00  0.00    +0.042 C 
ATOM      8  C   UNL     1       3.481  -7.854   3.952  0.00  0.00    -0.019 C 
ATOM      9  C   UNL     1       4.187  -8.285   4.967  0.00  0.00    +0.136 C 
ATOM     10  N   UNL     1       4.375  -7.287   5.869  0.00  0.00    -0.162 NA
ATOM     11  N   UNL     1       3.916  -6.188   5.521  0.00  0.00    -0.175 NA
ATOM     12  C   UNL     1       3.377  -6.343   4.174  0.00  0.00    +0.185 C 
ATOM     13  C   UNL     1       0.925  -4.826   5.993  0.00  0.00    +0.016 C 
ENDROOT
BRANCH   1  15
ATOM     14  N   UNL     1       0.052  -2.797   2.393  0.00  0.00    -0.282 N 
ATOM     15  C   UNL     1      -0.031  -4.143   2.385  0.00  0.00    +0.259 C 
ATOM     16  O   UNL     1      -0.028  -4.745   1.333  0.00  0.00    -0.271 OA
ATOM     17  H   UNL     1       0.130  -2.321   3.234  0.00  0.00    +0.155 HD
BRANCH  14  23
ATOM     18  C   UNL     1       1.206   1.236  -0.172  0.00  0.00    +0.044 C 
ATOM     19  C   UNL     1       0.578  -0.131  -0.084  0.00  0.00    -0.046 A 
ATOM     20  C   UNL     1      -0.027  -0.686  -1.198  0.00  0.00    +0.004 A 
ATOM     21  C   UNL     1      -0.605  -1.940  -1.122  0.00  0.00    +0.002 A 
ATOM     22  C   UNL     1      -0.580  -2.642   0.067  0.00  0.00    +0.023 A 
ATOM     23  C   UNL     1       0.026  -2.088   1.187  0.00  0.00    +0.037 A 
ATOM     24  C   UNL     1       0.610  -0.831   1.106  0.00  0.00    -0.026 A 
ATOM     25  C   UNL     1       1.274  -0.228   2.317  0.00  0.00    +0.046 C 
ENDBRANCH  14  23
ENDBRANCH   1  15
TORSDOF 2
