REMARK  Name = ZINC67080273
REMARK  9 active torsions:
REMARK  status: ('A' for Active; 'I' for Inactive)
REMARK    1  A    between atoms: C_1  and  C_2
REMARK    2  A    between atoms: C_2  and  C_4
REMARK    3  A    between atoms: C_2  and  C_25
REMARK    4  A    between atoms: C_4  and  N_5
REMARK    5  A    between atoms: N_5  and  C_6
REMARK    6  A    between atoms: N_9  and  C_10
REMARK    7  A    between atoms: C_10  and  C_12
REMARK    8  A    between atoms: C_10  and  C_13
REMARK    9  A    between atoms: C_15  and  C_18
REMARK                            x       y       z     vdW  Elec       q    Type
REMARK                         _______ _______ _______ _____ _____    ______ ____
ROOT
ATOM      1  N   UNL     1      -0.055  -0.114  -2.441  0.00  0.00    -0.288 N 
ATOM      2  C   UNL     1       0.199   1.171  -3.096  0.00  0.00    +0.133 C 
ATOM      3  C   UNL     1      -1.000  -0.943  -2.926  0.00  0.00    +0.303 C 
ATOM      4  O   UNL     1      -1.211  -2.010  -2.382  0.00  0.00    -0.253 OA
ATOM      5  N   UNL     1      -1.711  -0.590  -4.015  0.00  0.00    -0.288 N 
ATOM      6  H   UNL     1      -1.543   0.261  -4.449  0.00  0.00    +0.151 HD
ENDROOT
BRANCH   5   7
ATOM      7  C   UNL     1      -2.738  -1.492  -4.543  0.00  0.00    +0.160 C 
ATOM      8  C   UNL     1      -4.052  -1.264  -3.792  0.00  0.00    +0.038 C 
BRANCH   7   9
ATOM      9  C   UNL     1      -2.944  -1.215  -6.010  0.00  0.00    +0.248 A 
ATOM     10  N   UNL     1      -3.045  -2.114  -6.947  0.00  0.00    -0.190 NA
ATOM     11  C   UNL     1      -3.223  -1.518  -8.140  0.00  0.00    +0.202 A 
ATOM     12  N   UNL     1      -3.235  -0.220  -7.961  0.00  0.00    -0.056 NA
ATOM     13  O   UNL     1      -3.059  -0.004  -6.569  0.00  0.00    -0.336 OA
BRANCH  11  14
ATOM     14  C   UNL     1      -3.379  -2.214  -9.441  0.00  0.00    +0.023 A 
ATOM     15  C   UNL     1      -3.353  -3.606  -9.496  0.00  0.00    +0.014 A 
ATOM     16  C   UNL     1      -3.499  -4.250 -10.707  0.00  0.00    +0.039 A 
ATOM     17  C   UNL     1      -3.671  -3.514 -11.869  0.00  0.00    +0.123 A 
ATOM     18  C   UNL     1      -3.696  -2.129 -11.819  0.00  0.00    +0.039 A 
ATOM     19  C   UNL     1      -3.557  -1.478 -10.611  0.00  0.00    +0.014 A 
ATOM     20  F   UNL     1      -3.814  -4.147 -13.053  0.00  0.00    -0.205 F 
ENDBRANCH  11  14
ENDBRANCH   7   9
ENDBRANCH   5   7
BRANCH   1  21
ATOM     21  C   UNL     1       0.718  -0.497  -1.257  0.00  0.00    +0.117 C 
BRANCH  21  23
ATOM     22  C   UNL     1      -0.019   1.526   0.010  0.00  0.00    +0.014 C 
ATOM     23  C   UNL     1       0.002  -0.004   0.002  0.00  0.00    +0.033 C 
BRANCH  23  24
ATOM     24  C   UNL     1       0.731  -0.503   1.223  0.00  0.00    -0.043 A 
ATOM     25  C   UNL     1       2.050  -0.148   1.434  0.00  0.00    +0.004 A 
ATOM     26  C   UNL     1       2.719  -0.606   2.554  0.00  0.00    +0.000 A 
ATOM     27  C   UNL     1       2.068  -1.419   3.463  0.00  0.00    +0.000 A 
ATOM     28  C   UNL     1       0.749  -1.773   3.252  0.00  0.00    +0.000 A 
ATOM     29  C   UNL     1       0.079  -1.312   2.135  0.00  0.00    +0.004 A 
ENDBRANCH  23  24
ENDBRANCH  21  23
ENDBRANCH   1  21
TORSDOF 6
