REMARK  Name = ZINC04947220
REMARK  3 active torsions:
REMARK  status: ('A' for Active; 'I' for Inactive)
REMARK    1  A    between atoms: C_3  and  O_18
REMARK    2  A    between atoms: C_4  and  C_8
REMARK    3  A    between atoms: N_9  and  N_10
REMARK                            x       y       z     vdW  Elec       q    Type
REMARK                         _______ _______ _______ _____ _____    ______ ____
ROOT
ATOM      1  C   UNL     1       3.692  -0.690  -0.038  0.00  0.00    +0.142 C 
ATOM      2  N   UNL     1       4.807  -0.025  -0.046  0.00  0.00    -0.189 NA
ENDROOT
BRANCH   2   3
ATOM      3  N   UNL     1       6.030  -0.708  -0.063  0.00  0.00    -0.219 N 
ATOM      4  C   UNL     1       7.223   0.004  -0.071  0.00  0.00    +0.175 A 
ATOM      5  C   UNL     1       8.443  -0.674  -0.093  0.00  0.00    +0.170 A 
ATOM      6  N   UNL     1       9.573   0.007  -0.101  0.00  0.00    -0.239 NA
ATOM      7  C   UNL     1       9.550   1.331  -0.088  0.00  0.00    +0.132 A 
ATOM      8  C   UNL     1       8.345   2.005  -0.066  0.00  0.00    +0.132 A 
ATOM      9  N   UNL     1       7.207   1.331  -0.064  0.00  0.00    -0.235 NA
ATOM     10 CL   UNL     1       8.473  -2.409  -0.109  0.00  0.00    -0.058 Cl
ATOM     11  H   UNL     1       6.044  -1.678  -0.068  0.00  0.00    +0.176 HD
ENDBRANCH   2   3
BRANCH   1  15
ATOM     12  C   UNL     1      -0.017   1.381   0.010  0.00  0.00    +0.019 A 
ATOM     13  C   UNL     1       1.167   2.096   0.002  0.00  0.00    +0.047 A 
ATOM     14  C   UNL     1       2.381   1.430  -0.013  0.00  0.00    +0.126 A 
ATOM     15  C   UNL     1       2.405   0.028  -0.021  0.00  0.00    +0.037 A 
ATOM     16  C   UNL     1       1.204  -0.683  -0.013  0.00  0.00    +0.028 A 
ATOM     17  C   UNL     1       0.002  -0.004   0.002  0.00  0.00    +0.019 A 
ATOM     18 BR   UNL     1      -1.625  -0.968   0.013  0.00  0.00    -0.050 Br
BRANCH  14  19
ATOM     19  O   UNL     1       3.543   2.132  -0.022  0.00  0.00    -0.506 OA
ATOM     20  H   UNL     1       3.889   2.331   0.859  0.00  0.00    +0.292 HD
ENDBRANCH  14  19
ENDBRANCH   1  15
TORSDOF 3
