REMARK  Name = ZINC13124476
REMARK  4 active torsions:
REMARK  status: ('A' for Active; 'I' for Inactive)
REMARK    1  A    between atoms: C_3  and  C_6
REMARK    2  A    between atoms: C_9  and  C_29
REMARK    3  A    between atoms: C_13  and  C_16
REMARK    4  A    between atoms: N_18  and  C_19
REMARK                            x       y       z     vdW  Elec       q    Type
REMARK                         _______ _______ _______ _____ _____    ______ ____
ROOT
ATOM      1  C   UNL     1       3.598   0.626  -0.031  0.00  0.00    +0.140 C 
ATOM      2  C   UNL     1       4.128   0.353   1.382  0.00  0.00    +0.066 C 
ATOM      3  C   UNL     1       5.660   0.377   1.375  0.00  0.00    +0.215 C 
ATOM      4  N   UNL     1       6.143  -0.477   0.284  0.00  0.00    -0.238 N 
ATOM      5  C   UNL     1       5.379  -0.851  -0.770  0.00  0.00    +0.130 A 
ATOM      6  C   UNL     1       6.158  -1.647  -1.588  0.00  0.00    +0.096 A 
ATOM      7  C   UNL     1       7.434  -1.736  -0.977  0.00  0.00    +0.149 A 
ATOM      8  N   UNL     1       7.408  -1.039   0.126  0.00  0.00    -0.177 NA
ATOM      9  N   UNL     1       4.061  -0.454  -0.925  0.00  0.00    -0.319 N 
ATOM     10  H   UNL     1       3.475  -0.863  -1.580  0.00  0.00    +0.148 HD
ENDROOT
BRANCH   1  13
ATOM     11  C   UNL     1      -0.020   1.327   0.020  0.00  0.00    +0.041 A 
ATOM     12  C   UNL     1       1.326   1.760   0.002  0.00  0.00    +0.046 A 
ATOM     13  C   UNL     1       2.091   0.654  -0.010  0.00  0.00    +0.125 A 
ATOM     14  O   UNL     1       1.285  -0.420  -0.001  0.00  0.00    -0.466 OA
ATOM     15  C   UNL     1       0.004  -0.018   0.017  0.00  0.00    +0.195 A 
ENDBRANCH   1  13
BRANCH   6  16
ATOM     16  C   UNL     1       5.743  -2.280  -2.846  0.00  0.00    +0.253 C 
ATOM     17  O   UNL     1       4.610  -2.123  -3.262  0.00  0.00    -0.270 OA
ATOM     18  N   UNL     1       6.617  -3.034  -3.541  0.00  0.00    -0.281 N 
ATOM     19  H   UNL     1       7.539  -3.105  -3.246  0.00  0.00    +0.155 HD
BRANCH  18  20
ATOM     20  C   UNL     1       6.196  -3.716  -4.688  0.00  0.00    +0.034 A 
ATOM     21  C   UNL     1       5.248  -3.146  -5.528  0.00  0.00    +0.023 A 
ATOM     22  C   UNL     1       4.837  -3.822  -6.658  0.00  0.00    +0.006 A 
ATOM     23  C   UNL     1       5.364  -5.068  -6.958  0.00  0.00    -0.044 A 
ATOM     24  C   UNL     1       6.308  -5.638  -6.123  0.00  0.00    -0.042 A 
ATOM     25  C   UNL     1       6.728  -4.961  -4.992  0.00  0.00    +0.027 A 
ATOM     26  C   UNL     1       6.722  -6.989  -6.667  0.00  0.00    +0.036 C 
ATOM     27  C   UNL     1       5.620  -7.374  -7.676  0.00  0.00    +0.009 C 
ATOM     28  C   UNL     1       5.081  -5.997  -8.119  0.00  0.00    +0.036 C 
ENDBRANCH  18  20
ENDBRANCH   6  16
BRANCH   3  29
ATOM     29  C   UNL     1       6.187  -0.149   2.712  0.00  0.00    +0.412 C 
ATOM     30  F   UNL     1       5.743  -1.462   2.904  0.00  0.00    -0.168 F 
ATOM     31  F   UNL     1       7.586  -0.127   2.703  0.00  0.00    -0.168 F 
ATOM     32  F   UNL     1       5.714   0.660   3.750  0.00  0.00    -0.168 F 
ENDBRANCH   3  29
TORSDOF 4
