REMARK  Name = ZINC00523154
REMARK  4 active torsions:
REMARK  status: ('A' for Active; 'I' for Inactive)
REMARK    1  A    between atoms: C_1  and  N_2
REMARK    2  A    between atoms: N_2  and  C_3
REMARK    3  A    between atoms: N_2  and  C_4
REMARK    4  A    between atoms: C_7  and  C_10
REMARK                            x       y       z     vdW  Elec       q    Type
REMARK                         _______ _______ _______ _____ _____    ______ ____
ROOT
ATOM      1  C   UNL     1      -0.006  -2.813  -4.924  0.00  0.00    +0.190 C 
ATOM      2  N   UNL     1       0.655  -1.988  -5.950  0.00  0.00    -0.316 N 
ATOM      3  C   UNL     1       2.029  -2.026  -5.979  0.00  0.00    +0.080 A 
ATOM      4  C   UNL     1       2.759  -3.110  -5.480  0.00  0.00    +0.068 A 
ATOM      5  C   UNL     1       4.213  -2.994  -5.572  0.00  0.00    -0.023 A 
ATOM      6  C   UNL     1       4.645  -1.850  -6.136  0.00  0.00    -0.004 A 
ATOM      7  S   UNL     1       3.163  -0.953  -6.535  0.00  0.00    -0.078 S 
ATOM      8  C   UNL     1       6.146  -1.786  -6.200  0.00  0.00    +0.043 C 
ATOM      9  C   UNL     1       6.625  -2.867  -5.205  0.00  0.00    +0.010 C 
ATOM     10  C   UNL     1       5.429  -3.840  -5.198  0.00  0.00    +0.037 C 
ATOM     11  C   UNL     1       2.005  -4.255  -4.921  0.00  0.00    +0.248 C 
ATOM     12  O   UNL     1       2.558  -5.300  -4.633  0.00  0.00    -0.270 OA
ATOM     13  N   UNL     1       0.677  -4.089  -4.747  0.00  0.00    -0.289 N 
ATOM     14  H   UNL     1       0.147  -1.445  -6.574  0.00  0.00    +0.149 HD
ATOM     15  H   UNL     1       0.149  -4.861  -4.488  0.00  0.00    +0.151 HD
ENDROOT
BRANCH   1  19
ATOM     16  C   UNL     1       0.000  -0.696  -1.211  0.00  0.00    +0.029 A 
ATOM     17  C   UNL     1       0.013  -2.085  -1.221  0.00  0.00    +0.023 A 
ATOM     18  C   UNL     1       0.010  -2.766  -2.422  0.00  0.00    +0.009 A 
ATOM     19  C   UNL     1      -0.005  -2.066  -3.615  0.00  0.00    -0.009 A 
ATOM     20  C   UNL     1      -0.018  -0.684  -3.609  0.00  0.00    +0.009 A 
ATOM     21  C   UNL     1      -0.021   0.004  -2.411  0.00  0.00    +0.023 A 
BRANCH  16  23
ATOM     22  C   UNL     1      -0.018   1.461   0.010  0.00  0.00    +0.129 C 
ATOM     23  N   UNL     1       0.002  -0.004   0.002  0.00  0.00    -0.336 N 
ATOM     24  C   UNL     1       0.024  -0.743   1.267  0.00  0.00    +0.129 C 
ENDBRANCH  16  23
ENDBRANCH   1  19
TORSDOF 2
