REMARK  Name = ZINC08758016
REMARK  5 active torsions:
REMARK  status: ('A' for Active; 'I' for Inactive)
REMARK    1  A    between atoms: C_4  and  C_7
REMARK    2  A    between atoms: C_7  and  N_54
REMARK    3  A    between atoms: C_19  and  C_21
REMARK    4  A    between atoms: C_21  and  S_22
REMARK    5  A    between atoms: S_22  and  C_23
REMARK                            x       y       z     vdW  Elec       q    Type
REMARK                         _______ _______ _______ _____ _____    ______ ____
ROOT
ATOM      1  C   UNL     1      -3.626  -0.576  -0.002  0.00  0.00    -0.059 C 
ATOM      2  C   UNL     1      -2.325   0.224  -0.094  0.00  0.00    +0.089 C 
ATOM      3  N   UNL     1      -1.181  -0.693   0.010  0.00  0.00    -0.305 N 
ATOM      4  C   UNL     1      -1.214  -1.695  -1.065  0.00  0.00    +0.089 C 
ATOM      5  C   UNL     1      -2.515  -2.495  -0.973  0.00  0.00    -0.059 C 
ATOM      6  C   UNL     1       0.002  -0.004   0.002  0.00  0.00    +0.198 A 
ATOM      7  N   UNL     1       1.176  -0.692  -0.012  0.00  0.00    -0.295 N 
ATOM      8  H   UNL     1       1.172  -1.662  -0.018  0.00  0.00    +0.172 HD
ATOM      9  C   UNL     1       2.347  -0.019  -0.020  0.00  0.00    +0.253 A 
ATOM     10  O   UNL     1       3.409  -0.620  -0.033  0.00  0.00    -0.268 OA
ATOM     11  C   UNL     1       2.319   1.387  -0.013  0.00  0.00    +0.094 A 
ATOM     12  C   UNL     1       1.111   2.022   0.002  0.00  0.00    +0.060 A 
ATOM     13  N   UNL     1      -0.016   1.314   0.009  0.00  0.00    -0.220 NA
ATOM     14  N   UNL     1      -3.657  -1.564  -1.101  0.00  0.00    +0.384 N 
ATOM     15  H   UNL     1      -3.585  -1.069  -1.997  0.00  0.00    -0.081 HD
ENDROOT
BRANCH  14  16
ATOM     16  C   UNL     1      -4.929  -2.317  -1.069  0.00  0.00    -0.043 C 
BRANCH  16  20
ATOM     17  C   UNL     1      -5.217  -4.692  -4.608  0.00  0.00    +0.000 A 
ATOM     18  C   UNL     1      -4.637  -5.217  -3.468  0.00  0.00    +0.000 A 
ATOM     19  C   UNL     1      -4.544  -4.449  -2.323  0.00  0.00    +0.002 A 
ATOM     20  C   UNL     1      -5.030  -3.155  -2.317  0.00  0.00    -0.064 A 
ATOM     21  C   UNL     1      -5.615  -2.631  -3.455  0.00  0.00    +0.002 A 
ATOM     22  C   UNL     1      -5.704  -3.398  -4.602  0.00  0.00    +0.000 A 
ENDBRANCH  16  20
ENDBRANCH  14  16
BRANCH  12  23
ATOM     23  C   UNL     1       1.054   3.528   0.010  0.00  0.00    +0.132 C 
BRANCH  23  24
ATOM     24  S   UNL     1       0.574   4.122  -1.631  0.00  0.00    -0.093 S 
BRANCH  24  25
ATOM     25  C   UNL     1       0.585   5.860  -1.342  0.00  0.00    +0.136 A 
ATOM     26  N   UNL     1       0.314   6.837  -2.179  0.00  0.00    -0.233 NA
ATOM     27  C   UNL     1       0.362   8.137  -1.816  0.00  0.00    +0.079 A 
ATOM     28  C   UNL     1       0.096   9.276  -2.611  0.00  0.00    +0.029 A 
ATOM     29  C   UNL     1       0.191  10.537  -2.082  0.00  0.00    +0.002 A 
ATOM     30  C   UNL     1       0.550  10.743  -0.758  0.00  0.00    +0.001 A 
ATOM     31  C   UNL     1       0.819   9.651   0.048  0.00  0.00    +0.017 A 
ATOM     32  C   UNL     1       0.725   8.385  -0.472  0.00  0.00    +0.040 A 
ATOM     33  S   UNL     1       0.961   6.744   0.166  0.00  0.00    -0.061 S 
ENDBRANCH  24  25
ENDBRANCH  23  24
ENDBRANCH  12  23
TORSDOF 5
