REMARK  Name = ZINC36026675
REMARK  10 active torsions:
REMARK  status: ('A' for Active; 'I' for Inactive)
REMARK    1  A    between atoms: C_1  and  C_2
REMARK    2  A    between atoms: C_2  and  C_3
REMARK    3  A    between atoms: C_3  and  C_5
REMARK    4  A    between atoms: C_3  and  C_6
REMARK    5  A    between atoms: N_10  and  C_24
REMARK    6  A    between atoms: C_18  and  C_20
REMARK    7  A    between atoms: C_20  and  C_21
REMARK    8  A    between atoms: C_21  and  C_22
REMARK    9  A    between atoms: C_21  and  C_23
REMARK   10  A    between atoms: C_24  and  C_25
REMARK                            x       y       z     vdW  Elec       q    Type
REMARK                         _______ _______ _______ _____ _____    ______ ____
ROOT
ATOM      1  C   UNL     1       1.377  -3.450   0.694  0.00  0.00    +0.022 C 
ATOM      2  C   UNL     1       0.878  -4.037   1.997  0.00  0.00    +0.201 C 
ATOM      3  O   UNL     1       1.544  -4.670   2.789  0.00  0.00    -0.277 OA
ATOM      4  N   UNL     1      -0.430  -3.737   2.129  0.00  0.00    -0.309 N 
ATOM      5  C   UNL     1      -0.875  -2.966   0.965  0.00  0.00    +0.006 C 
ATOM      6  N   UNL     1       0.348  -2.454   0.307  0.00  0.00    +0.401 N 
ATOM      7  C   UNL     1      -1.751  -1.796   1.409  0.00  0.00    +0.025 C 
ATOM      8  C   UNL     1      -2.997  -2.335   2.120  0.00  0.00    +0.108 C 
ATOM      9  N   UNL     1      -3.665  -3.300   1.237  0.00  0.00    -0.301 N 
ATOM     10  C   UNL     1      -2.885  -4.422   0.696  0.00  0.00    +0.108 C 
ATOM     11  C   UNL     1      -1.641  -3.865  -0.004  0.00  0.00    +0.025 C 
ATOM     12  C   UNL     1      -4.969  -3.159   0.928  0.00  0.00    +0.216 C 
ATOM     13  O   UNL     1      -5.603  -2.229   1.381  0.00  0.00    -0.276 OA
ATOM     14  H   UNL     1       0.586  -1.540   0.661  0.00  0.00    -0.082 HD
ATOM     15  H   UNL     1       0.233  -2.432  -0.695  0.00  0.00    -0.082 HD
ENDROOT
BRANCH   1  16
ATOM     16  C   UNL     1       2.729  -2.765   0.901  0.00  0.00    -0.020 C 
ATOM     17  C   UNL     1       3.178  -2.116  -0.409  0.00  0.00    +0.006 C 
BRANCH  16  19
ATOM     18  C   UNL     1       5.085  -3.102   1.664  0.00  0.00    +0.004 C 
ATOM     19  C   UNL     1       3.765  -3.804   1.337  0.00  0.00    -0.001 C 
ENDBRANCH  16  19
ENDBRANCH   1  16
BRANCH  12  20
ATOM     20  C   UNL     1      -5.641  -4.157   0.020  0.00  0.00    +0.099 C 
BRANCH  20  21
ATOM     21  C   UNL     1      -7.109  -3.769  -0.167  0.00  0.00    -0.008 C 
ATOM     22  C   UNL     1      -7.759  -4.708  -1.185  0.00  0.00    +0.008 C 
ATOM     23  C   UNL     1      -7.841  -3.883   1.171  0.00  0.00    +0.008 C 
ENDBRANCH  20  21
ENDBRANCH  12  20
BRANCH   4  24
ATOM     24  C   UNL     1      -1.276  -4.123   3.261  0.00  0.00    +0.141 C 
BRANCH  24  25
ATOM     25  C   UNL     1      -1.156  -3.091   4.353  0.00  0.00    -0.030 A 
ATOM     26  C   UNL     1       0.053  -2.458   4.575  0.00  0.00    +0.005 A 
ATOM     27  C   UNL     1       0.163  -1.512   5.577  0.00  0.00    +0.000 A 
ATOM     28  C   UNL     1      -0.935  -1.198   6.355  0.00  0.00    +0.000 A 
ATOM     29  C   UNL     1      -2.144  -1.830   6.132  0.00  0.00    +0.000 A 
ATOM     30  C   UNL     1      -2.256  -2.773   5.128  0.00  0.00    +0.005 A 
ENDBRANCH  24  25
ENDBRANCH   4  24
TORSDOF 6
