REMARK  Name = ZINC48353617
REMARK  6 active torsions:
REMARK  status: ('A' for Active; 'I' for Inactive)
REMARK    1  A    between atoms: C_1  and  C_2
REMARK    2  A    between atoms: C_7  and  N_12
REMARK    3  A    between atoms: C_9  and  C_11
REMARK    4  A    between atoms: C_13  and  C_15
REMARK    5  A    between atoms: C_15  and  N_16
REMARK    6  A    between atoms: C_21  and  C_23
REMARK                            x       y       z     vdW  Elec       q    Type
REMARK                         _______ _______ _______ _____ _____    ______ ____
ROOT
ATOM      1  C   UNL     1       1.358  -0.484   6.106  0.00  0.00    +0.020 C 
ENDROOT
BRANCH   1   2
ATOM      2  N   UNL     1       1.082   0.479   7.181  0.00  0.00    +0.393 N 
ATOM      3  C   UNL     1      -0.361   0.511   7.447  0.00  0.00    -0.077 C 
ATOM      4  C   UNL     1      -0.664   1.570   8.509  0.00  0.00    -0.019 C 
ATOM      5  C   UNL     1       0.087   1.223   9.798  0.00  0.00    -0.003 C 
ATOM      6  C   UNL     1       1.584   1.119   9.492  0.00  0.00    -0.006 C 
ATOM      7  C   UNL     1       1.803   0.076   8.394  0.00  0.00    +0.020 C 
ATOM      8  H   UNL     1       1.390   1.397   6.896  0.00  0.00    -0.080 HD
BRANCH   7   9
ATOM      9  C   UNL     1       3.276  -0.030   8.090  0.00  0.00    +0.197 C 
ATOM     10  O   UNL     1       3.766   0.657   7.219  0.00  0.00    -0.278 OA
ATOM     11  N   UNL     1       4.047  -0.888   8.786  0.00  0.00    -0.331 N 
ATOM     12  H   UNL     1       3.655  -1.438   9.482  0.00  0.00    +0.145 HD
ATOM     13  H   UNL     1       4.995  -0.956   8.590  0.00  0.00    +0.145 HD
ENDBRANCH   7   9
ENDBRANCH   1   2
BRANCH   1  15
ATOM     14  N   UNL     1       0.890  -0.707   3.688  0.00  0.00    -0.314 N 
ATOM     15  C   UNL     1       0.761   0.018   4.817  0.00  0.00    +0.197 C 
ATOM     16  O   UNL     1       0.163   1.073   4.795  0.00  0.00    -0.278 OA
ATOM     17  H   UNL     1       1.368  -1.550   3.705  0.00  0.00    +0.149 HD
BRANCH  14  23
ATOM     18  C   UNL     1       0.567   1.215  -0.108  0.00  0.00    +0.008 C 
ATOM     19  C   UNL     1       0.465  -0.311  -0.058  0.00  0.00    -0.009 C 
ATOM     20  C   UNL     1      -1.006  -0.727  -0.134  0.00  0.00    +0.003 C 
ATOM     21  C   UNL     1      -1.768  -0.126   1.049  0.00  0.00    +0.002 C 
ATOM     22  C   UNL     1      -1.161  -0.635   2.358  0.00  0.00    +0.022 C 
ATOM     23  C   UNL     1       0.309  -0.219   2.434  0.00  0.00    +0.076 C 
ATOM     24  C   UNL     1       1.072  -0.820   1.251  0.00  0.00    +0.009 C 
ATOM     25  C   UNL     1       2.542  -0.404   1.328  0.00  0.00    +0.009 C 
ENDBRANCH  14  23
ENDBRANCH   1  15
TORSDOF 4
