REMARK  Name = ZINC14475187
REMARK  2 active torsions:
REMARK  status: ('A' for Active; 'I' for Inactive)
REMARK    1  A    between atoms: C_6  and  C_11
REMARK    2  A    between atoms: C_24  and  N_27
REMARK                            x       y       z     vdW  Elec       q    Type
REMARK                         _______ _______ _______ _____ _____    ______ ____
ROOT
ATOM      1  C   UNL     1      -0.821   1.672  -1.152  0.00  0.00    +0.105 C 
ATOM      2  C   UNL     1      -0.653   1.056   0.239  0.00  0.00    +0.029 C 
ATOM      3  C   UNL     1      -1.725   1.670   1.184  0.00  0.00    +0.033 C 
ATOM      4  C   UNL     1      -1.107   2.985   1.615  0.00  0.00    -0.030 C 
ATOM      5  C   UNL     1       0.193   2.957   1.455  0.00  0.00    -0.023 C 
ATOM      6  C   UNL     1       0.627   1.625   0.887  0.00  0.00    +0.049 C 
ATOM      7  C   UNL     1       1.719   1.812  -0.124  0.00  0.00    -0.017 A 
ATOM      8  C   UNL     1       2.980   2.167   0.337  0.00  0.00    +0.006 A 
ATOM      9  C   UNL     1       4.024   2.355  -0.545  0.00  0.00    +0.003 A 
ATOM     10  C   UNL     1       3.821   2.191  -1.903  0.00  0.00    +0.034 A 
ATOM     11  C   UNL     1       2.574   1.838  -2.371  0.00  0.00    +0.147 A 
ATOM     12  C   UNL     1       1.516   1.645  -1.483  0.00  0.00    +0.062 A 
ATOM     13  N   UNL     1       0.277   1.284  -2.010  0.00  0.00    -0.335 N 
ATOM     14  H   UNL     1       0.241   0.294  -2.204  0.00  0.00    +0.147 HD
ENDROOT
BRANCH   1  20
ATOM     15  C   UNL     1       0.144   8.057  -1.027  0.00  0.00    +0.001 A 
ATOM     16  C   UNL     1       1.306   7.423  -1.465  0.00  0.00    +0.001 A 
ATOM     17  C   UNL     1       1.365   6.068  -1.580  0.00  0.00    +0.008 A 
ATOM     18  C   UNL     1       0.239   5.293  -1.254  0.00  0.00    -0.018 A 
ATOM     19  C   UNL     1       0.261   3.892  -1.360  0.00  0.00    +0.014 A 
ATOM     20  C   UNL     1      -0.849   3.174  -1.036  0.00  0.00    -0.026 A 
ATOM     21  C   UNL     1      -2.012   3.808  -0.604  0.00  0.00    +0.006 A 
ATOM     22  C   UNL     1      -2.069   5.163  -0.485  0.00  0.00    +0.009 A 
ATOM     23  C   UNL     1      -0.943   5.938  -0.810  0.00  0.00    -0.018 A 
ATOM     24  C   UNL     1      -0.966   7.339  -0.703  0.00  0.00    +0.008 A 
ENDBRANCH   1  20
BRANCH  11  25
ATOM     25  N   UNL     1       2.355   1.662  -3.824  0.00  0.00    +0.058 N 
ATOM     26  O   UNL     1       3.277   1.828  -4.603  0.00  0.00    -0.126 OA
ATOM     27  O   UNL     1       1.254   1.350  -4.241  0.00  0.00    -0.126 OA
ENDBRANCH  11  25
TORSDOF 2
