REMARK  Name = ZINC00145332
REMARK  1 active torsions:
REMARK  status: ('A' for Active; 'I' for Inactive)
REMARK    1  A    between atoms: C_4  and  N_7
REMARK                            x       y       z     vdW  Elec       q    Type
REMARK                         _______ _______ _______ _____ _____    ______ ____
ROOT
ATOM      1  N   UNL     1       1.038  -0.858  -0.013  0.00  0.00    -0.199 N 
ATOM      2  C   UNL     1       0.009  -0.006   0.119  0.00  0.00    +0.158 C 
ATOM      3  S   UNL     1      -1.528  -0.749   0.254  0.00  0.00    -0.017 S 
ATOM      4  N   UNL     1      -0.008   1.339   0.161  0.00  0.00    -0.295 N 
ATOM      5  C   UNL     1       1.063   2.223   0.077  0.00  0.00    +0.045 A 
ATOM      6  C   UNL     1       0.660   3.548   0.158  0.00  0.00    +0.024 A 
ATOM      7  C   UNL     1       1.601   4.557   0.091  0.00  0.00    +0.002 A 
ATOM      8  C   UNL     1       2.946   4.258  -0.056  0.00  0.00    +0.001 A 
ATOM      9  C   UNL     1       3.364   2.947  -0.139  0.00  0.00    +0.015 A 
ATOM     10  C   UNL     1       2.425   1.919  -0.073  0.00  0.00    +0.059 A 
ATOM     11  C   UNL     1       3.045   0.583  -0.176  0.00  0.00    +0.262 C 
ATOM     12  O   UNL     1       4.254   0.552  -0.302  0.00  0.00    -0.269 OA
ATOM     13  N   UNL     1       2.408  -0.610  -0.146  0.00  0.00    -0.224 N 
ATOM     14  H   UNL     1      -0.883   1.747   0.258  0.00  0.00    +0.154 HD
ATOM     15  H   UNL     1       2.974  -1.393  -0.227  0.00  0.00    +0.174 HD
ENDROOT
BRANCH   1  19
ATOM     16  C   UNL     1      -0.017  -4.888  -0.024  0.00  0.00    +0.000 A 
ATOM     17  C   UNL     1       0.637  -4.343  -1.113  0.00  0.00    +0.002 A 
ATOM     18  C   UNL     1       0.988  -3.007  -1.113  0.00  0.00    +0.025 A 
ATOM     19  C   UNL     1       0.683  -2.211  -0.016  0.00  0.00    +0.055 A 
ATOM     20  C   UNL     1       0.031  -2.763   1.079  0.00  0.00    +0.025 A 
ATOM     21  C   UNL     1      -0.322  -4.098   1.070  0.00  0.00    +0.002 A 
ENDBRANCH   1  19
TORSDOF 1
