REMARK  Name = ZINC55949641
REMARK  4 active torsions:
REMARK  status: ('A' for Active; 'I' for Inactive)
REMARK    1  A    between atoms: C_1  and  C_2
REMARK    2  A    between atoms: C_3  and  S_9
REMARK    3  A    between atoms: N_5  and  C_7
REMARK    4  A    between atoms: S_9  and  N_12
REMARK                            x       y       z     vdW  Elec       q    Type
REMARK                         _______ _______ _______ _____ _____    ______ ____
ROOT
ATOM      1  S   UNL     1      -0.215  -0.310  -2.684  0.00  0.00    +0.065 S 
ATOM      2  O   UNL     1      -0.629   0.604  -1.678  0.00  0.00    -0.153 OA
ATOM      3  O   UNL     1      -0.340  -1.717  -2.534  0.00  0.00    -0.153 OA
ENDROOT
BRANCH   1   6
ATOM      4  C   UNL     1      -0.848  -2.138  -5.389  0.00  0.00    +0.069 C 
ATOM      5  C   UNL     1      -1.320  -0.713  -5.249  0.00  0.00    +0.088 A 
ATOM      6  C   UNL     1      -1.096   0.120  -4.149  0.00  0.00    +0.164 A 
ATOM      7  C   UNL     1      -1.677   1.317  -4.407  0.00  0.00    +0.153 A 
ATOM      8  N   UNL     1      -2.247   1.241  -5.628  0.00  0.00    -0.254 N 
ATOM      9  N   UNL     1      -2.006  -0.042  -6.138  0.00  0.00    -0.173 NA
ATOM     10  C   UNL     1      -2.985   2.311  -6.303  0.00  0.00    +0.174 C 
ATOM     11 CL   UNL     1      -1.686   2.699  -3.357  0.00  0.00    -0.060 Cl
ENDBRANCH   1   6
BRANCH   1  12
ATOM     12  N   UNL     1       1.387  -0.005  -2.970  0.00  0.00    -0.176 NA
ATOM     13  C   UNL     1       1.993   1.258  -2.526  0.00  0.00    +0.109 C 
ATOM     14  C   UNL     1       2.048   1.277  -1.004  0.00  0.00    +0.017 C 
ATOM     15  C   UNL     1       3.138   0.302  -0.526  0.00  0.00    +0.001 C 
ATOM     16  C   UNL     1       2.613  -1.126  -0.609  0.00  0.00    +0.000 C 
ATOM     17  C   UNL     1       3.386  -1.931  -1.669  0.00  0.00    +0.001 C 
ATOM     18  C   UNL     1       3.556  -1.087  -2.933  0.00  0.00    +0.017 C 
ATOM     19  C   UNL     1       2.211  -0.986  -3.656  0.00  0.00    +0.109 C 
ENDBRANCH   1  12
TORSDOF 2
