REMARK  Name = ZINC53058398
REMARK  5 active torsions:
REMARK  status: ('A' for Active; 'I' for Inactive)
REMARK    1  A    between atoms: C_1  and  C_2
REMARK    2  A    between atoms: C_5  and  N_8
REMARK    3  A    between atoms: C_11  and  C_15
REMARK    4  A    between atoms: C_19  and  C_26
REMARK    5  A    between atoms: C_22  and  C_25
REMARK                            x       y       z     vdW  Elec       q    Type
REMARK                         _______ _______ _______ _____ _____    ______ ____
ROOT
ATOM      1  N   UNL     1       0.059  -4.170  -0.021  0.00  0.00    -0.271 N 
ATOM      2  C   UNL     1       0.176  -5.003   1.182  0.00  0.00    +0.115 C 
ATOM      3  C   UNL     1       0.588  -6.403   0.674  0.00  0.00    +0.041 C 
ATOM      4  C   UNL     1       0.033  -6.391  -0.769  0.00  0.00    +0.163 C 
ATOM      5  C   UNL     1      -0.034  -4.923  -1.130  0.00  0.00    +0.232 C 
ATOM      6  O   UNL     1      -0.153  -4.490  -2.257  0.00  0.00    -0.274 OA
ENDROOT
BRANCH   4   7
ATOM      7  C   UNL     1       0.965  -7.127  -1.698  0.00  0.00    +0.228 C 
ATOM      8  O   UNL     1       1.984  -7.623  -1.266  0.00  0.00    -0.275 OA
ATOM      9  N   UNL     1       0.665  -7.234  -3.007  0.00  0.00    -0.296 N 
ATOM     10  C   UNL     1      -0.563  -6.634  -3.555  0.00  0.00    +0.139 C 
ATOM     11  C   UNL     1      -1.299  -7.702  -4.371  0.00  0.00    +0.133 C 
ATOM     12  O   UNL     1      -0.396  -8.276  -5.319  0.00  0.00    -0.371 OA
ATOM     13  C   UNL     1       0.716  -8.956  -4.731  0.00  0.00    +0.133 C 
ATOM     14  C   UNL     1       1.558  -7.947  -3.933  0.00  0.00    +0.139 C 
ATOM     15  C   UNL     1       1.575  -9.580  -5.832  0.00  0.00    +0.039 C 
ATOM     16  C   UNL     1      -2.476  -7.060  -5.109  0.00  0.00    +0.039 C 
ENDBRANCH   4   7
BRANCH   1  21
ATOM     17  C   UNL     1      -0.018   1.503   0.010  0.00  0.00    +0.044 C 
ATOM     18  C   UNL     1       0.002  -0.004   0.002  0.00  0.00    -0.050 A 
ATOM     19  C   UNL     1       0.021  -0.687  -1.200  0.00  0.00    +0.005 A 
ATOM     20  C   UNL     1       0.040  -2.068  -1.211  0.00  0.00    +0.024 A 
ATOM     21  C   UNL     1       0.040  -2.771  -0.013  0.00  0.00    +0.036 A 
ATOM     22  C   UNL     1       0.021  -2.082   1.192  0.00  0.00    +0.024 A 
ATOM     23  C   UNL     1       0.007  -0.701   1.197  0.00  0.00    +0.005 A 
ENDBRANCH   1  21
TORSDOF 2
