REMARK  Name = ZINC45626635
REMARK  5 active torsions:
REMARK  status: ('A' for Active; 'I' for Inactive)
REMARK    1  A    between atoms: C_1  and  N_2
REMARK    2  A    between atoms: C_6  and  C_9
REMARK    3  A    between atoms: C_9  and  N_10
REMARK    4  A    between atoms: C_11  and  C_13
REMARK    5  A    between atoms: C_15  and  N_20
REMARK                            x       y       z     vdW  Elec       q    Type
REMARK                         _______ _______ _______ _____ _____    ______ ____
ROOT
ATOM      1  N   UNL     1       1.265  -3.976   2.567  0.00  0.00    -0.311 N 
ATOM      2  C   UNL     1       1.841  -4.643   3.587  0.00  0.00    +0.245 C 
ATOM      3  O   UNL     1       2.478  -4.037   4.427  0.00  0.00    -0.270 OA
ATOM      4  H   UNL     1       0.757  -4.459   1.897  0.00  0.00    +0.149 HD
ENDROOT
BRANCH   2   5
ATOM      5  C   UNL     1       1.697  -6.110   3.686  0.00  0.00    +0.053 A 
ATOM      6  C   UNL     1       0.970  -6.810   2.720  0.00  0.00    +0.047 A 
ATOM      7  C   UNL     1       0.840  -8.179   2.818  0.00  0.00    +0.127 A 
ATOM      8  C   UNL     1       1.427  -8.861   3.869  0.00  0.00    +0.034 A 
ATOM      9  C   UNL     1       2.148  -8.175   4.830  0.00  0.00    +0.018 A 
ATOM     10  C   UNL     1       2.291  -6.804   4.742  0.00  0.00    +0.030 A 
ATOM     11 BR   UNL     1       3.284  -5.869   6.052  0.00  0.00    -0.050 Br
BRANCH   7  12
ATOM     12  N   UNL     1       0.070  -8.922   1.795  0.00  0.00    +0.056 N 
ATOM     13  O   UNL     1      -0.444  -8.328   0.876  0.00  0.00    -0.126 OA
ATOM     14  O   UNL     1      -0.045 -10.123   1.879  0.00  0.00    -0.126 OA
ENDBRANCH   7  12
ENDBRANCH   2   5
BRANCH   1  15
ATOM     15  C   UNL     1       1.408  -2.521   2.470  0.00  0.00    +0.106 C 
BRANCH  15  21
ATOM     16  C   UNL     1      -0.018   1.465   0.010  0.00  0.00    -0.096 C 
ATOM     17  N   UNL     1       0.002  -0.004   0.002  0.00  0.00    +0.378 N 
ATOM     18  C   UNL     1       0.681  -0.476  -1.210  0.00  0.00    -0.079 C 
ATOM     19  C   UNL     1       0.634  -2.005  -1.264  0.00  0.00    -0.018 C 
ATOM     20  C   UNL     1       1.336  -2.575  -0.029  0.00  0.00    +0.001 C 
ATOM     21  C   UNL     1       0.666  -2.018   1.230  0.00  0.00    -0.011 C 
ATOM     22  C   UNL     1       0.712  -0.489   1.192  0.00  0.00    -0.074 C 
ATOM     23  H   UNL     1      -0.945  -0.352   0.012  0.00  0.00    -0.082 HD
ENDBRANCH  15  21
ENDBRANCH   1  15
TORSDOF 4
