REMARK  Name = ZINC31812603
REMARK  5 active torsions:
REMARK  status: ('A' for Active; 'I' for Inactive)
REMARK    1  A    between atoms: C_1  and  C_2
REMARK    2  A    between atoms: C_5  and  C_8
REMARK    3  A    between atoms: C_13  and  C_18
REMARK    4  A    between atoms: C_18  and  C_19
REMARK    5  A    between atoms: N_21  and  C_22
REMARK                            x       y       z     vdW  Elec       q    Type
REMARK                         _______ _______ _______ _____ _____    ______ ____
ROOT
ATOM      1  C   UNL     1       2.490   1.115  -0.041  0.00  0.00    +0.183 A 
ATOM      2  N   UNL     1       2.634  -0.217  -0.043  0.00  0.00    -0.193 NA
ATOM      3  C   UNL     1       3.917  -0.530  -0.057  0.00  0.00    +0.221 A 
ATOM      4  N   UNL     1       4.612   0.625  -0.055  0.00  0.00    -0.220 N 
ATOM      5  N   UNL     1       3.682   1.670  -0.045  0.00  0.00    -0.148 NA
ATOM      6  C   UNL     1       6.039   0.282  -0.065  0.00  0.00    +0.205 C 
ATOM      7  C   UNL     1       6.058  -1.232  -0.072  0.00  0.00    +0.245 C 
ATOM      8  O   UNL     1       7.037  -1.949  -0.081  0.00  0.00    -0.273 OA
ATOM      9  N   UNL     1       4.770  -1.622  -0.067  0.00  0.00    -0.253 N 
ATOM     10  H   UNL     1       4.358  -2.642  -0.070  0.00  0.00    +0.158 HD
ENDROOT
BRANCH   1  15
ATOM     11  C   UNL     1      -2.526   3.945   0.002  0.00  0.00    +0.044 C 
ATOM     12  C   UNL     1      -1.213   3.204  -0.010  0.00  0.00    -0.050 A 
ATOM     13  C   UNL     1      -1.202   1.821  -0.023  0.00  0.00    +0.004 A 
ATOM     14  C   UNL     1      -0.003   1.138  -0.028  0.00  0.00    +0.012 A 
ATOM     15  C   UNL     1       1.198   1.844  -0.031  0.00  0.00    +0.021 A 
ATOM     16  C   UNL     1       1.181   3.237  -0.023  0.00  0.00    +0.012 A 
ATOM     17  C   UNL     1      -0.024   3.910  -0.013  0.00  0.00    +0.004 A 
ENDBRANCH   1  15
BRANCH   6  18
ATOM     18  C   UNL     1       6.727   0.823   1.190  0.00  0.00    +0.132 C 
BRANCH  18  19
ATOM     19  C   UNL     1       8.210   0.567   1.100  0.00  0.00    +0.220 C 
ATOM     20  O   UNL     1       8.670   0.007   0.127  0.00  0.00    -0.275 OA
ATOM     21  N   UNL     1       9.024   0.960   2.099  0.00  0.00    -0.284 N 
ATOM     22  H   UNL     1       8.618   1.532   2.946  0.00  0.00    +0.155 HD
BRANCH  21  23
ATOM     23  C   UNL     1      10.386   0.639   2.060  0.00  0.00    +0.052 A 
ATOM     24  C   UNL     1      11.056   0.600   0.844  0.00  0.00    +0.026 A 
ATOM     25  C   UNL     1      12.402   0.289   0.808  0.00  0.00    +0.022 A 
ATOM     26  C   UNL     1      13.080   0.006   1.981  0.00  0.00    +0.042 A 
ATOM     27  C   UNL     1      12.414   0.038   3.193  0.00  0.00    +0.041 A 
ATOM     28  C   UNL     1      11.069   0.354   3.236  0.00  0.00    +0.064 A 
ATOM     29 CL   UNL     1      10.233   0.394   4.757  0.00  0.00    -0.082 Cl
ATOM     30 CL   UNL     1      14.769  -0.391   1.931  0.00  0.00    -0.083 Cl
ENDBRANCH  21  23
ENDBRANCH  18  19
ENDBRANCH   6  18
TORSDOF 4
