REMARK  Name = ZINC16234875
REMARK  8 active torsions:
REMARK  status: ('A' for Active; 'I' for Inactive)
REMARK    1  A    between atoms: C_1  and  C_2
REMARK    2  A    between atoms: C_2  and  C_4
REMARK    3  A    between atoms: C_2  and  N_15
REMARK    4  A    between atoms: C_7  and  N_10
REMARK    5  A    between atoms: N_15  and  C_16
REMARK    6  A    between atoms: C_17  and  C_19
REMARK    7  A    between atoms: C_19  and  C_20
REMARK    8  A    between atoms: C_20  and  N_21
REMARK                            x       y       z     vdW  Elec       q    Type
REMARK                         _______ _______ _______ _____ _____    ______ ____
ROOT
ATOM      1  N   UNL     1       2.125   4.091   0.981  0.00  0.00    -0.298 N 
ATOM      2  C   UNL     1       3.554   3.854   0.767  0.00  0.00    +0.132 C 
ATOM      3  C   UNL     1       1.710   4.774   2.066  0.00  0.00    +0.218 C 
ATOM      4  O   UNL     1       0.526   4.970   2.243  0.00  0.00    -0.276 OA
ENDROOT
BRANCH   1   6
ATOM      5  C   UNL     1       1.498   4.101  -1.384  0.00  0.00    +0.033 C 
ATOM      6  C   UNL     1       1.146   3.587   0.014  0.00  0.00    +0.103 C 
BRANCH   6   7
ATOM      7  C   UNL     1       1.169   2.080   0.015  0.00  0.00    -0.027 A 
ATOM      8  C   UNL     1       1.493   1.396   1.173  0.00  0.00    +0.007 A 
ATOM      9  C   UNL     1       1.514   0.015   1.177  0.00  0.00    +0.028 A 
ATOM     10  C   UNL     1       1.211  -0.686   0.018  0.00  0.00    +0.067 A 
ATOM     11  C   UNL     1       0.886   0.003  -1.142  0.00  0.00    +0.028 A 
ATOM     12  C   UNL     1       0.866   1.384  -1.140  0.00  0.00    +0.007 A 
BRANCH  10  13
ATOM     13  N   UNL     1       1.232  -2.088   0.020  0.00  0.00    -0.220 N 
ATOM     14  C   UNL     1       0.957  -2.901  -1.019  0.00  0.00    +0.225 A 
ATOM     15  N   UNL     1       1.091  -4.137  -0.611  0.00  0.00    -0.222 NA
ATOM     16  C   UNL     1       1.440  -4.155   0.675  0.00  0.00    +0.245 A 
ATOM     17  N   UNL     1       1.539  -2.924   1.105  0.00  0.00    -0.154 NA
ENDBRANCH  10  13
ENDBRANCH   6   7
ENDBRANCH   1   6
BRANCH   3  18
ATOM     18  C   UNL     1       2.716   5.292   3.061  0.00  0.00    +0.117 C 
BRANCH  18  19
ATOM     19  C   UNL     1       1.987   6.024   4.189  0.00  0.00    +0.135 C 
BRANCH  19  20
ATOM     20  N   UNL     1       2.966   6.529   5.156  0.00  0.00    -0.298 N 
ATOM     21  C   UNL     1       3.328   5.746   6.205  0.00  0.00    +0.203 A 
ATOM     22  N   UNL     1       4.201   6.158   7.086  0.00  0.00    -0.230 NA
ATOM     23  C   UNL     1       4.755   7.363   6.987  0.00  0.00    +0.116 A 
ATOM     24  C   UNL     1       4.439   8.244   5.941  0.00  0.00    +0.076 A 
ATOM     25  C   UNL     1       3.483   7.760   4.989  0.00  0.00    +0.262 A 
ATOM     26  O   UNL     1       3.145   8.452   4.044  0.00  0.00    -0.267 OA
ATOM     27  C   UNL     1       5.127   9.535   5.962  0.00  0.00    -0.023 A 
ATOM     28  C   UNL     1       5.990   9.752   6.976  0.00  0.00    -0.004 A 
ATOM     29  S   UNL     1       5.939   8.271   7.949  0.00  0.00    -0.073 S 
ATOM     30  C   UNL     1       6.811  10.981   7.221  0.00  0.00    +0.043 C 
ATOM     31  C   UNL     1       6.810  11.828   5.940  0.00  0.00    +0.005 C 
ATOM     32  C   UNL     1       5.370  11.950   5.433  0.00  0.00    +0.005 C 
ATOM     33  C   UNL     1       4.892  10.601   4.895  0.00  0.00    +0.037 C 
ENDBRANCH  19  20
ENDBRANCH  18  19
ENDBRANCH   3  18
TORSDOF 6
