REMARK  Name = ZINC19819466
REMARK  6 active torsions:
REMARK  status: ('A' for Active; 'I' for Inactive)
REMARK    1  A    between atoms: C_1  and  C_2
REMARK    2  A    between atoms: C_11  and  S_13
REMARK    3  A    between atoms: S_13  and  N_16
REMARK    4  A    between atoms: N_16  and  C_17
REMARK    5  A    between atoms: N_23  and  S_26
REMARK    6  A    between atoms: S_26  and  C_29
REMARK                            x       y       z     vdW  Elec       q    Type
REMARK                         _______ _______ _______ _____ _____    ______ ____
ROOT
ATOM      1  S   UNL     1       0.118  -5.085   1.072  0.00  0.00    +0.072 S 
ATOM      2  O   UNL     1       0.658  -6.390   0.914  0.00  0.00    -0.150 OA
ATOM      3  O   UNL     1       0.181  -4.378   2.303  0.00  0.00    -0.150 OA
ENDROOT
BRANCH   1  14
ATOM      4  C   UNL     1      -7.858  -5.903  -1.179  0.00  0.00    +0.109 C 
ATOM      5  C   UNL     1      -6.377  -6.119  -1.006  0.00  0.00    +0.217 C 
ATOM      6  O   UNL     1      -5.838  -7.073  -1.526  0.00  0.00    -0.276 OA
ATOM      7  N   UNL     1      -5.651  -5.252  -0.273  0.00  0.00    -0.271 N 
ATOM      8  C   UNL     1      -6.187  -4.066   0.401  0.00  0.00    +0.118 C 
ATOM      9  C   UNL     1      -4.979  -3.414   1.093  0.00  0.00    +0.056 C 
ATOM     10  C   UNL     1      -3.812  -4.311   0.745  0.00  0.00    -0.023 A 
ATOM     11  C   UNL     1      -4.275  -5.351  -0.045  0.00  0.00    +0.040 A 
ATOM     12  C   UNL     1      -3.371  -6.315  -0.493  0.00  0.00    +0.026 A 
ATOM     13  C   UNL     1      -2.038  -6.231  -0.152  0.00  0.00    +0.030 A 
ATOM     14  C   UNL     1      -1.586  -5.189   0.637  0.00  0.00    +0.109 A 
ATOM     15  C   UNL     1      -2.476  -4.233   1.089  0.00  0.00    +0.034 A 
ENDBRANCH   1  14
BRANCH   1  16
ATOM     16  N   UNL     1       0.855  -4.128  -0.062  0.00  0.00    -0.216 N 
ATOM     17  H   UNL     1       1.632  -4.550  -0.717  0.00  0.00    +0.174 HD
BRANCH  16  18
ATOM     18  C   UNL     1       0.490  -2.786  -0.186  0.00  0.00    +0.050 A 
ATOM     19  C   UNL     1      -0.292  -2.376  -1.259  0.00  0.00    +0.025 A 
ATOM     20  C   UNL     1      -0.651  -1.047  -1.377  0.00  0.00    +0.007 A 
ATOM     21  C   UNL     1      -0.234  -0.126  -0.434  0.00  0.00    -0.023 A 
ATOM     22  C   UNL     1       0.547  -0.522   0.641  0.00  0.00    +0.056 A 
ATOM     23  C   UNL     1       0.908  -1.865   0.760  0.00  0.00    +0.049 A 
ATOM     24  N   UNL     1       0.860   0.554   1.474  0.00  0.00    -0.207 N 
ATOM     25  C   UNL     1       0.261   1.785   0.952  0.00  0.00    +0.136 C 
ATOM     26  C   UNL     1      -0.479   1.362  -0.328  0.00  0.00    +0.058 C 
BRANCH  24  27
ATOM     27  S   UNL     1       1.775   0.453   2.851  0.00  0.00    +0.043 S 
ATOM     28  O   UNL     1       1.337   1.539   3.656  0.00  0.00    -0.155 OA
ATOM     29  O   UNL     1       1.617  -0.888   3.294  0.00  0.00    -0.155 OA
ATOM     30  C   UNL     1       3.480   0.732   2.299  0.00  0.00    +0.218 C 
ENDBRANCH  24  27
ENDBRANCH  16  18
ENDBRANCH   1  16
TORSDOF 4
