REMARK  Name = ZINC38870097
REMARK  2 active torsions:
REMARK  status: ('A' for Active; 'I' for Inactive)
REMARK    1  A    between atoms: C_8  and  C_10
REMARK    2  A    between atoms: C_18  and  C_23
REMARK                            x       y       z     vdW  Elec       q    Type
REMARK                         _______ _______ _______ _____ _____    ______ ____
ROOT
ATOM      1  C   UNL     1       3.799  -3.324  -0.035  0.00  0.00    +0.284 C 
ATOM      2  O   UNL     1       3.251  -3.878   0.903  0.00  0.00    -0.266 OA
ATOM      3  N   UNL     1       5.136  -3.224  -0.067  0.00  0.00    -0.279 N 
ATOM      4  C   UNL     1       5.887  -4.320   0.020  0.00  0.00    +0.036 C 
ATOM      5  C   UNL     1       5.246  -5.639   0.012  0.00  0.00    +0.025 C 
ATOM      6  C   UNL     1       5.987  -6.757   0.099  0.00  0.00    +0.031 C 
ATOM      7  C   UNL     1       7.457  -6.646   0.202  0.00  0.00    +0.084 C 
ATOM      8  N   UNL     1       8.383  -7.556   0.296  0.00  0.00    -0.249 NA
ATOM      9  C   UNL     1       9.691  -6.900   0.371  0.00  0.00    +0.314 C 
ATOM     10  N   UNL     1       9.442  -5.454   0.310  0.00  0.00    -0.213 NA
ATOM     11  C   UNL     1       8.074  -5.301   0.206  0.00  0.00    +0.077 C 
ATOM     12  C   UNL     1       7.288  -4.197   0.112  0.00  0.00    +0.050 C 
ATOM     13  H   UNL     1       5.555  -2.354  -0.153  0.00  0.00    +0.155 HD
ENDROOT
BRANCH   1  21
ATOM     14  C   UNL     1       0.077  -1.191  -4.293  0.00  0.00    +0.001 A 
ATOM     15  C   UNL     1       1.276  -0.796  -4.871  0.00  0.00    +0.004 A 
ATOM     16  C   UNL     1       2.478  -1.065  -4.254  0.00  0.00    +0.047 A 
ATOM     17  C   UNL     1       2.497  -1.738  -3.038  0.00  0.00    +0.136 A 
ATOM     18  C   UNL     1       1.278  -2.135  -2.455  0.00  0.00    +0.021 A 
ATOM     19  C   UNL     1       0.070  -1.854  -3.098  0.00  0.00    +0.011 A 
ATOM     20  C   UNL     1       1.636  -2.806  -1.207  0.00  0.00    +0.063 A 
ATOM     21  C   UNL     1       2.993  -2.764  -1.133  0.00  0.00    +0.191 A 
ATOM     22  O   UNL     1       3.489  -2.133  -2.216  0.00  0.00    -0.450 OA
ENDBRANCH   1  21
BRANCH   9  23
ATOM     23  C   UNL     1      10.562  -7.332  -0.809  0.00  0.00    +0.430 C 
ATOM     24  F   UNL     1       9.921  -7.003  -2.008  0.00  0.00    -0.167 F 
ATOM     25  F   UNL     1      11.796  -6.675  -0.744  0.00  0.00    -0.167 F 
ATOM     26  F   UNL     1      10.768  -8.715  -0.755  0.00  0.00    -0.167 F 
ENDBRANCH   9  23
TORSDOF 2
