REMARK  Name = ZINC67280437
REMARK  3 active torsions:
REMARK  status: ('A' for Active; 'I' for Inactive)
REMARK    1  A    between atoms: C_5  and  C_7
REMARK    2  A    between atoms: N_16  and  C_17
REMARK    3  A    between atoms: C_22  and  N_23
REMARK                            x       y       z     vdW  Elec       q    Type
REMARK                         _______ _______ _______ _____ _____    ______ ____
ROOT
ATOM      1  C   UNL     1      -1.256  -3.965  -1.292  0.00  0.00    +0.168 C 
ATOM      2  C   UNL     1      -0.011  -4.708  -0.792  0.00  0.00    +0.145 C 
ATOM      3  N   UNL     1       1.168  -4.149  -1.474  0.00  0.00    -0.280 N 
ATOM      4  C   UNL     1       1.341  -2.688  -1.468  0.00  0.00    +0.137 C 
ATOM      5  C   UNL     1       0.031  -2.044  -1.935  0.00  0.00    +0.179 C 
ATOM      6  O   UNL     1      -1.051  -2.557  -1.154  0.00  0.00    -0.369 OA
ATOM      7  C   UNL     1       2.062  -4.952  -2.084  0.00  0.00    +0.307 C 
ATOM      8  O   UNL     1       2.977  -4.468  -2.722  0.00  0.00    -0.252 OA
ATOM      9  N   UNL     1       1.942  -6.291  -1.986  0.00  0.00    -0.266 N 
ATOM     10  H   UNL     1       1.178  -6.678  -1.530  0.00  0.00    +0.156 HD
ENDROOT
BRANCH   1  15
ATOM     11  C   UNL     1      -3.939  -4.011   1.364  0.00  0.00    +0.001 A 
ATOM     12  C   UNL     1      -4.647  -5.148   1.024  0.00  0.00    +0.003 A 
ATOM     13  C   UNL     1      -4.259  -5.904  -0.066  0.00  0.00    +0.039 A 
ATOM     14  C   UNL     1      -3.160  -5.521  -0.817  0.00  0.00    +0.129 A 
ATOM     15  C   UNL     1      -2.452  -4.382  -0.475  0.00  0.00    +0.018 A 
ATOM     16  C   UNL     1      -2.842  -3.628   0.615  0.00  0.00    +0.009 A 
ATOM     17  F   UNL     1      -2.780  -6.260  -1.883  0.00  0.00    -0.205 F 
ENDBRANCH   1  15
BRANCH   9  18
ATOM     18  C   UNL     1       2.920  -7.125  -2.546  0.00  0.00    +0.073 A 
ATOM     19  C   UNL     1       3.704  -6.682  -3.603  0.00  0.00    +0.028 A 
ATOM     20  C   UNL     1       4.660  -7.543  -4.123  0.00  0.00    +0.019 A 
ATOM     21  C   UNL     1       4.804  -8.803  -3.580  0.00  0.00    +0.084 A 
ATOM     22  N   UNL     1       4.046  -9.201  -2.575  0.00  0.00    -0.348 N 
ATOM     23  C   UNL     1       3.126  -8.412  -2.044  0.00  0.00    +0.121 A 
ATOM     24  H   UNL     1       4.169 -10.093  -2.213  0.00  0.00    +0.167 HD
BRANCH  23  25
ATOM     25  N   UNL     1       2.353  -8.870  -0.980  0.00  0.00    -0.315 N 
ATOM     26  C   UNL     1       1.038  -9.479  -1.219  0.00  0.00    +0.106 C 
ATOM     27  C   UNL     1       1.000 -10.852  -0.540  0.00  0.00    +0.019 C 
ATOM     28  C   UNL     1       1.361 -10.696   0.939  0.00  0.00    +0.003 C 
ATOM     29  C   UNL     1       2.780 -10.135   1.063  0.00  0.00    +0.019 C 
ATOM     30  C   UNL     1       2.841  -8.760   0.402  0.00  0.00    +0.106 C 
ENDBRANCH  23  25
ENDBRANCH   9  18
TORSDOF 3
