REMARK  Name = ZINC00849987
REMARK  10 active torsions:
REMARK  status: ('A' for Active; 'I' for Inactive)
REMARK    1  A    between atoms: C_1  and  C_2
REMARK    2  A    between atoms: C_5  and  N_8
REMARK    3  A    between atoms: C_11  and  C_13
REMARK    4  A    between atoms: C_14  and  C_22
REMARK    5  A    between atoms: C_16  and  C_20
REMARK    6  A    between atoms: C_17  and  N_19
REMARK    7  A    between atoms: C_25  and  O_30
REMARK    8  A    between atoms: C_26  and  O_28
REMARK    9  A    between atoms: O_28  and  C_29
REMARK   10  A    between atoms: O_30  and  C_31
REMARK                            x       y       z     vdW  Elec       q    Type
REMARK                         _______ _______ _______ _____ _____    ______ ____
ROOT
ATOM      1  N   UNL     1      -8.045   0.383  -1.145  0.00  0.00    -0.200 N 
ATOM      2  C   UNL     1      -7.353  -0.378  -0.269  0.00  0.00    +0.230 A 
ATOM      3  C   UNL     1      -6.873   0.452   0.706  0.00  0.00    +0.050 A 
ATOM      4  C   UNL     1      -7.285   1.745   0.413  0.00  0.00    +0.068 A 
ATOM      5  N   UNL     1      -7.988   1.712  -0.695  0.00  0.00    -0.168 NA
ATOM      6  C   UNL     1      -6.978   2.976   1.227  0.00  0.00    +0.068 C 
ATOM      7  C   UNL     1      -6.045  -0.047   1.862  0.00  0.00    +0.101 C 
ATOM      8  C   UNL     1      -6.128  -1.553   1.885  0.00  0.00    +0.098 C 
ATOM      9  C   UNL     1      -6.640  -2.267   0.858  0.00  0.00    +0.200 C 
ATOM     10  O   UNL     1      -7.125  -1.714  -0.272  0.00  0.00    -0.423 OA
ENDROOT
BRANCH   1  15
ATOM     11  C   UNL     1     -10.705  -1.461  -5.807  0.00  0.00    +0.044 C 
ATOM     12  C   UNL     1      -9.999  -0.971  -4.569  0.00  0.00    -0.050 A 
ATOM     13  C   UNL     1     -10.535   0.072  -3.836  0.00  0.00    +0.005 A 
ATOM     14  C   UNL     1      -9.890   0.523  -2.701  0.00  0.00    +0.028 A 
ATOM     15  C   UNL     1      -8.702  -0.072  -2.297  0.00  0.00    +0.069 A 
ATOM     16  C   UNL     1      -8.163  -1.114  -3.039  0.00  0.00    +0.028 A 
ATOM     17  C   UNL     1      -8.816  -1.565  -4.170  0.00  0.00    +0.005 A 
ENDBRANCH   1  15
BRANCH   7  18
ATOM     18  C   UNL     1      -4.611   0.380   1.683  0.00  0.00    -0.031 A 
ATOM     19  C   UNL     1      -3.904  -0.029   0.568  0.00  0.00    +0.008 A 
ATOM     20  C   UNL     1      -2.590   0.365   0.396  0.00  0.00    +0.050 A 
ATOM     21  C   UNL     1      -1.976   1.163   1.348  0.00  0.00    +0.162 A 
ATOM     22  C   UNL     1      -2.688   1.575   2.470  0.00  0.00    +0.162 A 
ATOM     23  C   UNL     1      -4.006   1.181   2.634  0.00  0.00    +0.054 A 
BRANCH  22  24
ATOM     24  O   UNL     1      -2.092   2.363   3.405  0.00  0.00    -0.491 OA
ATOM     25  C   UNL     1      -2.884   2.748   4.530  0.00  0.00    +0.277 C 
ENDBRANCH  22  24
BRANCH  21  26
ATOM     26  O   UNL     1      -0.682   1.547   1.184  0.00  0.00    -0.491 OA
ATOM     27  C   UNL     1      -0.013   1.086   0.008  0.00  0.00    +0.277 C 
ENDBRANCH  21  26
ENDBRANCH   7  18
BRANCH   9  28
ATOM     28  N   UNL     1      -6.669  -3.635   0.973  0.00  0.00    -0.328 N 
ATOM     29  H   UNL     1      -7.030  -4.174   0.253  0.00  0.00    +0.145 HD
ATOM     30  H   UNL     1      -6.327  -4.061   1.774  0.00  0.00    +0.145 HD
ENDBRANCH   9  28
BRANCH   8  31
ATOM     31  C   UNL     1      -5.647  -2.252   3.039  0.00  0.00    +0.101 C 
ATOM     32  N   UNL     1      -5.265  -2.807   3.953  0.00  0.00    -0.191 NA
ENDBRANCH   8  31
TORSDOF 6
