REMARK  Name = ZINC06252723
REMARK  2 active torsions:
REMARK  status: ('A' for Active; 'I' for Inactive)
REMARK    1  A    between atoms: C_12  and  C_14
REMARK    2  A    between atoms: C_15  and  C_16
REMARK                            x       y       z     vdW  Elec       q    Type
REMARK                         _______ _______ _______ _____ _____    ______ ____
ROOT
ATOM      1  C   UNL     1       6.005   3.171   0.405  0.00  0.00    +0.002 A 
ATOM      2  C   UNL     1       4.949   3.760  -0.267  0.00  0.00    +0.002 A 
ATOM      3  C   UNL     1       3.740   3.098  -0.379  0.00  0.00    +0.025 A 
ATOM      4  C   UNL     1       3.590   1.844   0.186  0.00  0.00    +0.058 A 
ATOM      5  C   UNL     1       4.653   1.249   0.869  0.00  0.00    +0.055 A 
ATOM      6  C   UNL     1       5.861   1.919   0.973  0.00  0.00    +0.025 A 
ATOM      7  N   UNL     1       4.484  -0.017   1.441  0.00  0.00    -0.283 N 
ATOM      8  C   UNL     1       3.428  -0.785   1.113  0.00  0.00    +0.235 C 
ATOM      9  O   UNL     1       3.278  -1.860   1.654  0.00  0.00    -0.274 OA
ATOM     10  C   UNL     1       2.429  -0.325   0.088  0.00  0.00    +0.210 C 
ATOM     11  N   UNL     1       2.377   1.145   0.087  0.00  0.00    -0.257 N 
ATOM     12  C   UNL     1       1.203   1.800   0.000  0.00  0.00    +0.244 C 
ATOM     13  O   UNL     1       1.187   3.015  -0.074  0.00  0.00    -0.270 OA
ATOM     14  H   UNL     1       5.135  -0.344   2.081  0.00  0.00    +0.155 HD
ENDROOT
BRANCH  12  15
ATOM     15  C   UNL     1      -0.012   1.075  -0.005  0.00  0.00    +0.069 C 
ATOM     16  C   UNL     1      -1.196   1.736   0.008  0.00  0.00    +0.020 C 
BRANCH  16  17
ATOM     17  C   UNL     1      -2.413   1.011  -0.003  0.00  0.00    +0.012 A 
ATOM     18  C   UNL     1      -3.718   1.489   0.006  0.00  0.00    +0.015 A 
ATOM     19  C   UNL     1      -4.723   0.555  -0.009  0.00  0.00    +0.008 A 
ATOM     20  C   UNL     1      -4.402  -0.766  -0.032  0.00  0.00    +0.046 A 
ATOM     21  S   UNL     1      -2.669  -0.754  -0.040  0.00  0.00    -0.097 S 
ENDBRANCH  16  17
ENDBRANCH  12  15
TORSDOF 2
