REMARK  Name = ZINC02483860
REMARK  4 active torsions:
REMARK  status: ('A' for Active; 'I' for Inactive)
REMARK    1  A    between atoms: C_3  and  C_6
REMARK    2  A    between atoms: N_11  and  S_12
REMARK    3  A    between atoms: S_12  and  C_15
REMARK    4  A    between atoms: C_18  and  N_21
REMARK                            x       y       z     vdW  Elec       q    Type
REMARK                         _______ _______ _______ _____ _____    ______ ____
ROOT
ATOM      1  C   UNL     1       0.916   5.133   0.019  0.00  0.00    +0.087 A 
ATOM      2  C   UNL     1       2.258   5.394   0.009  0.00  0.00    +0.077 A 
ATOM      3  S   UNL     1       2.250   7.182   0.017  0.00  0.00    -0.059 S 
ATOM      4  C   UNL     1       0.477   7.400   0.034  0.00  0.00    +0.178 A 
ATOM      5  N   UNL     1       0.055   6.149   0.026  0.00  0.00    -0.223 NA
ATOM      6  N   UNL     1      -0.261   8.573   0.046  0.00  0.00    -0.194 N 
ATOM      7  H   UNL     1      -1.230   8.536   0.054  0.00  0.00    +0.176 HD
ENDROOT
BRANCH   1  10
ATOM      8  C   UNL     1      -1.079   1.914   0.017  0.00  0.00    +0.008 A 
ATOM      9  C   UNL     1      -0.863   3.276   0.026  0.00  0.00    +0.017 A 
ATOM     10  C   UNL     1       0.426   3.738   0.017  0.00  0.00    +0.038 A 
ATOM     11  S   UNL     1       1.360   2.217   0.001  0.00  0.00    -0.095 S 
ATOM     12  C   UNL     1      -0.013   1.076   0.008  0.00  0.00    +0.046 A 
ENDBRANCH   1  10
BRANCH   6  13
ATOM     13  S   UNL     1       0.512  10.037   0.047  0.00  0.00    +0.074 S 
ATOM     14  O   UNL     1      -0.503  11.032   0.033  0.00  0.00    -0.150 OA
ATOM     15  O   UNL     1       1.502   9.973   1.064  0.00  0.00    -0.150 OA
BRANCH  13  16
ATOM     16  C   UNL     1       1.371  10.174  -1.485  0.00  0.00    +0.109 A 
ATOM     17  C   UNL     1       2.674   9.724  -1.589  0.00  0.00    +0.031 A 
ATOM     18  C   UNL     1       3.347   9.827  -2.793  0.00  0.00    +0.034 A 
ATOM     19  C   UNL     1       2.720  10.389  -3.889  0.00  0.00    +0.126 A 
ATOM     20  C   UNL     1       1.419  10.843  -3.784  0.00  0.00    +0.034 A 
ATOM     21  C   UNL     1       0.745  10.736  -2.582  0.00  0.00    +0.031 A 
BRANCH  19  22
ATOM     22  N   UNL     1       3.442  10.503  -5.176  0.00  0.00    +0.056 N 
ATOM     23  O   UNL     1       2.890  10.998  -6.142  0.00  0.00    -0.126 OA
ATOM     24  O   UNL     1       4.588  10.103  -5.269  0.00  0.00    -0.126 OA
ENDBRANCH  19  22
ENDBRANCH  13  16
ENDBRANCH   6  13
TORSDOF 4
