REMARK  Name = ZINC18205879
REMARK  5 active torsions:
REMARK  status: ('A' for Active; 'I' for Inactive)
REMARK    1  A    between atoms: C_1  and  C_2
REMARK    2  A    between atoms: C_3  and  N_9
REMARK    3  A    between atoms: C_14  and  C_16
REMARK    4  A    between atoms: C_16  and  C_18
REMARK    5  A    between atoms: N_21  and  C_24
REMARK                            x       y       z     vdW  Elec       q    Type
REMARK                         _______ _______ _______ _____ _____    ______ ____
ROOT
ATOM      1  N   UNL     1      -0.010   0.008  -2.411  0.00  0.00    -0.211 N 
ATOM      2  C   UNL     1       0.940  -0.127  -3.502  0.00  0.00    +0.202 C 
ATOM      3  C   UNL     1       0.923   1.392  -3.926  0.00  0.00    +0.161 C 
ATOM      4  C   UNL     1      -0.455   1.736  -3.731  0.00  0.00    +0.116 C 
ATOM      5  N   UNL     1      -0.885   0.908  -2.776  0.00  0.00    -0.179 NA
ATOM      6  C   UNL     1       2.087   1.489  -4.756  0.00  0.00    +0.238 C 
ATOM      7  O   UNL     1       2.247   2.208  -5.719  0.00  0.00    -0.274 OA
ATOM      8  N   UNL     1       2.986   0.594  -4.226  0.00  0.00    -0.207 N 
ATOM      9  C   UNL     1       2.416  -0.232  -3.264  0.00  0.00    +0.250 C 
ATOM     10  O   UNL     1       2.976  -0.896  -2.419  0.00  0.00    -0.273 OA
ENDROOT
BRANCH   1  13
ATOM     11  C   UNL     1      -0.018   1.503   0.010  0.00  0.00    +0.047 C 
ATOM     12  C   UNL     1       0.002  -0.004   0.002  0.00  0.00    -0.009 A 
ATOM     13  C   UNL     1       0.006  -0.693  -1.205  0.00  0.00    +0.057 A 
ATOM     14  C   UNL     1       0.025  -2.083  -1.208  0.00  0.00    +0.025 A 
ATOM     15  C   UNL     1       0.040  -2.775  -0.012  0.00  0.00    +0.003 A 
ATOM     16  C   UNL     1       0.036  -2.087   1.187  0.00  0.00    +0.020 A 
ATOM     17  C   UNL     1       0.023  -0.702   1.194  0.00  0.00    +0.046 A 
ATOM     18 CL   UNL     1       0.026   0.157   2.703  0.00  0.00    -0.083 Cl
ENDBRANCH   1  13
BRANCH   8  19
ATOM     19  C   UNL     1       4.331   0.516  -4.615  0.00  0.00    +0.062 A 
ATOM     20  C   UNL     1       5.291   1.269  -3.953  0.00  0.00    +0.025 A 
ATOM     21  C   UNL     1       6.615   1.190  -4.337  0.00  0.00    +0.002 A 
ATOM     22  C   UNL     1       6.986   0.363  -5.382  0.00  0.00    +0.002 A 
ATOM     23  C   UNL     1       6.033  -0.388  -6.044  0.00  0.00    +0.022 A 
ATOM     24  C   UNL     1       4.707  -0.319  -5.660  0.00  0.00    +0.063 A 
ATOM     25 CL   UNL     1       3.511  -1.268  -6.487  0.00  0.00    -0.082 Cl
ENDBRANCH   8  19
BRANCH   4  26
ATOM     26  C   UNL     1      -1.195   2.728  -4.402  0.00  0.00    +0.176 C 
ATOM     27  O   UNL     1      -0.664   3.407  -5.258  0.00  0.00    -0.291 OA
ATOM     28  C   UNL     1      -2.646   2.948  -4.059  0.00  0.00    +0.093 C 
ENDBRANCH   4  26
TORSDOF 3
