REMARK  Name = ZINC04990554
REMARK  9 active torsions:
REMARK  status: ('A' for Active; 'I' for Inactive)
REMARK    1  A    between atoms: C_1  and  C_2
REMARK    2  A    between atoms: C_9  and  C_17
REMARK    3  A    between atoms: C_11  and  C_15
REMARK    4  A    between atoms: C_12  and  N_14
REMARK    5  A    between atoms: C_20  and  O_26
REMARK    6  A    between atoms: C_21  and  C_25
REMARK    7  A    between atoms: C_22  and  O_23
REMARK    8  A    between atoms: O_23  and  C_24
REMARK    9  A    between atoms: O_26  and  C_27
REMARK                            x       y       z     vdW  Elec       q    Type
REMARK                         _______ _______ _______ _____ _____    ______ ____
ROOT
ATOM      1  C   UNL     1       5.172  -2.024   1.465  0.00  0.00    +0.086 C 
ATOM      2  C   UNL     1       3.821  -1.480   1.078  0.00  0.00    +0.110 A 
ATOM      3  C   UNL     1       3.720  -0.187   0.718  0.00  0.00    +0.088 A 
ATOM      4  C   UNL     1       2.460   0.338   0.353  0.00  0.00    +0.144 A 
ATOM      5  C   UNL     1       1.368  -0.505   0.380  0.00  0.00    +0.092 A 
ATOM      6  C   UNL     1       1.552  -1.837   0.766  0.00  0.00    +0.345 A 
ATOM      7  O   UNL     1       0.593  -2.592   0.795  0.00  0.00    -0.245 OA
ATOM      8  O   UNL     1       2.764  -2.297   1.106  0.00  0.00    -0.427 OA
ATOM      9  C   UNL     1       0.002  -0.004   0.002  0.00  0.00    +0.108 C 
ATOM     10  C   UNL     1      -0.018   1.499   0.010  0.00  0.00    +0.098 C 
ATOM     11  C   UNL     1       1.129   2.219   0.003  0.00  0.00    +0.199 C 
ATOM     12  O   UNL     1       2.338   1.630  -0.010  0.00  0.00    -0.441 OA
ENDROOT
BRANCH   9  13
ATOM     13  C   UNL     1      -0.348  -0.501  -1.377  0.00  0.00    +0.008 A 
ATOM     14  C   UNL     1       0.438  -0.148  -2.458  0.00  0.00    +0.012 A 
ATOM     15  C   UNL     1       0.120  -0.602  -3.723  0.00  0.00    +0.046 A 
ATOM     16  C   UNL     1      -0.991  -1.413  -3.912  0.00  0.00    +0.126 A 
ATOM     17  C   UNL     1      -1.780  -1.768  -2.829  0.00  0.00    +0.033 A 
ATOM     18  C   UNL     1      -1.456  -1.317  -1.560  0.00  0.00    +0.131 A 
ATOM     19  C   UNL     1      -2.987  -2.648  -3.032  0.00  0.00    +0.051 C 
BRANCH  18  20
ATOM     20  O   UNL     1      -2.224  -1.667  -0.495  0.00  0.00    -0.494 OA
ATOM     21  C   UNL     1      -3.318  -0.806  -0.174  0.00  0.00    +0.277 C 
ENDBRANCH  18  20
BRANCH  16  22
ATOM     22  O   UNL     1      -1.303  -1.860  -5.157  0.00  0.00    -0.495 OA
ATOM     23  C   UNL     1      -0.445  -1.455  -6.226  0.00  0.00    +0.277 C 
ENDBRANCH  16  22
ENDBRANCH   9  13
BRANCH  11  24
ATOM     24  N   UNL     1       1.055   3.589   0.010  0.00  0.00    -0.328 N 
ATOM     25  H   UNL     1       0.191   4.029   0.020  0.00  0.00    +0.145 HD
ATOM     26  H   UNL     1       1.868   4.118   0.005  0.00  0.00    +0.145 HD
ENDBRANCH  11  24
BRANCH  10  27
ATOM     27  C   UNL     1      -1.276   2.184   0.020  0.00  0.00    +0.101 C 
ATOM     28  N   UNL     1      -2.274   2.727   0.028  0.00  0.00    -0.191 NA
ENDBRANCH  10  27
TORSDOF 5
