REMARK  Name = ZINC35571794
REMARK  5 active torsions:
REMARK  status: ('A' for Active; 'I' for Inactive)
REMARK    1  A    between atoms: C_1  and  C_2
REMARK    2  A    between atoms: C_2  and  C_3
REMARK    3  A    between atoms: C_2  and  C_4
REMARK    4  A    between atoms: C_2  and  O_5
REMARK    5  A    between atoms: O_5  and  C_6
REMARK                            x       y       z     vdW  Elec       q    Type
REMARK                         _______ _______ _______ _____ _____    ______ ____
ROOT
ATOM      1  C   UNL     1       1.952  -0.085  -1.337  0.00  0.00    +0.403 C 
ATOM      2  O   UNL     1       2.488   0.619  -0.503  0.00  0.00    -0.226 OA
ATOM      3  N   UNL     1       2.641  -0.485  -2.424  0.00  0.00    -0.266 N 
ATOM      4  C   UNL     1       2.005  -1.331  -3.443  0.00  0.00    +0.111 C 
ATOM      5  C   UNL     1       2.172  -0.663  -4.812  0.00  0.00    +0.020 C 
ATOM      6  C   UNL     1       3.656  -0.386  -5.062  0.00  0.00    +0.019 C 
ATOM      7  C   UNL     1       4.185   0.571  -3.991  0.00  0.00    +0.063 C 
ATOM      8  C   UNL     1       4.039  -0.078  -2.616  0.00  0.00    +0.127 C 
ATOM      9  C   UNL     1       5.665   0.863  -4.258  0.00  0.00    +0.019 C 
ATOM     10  C   UNL     1       6.103   2.015  -3.345  0.00  0.00    +0.020 C 
ATOM     11  C   UNL     1       5.389   3.291  -3.791  0.00  0.00    +0.104 C 
ATOM     12  N   UNL     1       3.955   3.058  -3.911  0.00  0.00    -0.315 N 
ATOM     13  C   UNL     1       3.400   1.851  -4.024  0.00  0.00    +0.221 C 
ATOM     14  O   UNL     1       2.197   1.783  -4.160  0.00  0.00    -0.275 OA
ATOM     15  H   UNL     1       3.368   3.830  -3.909  0.00  0.00    +0.149 HD
ENDROOT
BRANCH   1  16
ATOM     16  O   UNL     1       0.671  -0.465  -1.174  0.00  0.00    -0.445 OA
BRANCH  16  18
ATOM     17  C   UNL     1      -0.019   1.526   0.010  0.00  0.00    +0.055 C 
ATOM     18  C   UNL     1       0.002  -0.004   0.002  0.00  0.00    +0.107 C 
ATOM     19  C   UNL     1       0.742  -0.511   1.242  0.00  0.00    +0.055 C 
ATOM     20  C   UNL     1      -1.433  -0.534   0.013  0.00  0.00    +0.055 C 
ENDBRANCH  16  18
ENDBRANCH   1  16
TORSDOF 2
