REMARK  Name = ZINC39682906
REMARK  8 active torsions:
REMARK  status: ('A' for Active; 'I' for Inactive)
REMARK    1  A    between atoms: C_1  and  O_2
REMARK    2  A    between atoms: O_2  and  C_3
REMARK    3  A    between atoms: C_6  and  O_34
REMARK    4  A    between atoms: C_7  and  C_9
REMARK    5  A    between atoms: C_9  and  N_10
REMARK    6  A    between atoms: C_11  and  C_13
REMARK    7  A    between atoms: C_24  and  C_26
REMARK    8  A    between atoms: O_34  and  C_35
REMARK                            x       y       z     vdW  Elec       q    Type
REMARK                         _______ _______ _______ _____ _____    ______ ____
ROOT
ATOM      1  C   UNL     1       4.277  -6.364  -1.386  0.00  0.00    +0.100 C 
ATOM      2  C   UNL     1       4.572  -5.891   0.055  0.00  0.00    +0.121 C 
ATOM      3  N   UNL     1       4.156  -7.025   0.914  0.00  0.00    -0.296 N 
ATOM      4  C   UNL     1       4.588  -8.231   0.168  0.00  0.00    +0.115 C 
ATOM      5  C   UNL     1       4.292  -7.900  -1.308  0.00  0.00    -0.004 C 
ATOM      6  C   UNL     1       5.388  -8.464  -2.207  0.00  0.00    -0.010 C 
ATOM      7  C   UNL     1       5.346  -9.994  -2.158  0.00  0.00    -0.082 C 
ATOM      8  N   UNL     1       4.029 -10.463  -2.606  0.00  0.00    +0.379 N 
ATOM      9  C   UNL     1       2.989  -9.993  -1.683  0.00  0.00    -0.082 C 
ATOM     10  C   UNL     1       2.932  -8.463  -1.712  0.00  0.00    -0.010 C 
ATOM     11  C   UNL     1       3.527  -6.971   2.105  0.00  0.00    +0.248 C 
ATOM     12  O   UNL     1       3.149  -5.903   2.545  0.00  0.00    -0.270 OA
ATOM     13  H   UNL     1       3.843 -10.105  -3.531  0.00  0.00    -0.086 HD
ATOM     14  H   UNL     1       4.023 -11.472  -2.631  0.00  0.00    -0.086 HD
ENDROOT
BRANCH  11  15
ATOM     15  C   UNL     1       3.296  -8.210   2.874  0.00  0.00    +0.055 A 
ATOM     16  C   UNL     1       4.242  -9.238   2.849  0.00  0.00    +0.016 A 
ATOM     17  C   UNL     1       4.021 -10.392   3.569  0.00  0.00    +0.021 A 
ATOM     18  C   UNL     1       2.864 -10.535   4.318  0.00  0.00    +0.042 A 
ATOM     19  C   UNL     1       1.922  -9.521   4.348  0.00  0.00    +0.040 A 
ATOM     20  C   UNL     1       2.134  -8.357   3.636  0.00  0.00    +0.054 A 
ATOM     21 CL   UNL     1       0.956  -7.083   3.681  0.00  0.00    -0.083 Cl
ATOM     22 CL   UNL     1       2.594 -11.993   5.222  0.00  0.00    -0.083 Cl
ENDBRANCH  11  15
BRANCH   1  24
ATOM     23  N   UNL     1       2.696  -5.614  -3.134  0.00  0.00    -0.311 N 
ATOM     24  C   UNL     1       2.923  -5.875  -1.832  0.00  0.00    +0.218 C 
ATOM     25  O   UNL     1       2.038  -5.715  -1.018  0.00  0.00    -0.275 OA
ATOM     26  H   UNL     1       3.404  -5.741  -3.785  0.00  0.00    +0.149 HD
BRANCH  23  27
ATOM     27  C   UNL     1       1.380  -5.137  -3.568  0.00  0.00    +0.143 C 
BRANCH  27  32
ATOM     28  C   UNL     1       1.553  -3.453  -6.946  0.00  0.00    +0.121 A 
ATOM     29  C   UNL     1       1.406  -4.534  -7.803  0.00  0.00    +0.049 A 
ATOM     30  C   UNL     1       1.251  -5.806  -7.289  0.00  0.00    +0.049 A 
ATOM     31  C   UNL     1       1.242  -6.004  -5.916  0.00  0.00    +0.125 A 
ATOM     32  C   UNL     1       1.390  -4.923  -5.059  0.00  0.00    +0.015 A 
ATOM     33  C   UNL     1       1.550  -3.651  -5.573  0.00  0.00    +0.054 A 
BRANCH  28  35
ATOM     34  C   UNL     1       1.699  -2.070  -8.875  0.00  0.00    +0.277 C 
ATOM     35  O   UNL     1       1.706  -2.200  -7.452  0.00  0.00    -0.495 OA
ENDBRANCH  28  35
BRANCH  31  36
ATOM     36  O   UNL     1       1.089  -7.256  -5.410  0.00  0.00    -0.495 OA
ATOM     37  C   UNL     1       0.942  -8.322  -6.351  0.00  0.00    +0.277 C 
ENDBRANCH  31  36
ENDBRANCH  27  32
ENDBRANCH  23  27
ENDBRANCH   1  24
TORSDOF 6
