REMARK  Name = ZINC12688880
REMARK  5 active torsions:
REMARK  status: ('A' for Active; 'I' for Inactive)
REMARK    1  A    between atoms: C_4  and  C_7
REMARK    2  A    between atoms: C_7  and  C_28
REMARK    3  A    between atoms: N_10  and  N_14
REMARK    4  A    between atoms: C_15  and  C_17
REMARK    5  A    between atoms: C_17  and  N_18
REMARK                            x       y       z     vdW  Elec       q    Type
REMARK                         _______ _______ _______ _____ _____    ______ ____
ROOT
ATOM      1  C   UNL     1       3.711  -0.707  -0.038  0.00  0.00    +0.165 C 
ATOM      2  C   UNL     1       4.277  -0.758   1.368  0.00  0.00    +0.272 C 
ATOM      3  O   UNL     1       3.770  -1.270   2.343  0.00  0.00    -0.270 OA
ATOM      4  N   UNL     1       5.461  -0.117   1.307  0.00  0.00    -0.137 N 
ATOM      5  C   UNL     1       5.719   0.327   0.072  0.00  0.00    +0.327 C 
ATOM      6  O   UNL     1       6.727   0.934  -0.231  0.00  0.00    -0.251 OA
ATOM      7  N   UNL     1       4.739   0.025  -0.798  0.00  0.00    -0.276 N 
ATOM      8  H   UNL     1       4.713   0.246  -1.742  0.00  0.00    +0.152 HD
ENDROOT
BRANCH   1  12
ATOM      9  C   UNL     1       0.004   1.414  -0.091  0.00  0.00    +0.000 A 
ATOM     10  C   UNL     1       0.954   1.658  -1.065  0.00  0.00    +0.000 A 
ATOM     11  C   UNL     1       2.153   0.972  -1.048  0.00  0.00    +0.006 A 
ATOM     12  C   UNL     1       2.404   0.042  -0.056  0.00  0.00    -0.011 A 
ATOM     13  C   UNL     1       1.454  -0.201   0.919  0.00  0.00    +0.006 A 
ATOM     14  C   UNL     1       0.254   0.484   0.901  0.00  0.00    +0.000 A 
ENDBRANCH   1  12
BRANCH   1  15
ATOM     15  C   UNL     1       3.532  -2.097  -0.591  0.00  0.00    -0.011 A 
ATOM     16  C   UNL     1       4.301  -2.520  -1.659  0.00  0.00    +0.006 A 
ATOM     17  C   UNL     1       4.136  -3.796  -2.167  0.00  0.00    +0.000 A 
ATOM     18  C   UNL     1       3.204  -4.648  -1.607  0.00  0.00    +0.000 A 
ATOM     19  C   UNL     1       2.435  -4.225  -0.538  0.00  0.00    +0.000 A 
ATOM     20  C   UNL     1       2.603  -2.951  -0.027  0.00  0.00    +0.006 A 
ENDBRANCH   1  15
BRANCH   4  21
ATOM     21  N   UNL     1       6.316   0.062   2.403  0.00  0.00    -0.223 N 
ATOM     22  C   UNL     1       7.437  -0.677   2.511  0.00  0.00    +0.244 C 
ATOM     23  O   UNL     1       7.706  -1.499   1.660  0.00  0.00    -0.273 OA
ATOM     24  H   UNL     1       6.100   0.719   3.083  0.00  0.00    +0.174 HD
BRANCH  22  25
ATOM     25  C   UNL     1       8.356  -0.484   3.690  0.00  0.00    +0.182 C 
BRANCH  25  26
ATOM     26  N   UNL     1       9.498  -1.402   3.576  0.00  0.00    -0.289 NA
ATOM     27  C   UNL     1      10.303  -1.397   4.808  0.00  0.00    +0.090 C 
ATOM     28  C   UNL     1      11.236  -2.608   4.782  0.00  0.00    +0.051 C 
ATOM     29  C   UNL     1      11.976  -2.660   3.471  0.00  0.00    -0.042 A 
ATOM     30  C   UNL     1      13.111  -3.452   3.382  0.00  0.00    +0.004 A 
ATOM     31  C   UNL     1      13.817  -3.530   2.199  0.00  0.00    +0.000 A 
ATOM     32  C   UNL     1      13.390  -2.816   1.095  0.00  0.00    +0.000 A 
ATOM     33  C   UNL     1      12.261  -2.026   1.182  0.00  0.00    +0.005 A 
ATOM     34  C   UNL     1      11.553  -1.944   2.372  0.00  0.00    -0.030 A 
ATOM     35  C   UNL     1      10.334  -1.060   2.421  0.00  0.00    +0.120 C 
ENDBRANCH  25  26
ENDBRANCH  22  25
ENDBRANCH   4  21
TORSDOF 5
