REMARK  Name = ZINC47674161
REMARK  5 active torsions:
REMARK  status: ('A' for Active; 'I' for Inactive)
REMARK    1  A    between atoms: C_8  and  C_11
REMARK    2  A    between atoms: C_11  and  N_12
REMARK    3  A    between atoms: N_15  and  C_16
REMARK    4  A    between atoms: C_19  and  N_26
REMARK    5  A    between atoms: C_21  and  C_22
REMARK                            x       y       z     vdW  Elec       q    Type
REMARK                         _______ _______ _______ _____ _____    ______ ____
ROOT
ATOM      1  N   UNL     1       5.197  -3.261   0.104  0.00  0.00    -0.296 N 
ATOM      2  C   UNL     1       6.059  -4.165  -0.401  0.00  0.00    +0.304 C 
ATOM      3  O   UNL     1       5.688  -4.949  -1.253  0.00  0.00    -0.253 OA
ATOM      4  N   UNL     1       7.333  -4.200   0.038  0.00  0.00    -0.269 N 
ATOM      5  H   UNL     1       5.492  -2.636   0.784  0.00  0.00    +0.150 HD
ATOM      6  H   UNL     1       7.647  -3.533   0.669  0.00  0.00    +0.156 HD
ENDROOT
BRANCH   4   7
ATOM      7  C   UNL     1       8.204  -5.198  -0.417  0.00  0.00    +0.047 A 
ATOM      8  C   UNL     1       8.102  -5.667  -1.720  0.00  0.00    +0.026 A 
ATOM      9  C   UNL     1       8.960  -6.650  -2.168  0.00  0.00    +0.029 A 
ATOM     10  C   UNL     1       9.925  -7.171  -1.316  0.00  0.00    +0.068 A 
ATOM     11  C   UNL     1      10.027  -6.702  -0.013  0.00  0.00    +0.042 A 
ATOM     12  C   UNL     1       9.172  -5.714   0.433  0.00  0.00    +0.078 A 
BRANCH  10  13
ATOM     13  N   UNL     1      10.797  -8.171  -1.772  0.00  0.00    -0.220 N 
ATOM     14  C   UNL     1      10.887  -8.654  -3.026  0.00  0.00    +0.225 A 
ATOM     15  N   UNL     1      11.819  -9.572  -3.041  0.00  0.00    -0.222 NA
ATOM     16  C   UNL     1      12.344  -9.704  -1.823  0.00  0.00    +0.245 A 
ATOM     17  N   UNL     1      11.754  -8.864  -1.012  0.00  0.00    -0.154 NA
ENDBRANCH  10  13
BRANCH  12  18
ATOM     18  C   UNL     1       9.287  -5.201   1.846  0.00  0.00    +0.419 C 
ATOM     19  F   UNL     1      10.327  -5.869   2.502  0.00  0.00    -0.166 F 
ATOM     20  F   UNL     1       9.555  -3.828   1.823  0.00  0.00    -0.166 F 
ATOM     21  F   UNL     1       8.085  -5.430   2.524  0.00  0.00    -0.166 F 
ENDBRANCH  12  18
ENDBRANCH   4   7
BRANCH   1  22
ATOM     22  C   UNL     1       3.812  -3.224  -0.373  0.00  0.00    +0.150 C 
BRANCH  22  30
ATOM     23  C   UNL     1       0.006   1.409  -0.041  0.00  0.00    +0.000 A 
ATOM     24  C   UNL     1       1.200   2.107  -0.049  0.00  0.00    +0.004 A 
ATOM     25  C   UNL     1       2.403   1.431  -0.061  0.00  0.00    +0.046 A 
ATOM     26  C   UNL     1       2.424   0.038  -0.065  0.00  0.00    +0.124 A 
ATOM     27  C   UNL     1       1.219  -0.651  -0.049  0.00  0.00    -0.002 A 
ATOM     28  C   UNL     1       0.019   0.026  -0.041  0.00  0.00    +0.007 A 
ATOM     29  C   UNL     1       1.554  -2.130  -0.033  0.00  0.00    +0.085 C 
ATOM     30  C   UNL     1       3.051  -2.115   0.357  0.00  0.00    +0.195 C 
ATOM     31  O   UNL     1       3.482  -0.818  -0.088  0.00  0.00    -0.487 OA
ENDBRANCH  22  30
ENDBRANCH   1  22
TORSDOF 5
