REMARK  Name = ZINC24756491
REMARK  2 active torsions:
REMARK  status: ('A' for Active; 'I' for Inactive)
REMARK    1  A    between atoms: C_5  and  N_7
REMARK    2  A    between atoms: C_18  and  C_20
REMARK                            x       y       z     vdW  Elec       q    Type
REMARK                         _______ _______ _______ _____ _____    ______ ____
ROOT
ATOM      1  N   UNL     1       1.659  -1.648   2.853  0.00  0.00    -0.267 N 
ATOM      2  C   UNL     1       0.699  -1.158   2.044  0.00  0.00    +0.307 C 
ATOM      3  O   UNL     1      -0.473  -1.358   2.300  0.00  0.00    -0.252 OA
ATOM      4  N   UNL     1       1.038  -0.447   0.950  0.00  0.00    -0.273 N 
ATOM      5  C   UNL     1       0.007  -0.007  -0.002  0.00  0.00    +0.115 C 
ATOM      6  C   UNL     1      -0.046   1.528   0.019  0.00  0.00    +0.062 C 
ATOM      7  C   UNL     1       1.351   2.055   0.033  0.00  0.00    -0.003 A 
ATOM      8  C   UNL     1       2.497   1.382   0.326  0.00  0.00    -0.012 A 
ATOM      9  C   UNL     1       3.683   2.112   0.271  0.00  0.00    +0.013 A 
ATOM     10  C   UNL     1       3.657   3.421  -0.065  0.00  0.00    +0.046 A 
ATOM     11  S   UNL     1       1.912   3.699  -0.327  0.00  0.00    -0.101 S 
ATOM     12  C   UNL     1       2.442  -0.100   0.692  0.00  0.00    +0.145 C 
ATOM     13  H   UNL     1       2.716  -1.412   2.658  0.00  0.00    +0.156 HD
ENDROOT
BRANCH   1  18
ATOM     14  C   UNL     1      -0.288  -3.146   5.591  0.00  0.00    +0.002 A 
ATOM     15  C   UNL     1       0.623  -4.056   6.094  0.00  0.00    +0.003 A 
ATOM     16  C   UNL     1       1.878  -4.170   5.525  0.00  0.00    +0.040 A 
ATOM     17  C   UNL     1       2.224  -3.377   4.446  0.00  0.00    +0.145 A 
ATOM     18  C   UNL     1       1.311  -2.457   3.942  0.00  0.00    +0.070 A 
ATOM     19  C   UNL     1       0.053  -2.346   4.517  0.00  0.00    +0.026 A 
ATOM     20  F   UNL     1       3.448  -3.492   3.887  0.00  0.00    -0.204 F 
ENDBRANCH   1  18
BRANCH  12  21
ATOM     21  C   UNL     1       2.970  -0.928  -0.451  0.00  0.00    +0.015 A 
ATOM     22  C   UNL     1       4.186  -1.512  -0.591  0.00  0.00    +0.013 A 
ATOM     23  C   UNL     1       4.454  -2.234  -1.739  0.00  0.00    +0.008 A 
ATOM     24  C   UNL     1       3.494  -2.336  -2.690  0.00  0.00    +0.045 A 
ATOM     25  S   UNL     1       2.156  -1.400  -1.968  0.00  0.00    -0.099 S 
ENDBRANCH  12  21
TORSDOF 2
