REMARK  Name = ZINC14456386
REMARK  4 active torsions:
REMARK  status: ('A' for Active; 'I' for Inactive)
REMARK    1  A    between atoms: C_1  and  C_2
REMARK    2  A    between atoms: C_5  and  N_24
REMARK    3  A    between atoms: C_9  and  C_18
REMARK    4  A    between atoms: C_21  and  C_23
REMARK                            x       y       z     vdW  Elec       q    Type
REMARK                         _______ _______ _______ _____ _____    ______ ____
ROOT
ATOM      1  C   UNL     1      -5.353  -1.109   3.685  0.00  0.00    +0.045 C 
ATOM      2  C   UNL     1      -3.938  -1.392   4.122  0.00  0.00    -0.029 A 
ATOM      3  C   UNL     1      -3.405  -2.652   3.947  0.00  0.00    +0.007 A 
ATOM      4  C   UNL     1      -2.108  -2.912   4.349  0.00  0.00    +0.033 A 
ATOM      5  C   UNL     1      -1.350  -1.911   4.922  0.00  0.00    +0.132 A 
ATOM      6  C   UNL     1      -1.876  -0.639   5.100  0.00  0.00    +0.011 A 
ATOM      7  C   UNL     1      -3.175  -0.379   4.699  0.00  0.00    +0.037 A 
ATOM      8  N   UNL     1      -3.763   0.876   4.854  0.00  0.00    -0.336 N 
ATOM      9  C   UNL     1      -2.771   1.952   4.880  0.00  0.00    +0.112 C 
ATOM     10  C   UNL     1      -1.780   1.703   6.018  0.00  0.00    +0.029 C 
ATOM     11  C   UNL     1      -0.998   0.404   5.725  0.00  0.00    +0.051 C 
ATOM     12  C   UNL     1       0.086   0.835   4.764  0.00  0.00    -0.023 C 
ATOM     13  C   UNL     1       0.287   2.126   4.848  0.00  0.00    -0.030 C 
ATOM     14  C   UNL     1      -0.631   2.742   5.885  0.00  0.00    +0.033 C 
ATOM     15  H   UNL     1      -4.347   0.903   5.677  0.00  0.00    +0.147 HD
ENDROOT
BRANCH   9  16
ATOM     16  C   UNL     1      -2.031   1.984   3.567  0.00  0.00    +0.010 A 
ATOM     17  C   UNL     1      -1.632   3.055   2.839  0.00  0.00    +0.013 A 
ATOM     18  C   UNL     1      -0.954   2.844   1.653  0.00  0.00    +0.011 A 
ATOM     19  C   UNL     1      -0.718   1.572   1.248  0.00  0.00    -0.013 A 
ATOM     20  S   UNL     1      -1.453   0.622   2.568  0.00  0.00    -0.097 S 
ATOM     21  C   UNL     1      -0.013   1.086   0.008  0.00  0.00    +0.051 C 
ENDBRANCH   9  16
BRANCH   5  22
ATOM     22  N   UNL     1       0.037  -2.198   5.351  0.00  0.00    +0.057 N 
ATOM     23  O   UNL     1       0.504  -3.312   5.197  0.00  0.00    -0.126 OA
ATOM     24  O   UNL     1       0.712  -1.319   5.856  0.00  0.00    -0.126 OA
ENDBRANCH   5  22
TORSDOF 2
