REMARK  Name = ZINC51675179
REMARK  6 active torsions:
REMARK  status: ('A' for Active; 'I' for Inactive)
REMARK    1  A    between atoms: C_4  and  C_7
REMARK    2  A    between atoms: C_7  and  C_9
REMARK    3  A    between atoms: C_7  and  N_26
REMARK    4  A    between atoms: C_9  and  N_10
REMARK    5  A    between atoms: C_17  and  C_20
REMARK    6  A    between atoms: N_22  and  C_23
REMARK                            x       y       z     vdW  Elec       q    Type
REMARK                         _______ _______ _______ _____ _____    ______ ____
ROOT
ATOM      1  N   UNL     1       5.186  -2.000   1.230  0.00  0.00    -0.300 N 
ATOM      2  C   UNL     1       5.578  -2.575   2.385  0.00  0.00    +0.302 C 
ATOM      3  O   UNL     1       5.048  -2.257   3.432  0.00  0.00    -0.253 OA
ATOM      4  N   UNL     1       6.556  -3.501   2.378  0.00  0.00    -0.285 N 
ATOM      5  C   UNL     1       7.282  -3.816   1.139  0.00  0.00    +0.109 C 
ATOM      6  C   UNL     1       7.215  -5.327   0.899  0.00  0.00    +0.020 C 
ATOM      7  C   UNL     1       7.737  -6.060   2.136  0.00  0.00    +0.016 C 
ATOM      8  C   UNL     1       6.856  -5.723   3.341  0.00  0.00    +0.092 C 
ATOM      9  C   UNL     1       6.922  -4.212   3.611  0.00  0.00    +0.122 C 
ATOM     10  H   UNL     1       5.653  -2.203   0.404  0.00  0.00    +0.150 HD
ENDROOT
BRANCH   8  11
ATOM     11  C   UNL     1       7.351  -6.471   4.552  0.00  0.00    +0.218 C 
ATOM     12  O   UNL     1       8.315  -7.202   4.461  0.00  0.00    -0.275 OA
ATOM     13  N   UNL     1       6.724  -6.328   5.736  0.00  0.00    -0.312 N 
ATOM     14  H   UNL     1       5.953  -5.744   5.809  0.00  0.00    +0.149 HD
BRANCH  13  15
ATOM     15  C   UNL     1       7.205  -7.056   6.913  0.00  0.00    +0.073 C 
ATOM     16  C   UNL     1       6.159  -7.721   7.809  0.00  0.00    +0.024 C 
ATOM     17  C   UNL     1       6.888  -6.464   8.288  0.00  0.00    +0.024 C 
ENDBRANCH  13  15
ENDBRANCH   8  11
BRANCH   1  18
ATOM     18  C   UNL     1       4.056  -1.068   1.222  0.00  0.00    +0.095 C 
BRANCH  18  19
ATOM     19  C   UNL     1       3.744  -0.656  -0.218  0.00  0.00    -0.020 C 
BRANCH  19  23
ATOM     20  C   UNL     1       7.030   1.562  -1.810  0.00  0.00    +0.000 A 
ATOM     21  C   UNL     1       6.883   0.223  -2.123  0.00  0.00    +0.000 A 
ATOM     22  C   UNL     1       5.820  -0.494  -1.607  0.00  0.00    +0.002 A 
ATOM     23  C   UNL     1       4.904   0.126  -0.779  0.00  0.00    -0.059 A 
ATOM     24  C   UNL     1       5.051   1.464  -0.465  0.00  0.00    +0.002 A 
ATOM     25  C   UNL     1       6.113   2.182  -0.982  0.00  0.00    +0.000 A 
ENDBRANCH  19  23
BRANCH  19  26
ATOM     26  N   UNL     1       2.535   0.178  -0.238  0.00  0.00    +0.385 N 
ATOM     27  C   UNL     1       2.130   0.459  -1.639  0.00  0.00    -0.078 C 
ATOM     28  C   UNL     1       0.628   0.817  -1.509  0.00  0.00    -0.020 C 
ATOM     29  C   UNL     1       0.136  -0.152  -0.410  0.00  0.00    -0.020 C 
ATOM     30  C   UNL     1       1.402  -0.552   0.370  0.00  0.00    -0.078 C 
ATOM     31  H   UNL     1       2.700   1.041   0.257  0.00  0.00    -0.081 HD
ENDBRANCH  19  26
ENDBRANCH  18  19
ENDBRANCH   1  18
TORSDOF 6
