REMARK  Name = ZINC27217958
REMARK  8 active torsions:
REMARK  status: ('A' for Active; 'I' for Inactive)
REMARK    1  A    between atoms: C_1  and  C_2
REMARK    2  A    between atoms: C_3  and  N_11
REMARK    3  A    between atoms: C_7  and  N_8
REMARK    4  A    between atoms: C_12  and  C_14
REMARK    5  A    between atoms: C_14  and  C_16
REMARK    6  A    between atoms: C_14  and  N_17
REMARK    7  A    between atoms: N_20  and  C_23
REMARK    8  A    between atoms: C_23  and  C_24
REMARK                            x       y       z     vdW  Elec       q    Type
REMARK                         _______ _______ _______ _____ _____    ______ ____
ROOT
ATOM      1  C   UNL     1       1.492  -1.825  -0.179  0.00  0.00    +0.017 C 
ATOM      2  C   UNL     1       0.822  -2.272  -1.479  0.00  0.00    -0.004 C 
ENDROOT
BRANCH   1   3
ATOM      3  N   UNL     1       2.904  -2.231  -0.191  0.00  0.00    +0.389 N 
ATOM      4  C   UNL     1       3.611  -1.645  -1.338  0.00  0.00    -0.062 C 
ATOM      5  C   UNL     1       5.091  -2.026  -1.271  0.00  0.00    +0.066 C 
ATOM      6  N   UNL     1       5.218  -3.491  -1.269  0.00  0.00    -0.301 NA
ATOM      7  C   UNL     1       4.511  -4.076  -0.121  0.00  0.00    +0.066 C 
ATOM      8  C   UNL     1       3.031  -3.695  -0.189  0.00  0.00    -0.062 C 
ATOM      9  H   UNL     1       3.372  -1.848   0.728  0.00  0.00    -0.081 HD
BRANCH   6  10
ATOM     10  C   UNL     1       6.630  -3.897  -1.281  0.00  0.00    +0.126 C 
BRANCH  10  11
ATOM     11  C   UNL     1       7.259  -3.487  -2.587  0.00  0.00    +0.004 A 
ATOM     12  C   UNL     1       7.881  -2.326  -2.908  0.00  0.00    +0.012 A 
ATOM     13  C   UNL     1       8.393  -2.170  -4.183  0.00  0.00    +0.008 A 
ATOM     14  C   UNL     1       8.248  -3.178  -5.078  0.00  0.00    +0.045 A 
ATOM     15  S   UNL     1       7.373  -4.402  -4.116  0.00  0.00    -0.100 S 
ENDBRANCH  10  11
ENDBRANCH   6  10
ENDBRANCH   1   3
BRANCH   1  17
ATOM     16  N   UNL     1       0.197   0.277  -0.026  0.00  0.00    -0.287 N 
ATOM     17  C   UNL     1       1.402  -0.325  -0.057  0.00  0.00    +0.203 C 
ATOM     18  O   UNL     1       2.414   0.340   0.013  0.00  0.00    -0.277 OA
ATOM     19  H   UNL     1      -0.721  -0.329  -0.024  0.00  0.00    +0.155 HD
BRANCH  16  22
ATOM     20  C   UNL     1      -1.966   1.523  -1.393  0.00  0.00    +0.048 C 
ATOM     21  C   UNL     1      -0.926   2.322  -0.650  0.00  0.00    +0.001 A 
ATOM     22  C   UNL     1       0.113   1.673   0.004  0.00  0.00    +0.038 A 
ATOM     23  C   UNL     1       1.072   2.414   0.682  0.00  0.00    +0.024 A 
ATOM     24  C   UNL     1       0.986   3.792   0.710  0.00  0.00    +0.004 A 
ATOM     25  C   UNL     1      -0.053   4.435   0.063  0.00  0.00    +0.033 A 
ATOM     26  C   UNL     1      -1.010   3.700  -0.613  0.00  0.00    +0.131 A 
BRANCH  26  27
ATOM     27  N   UNL     1      -2.121   4.392  -1.304  0.00  0.00    +0.057 N 
ATOM     28  O   UNL     1      -1.922   5.456  -1.864  0.00  0.00    -0.126 OA
ATOM     29  O   UNL     1      -3.234   3.898  -1.313  0.00  0.00    -0.126 OA
ENDBRANCH  26  27
ENDBRANCH  16  22
ENDBRANCH   1  17
TORSDOF 6
