REMARK  Name = ZINC20798751
REMARK  6 active torsions:
REMARK  status: ('A' for Active; 'I' for Inactive)
REMARK    1  A    between atoms: C_1  and  C_2
REMARK    2  A    between atoms: C_2  and  O_3
REMARK    3  A    between atoms: O_3  and  C_4
REMARK    4  A    between atoms: C_4  and  C_6
REMARK    5  A    between atoms: N_9  and  C_12
REMARK    6  A    between atoms: N_17  and  C_20
REMARK                            x       y       z     vdW  Elec       q    Type
REMARK                         _______ _______ _______ _____ _____    ______ ____
ROOT
ATOM      1  C   UNL     1      -6.154  -4.758   1.477  0.00  0.00    +0.153 C 
ATOM      2  C   UNL     1      -5.967  -6.278   1.662  0.00  0.00    +0.125 C 
ATOM      3  C   UNL     1      -6.705  -6.872   0.482  0.00  0.00    +0.228 C 
ATOM      4  O   UNL     1      -6.808  -8.056   0.242  0.00  0.00    -0.275 OA
ATOM      5  N   UNL     1      -7.225  -5.883  -0.255  0.00  0.00    -0.208 N 
ATOM      6  C   UNL     1      -6.979  -4.650   0.213  0.00  0.00    +0.244 C 
ATOM      7  O   UNL     1      -7.354  -3.615  -0.293  0.00  0.00    -0.273 OA
ENDROOT
BRANCH   5   8
ATOM      8  C   UNL     1      -7.969  -6.116  -1.421  0.00  0.00    +0.064 A 
ATOM      9  C   UNL     1      -9.347  -6.270  -1.347  0.00  0.00    +0.045 A 
ATOM     10  C   UNL     1     -10.077  -6.499  -2.498  0.00  0.00    +0.043 A 
ATOM     11  C   UNL     1      -9.437  -6.576  -3.723  0.00  0.00    +0.021 A 
ATOM     12  C   UNL     1      -8.065  -6.423  -3.799  0.00  0.00    +0.023 A 
ATOM     13  C   UNL     1      -7.329  -6.188  -2.652  0.00  0.00    +0.063 A 
ATOM     14 CL   UNL     1      -5.607  -5.990  -2.749  0.00  0.00    -0.082 Cl
ATOM     15 CL   UNL     1     -11.800  -6.691  -2.408  0.00  0.00    -0.083 Cl
ENDBRANCH   5   8
BRANCH   1  19
ATOM     16  C   UNL     1      -2.881  -2.427   0.017  0.00  0.00    +0.100 C 
ATOM     17  C   UNL     1      -3.621  -1.979   1.280  0.00  0.00    +0.030 C 
ATOM     18  C   UNL     1      -5.003  -2.634   1.315  0.00  0.00    +0.086 C 
ATOM     19  N   UNL     1      -4.854  -4.095   1.305  0.00  0.00    -0.291 NA
ATOM     20  C   UNL     1      -4.188  -4.553   0.079  0.00  0.00    +0.086 C 
ATOM     21  C   UNL     1      -2.781  -3.954   0.007  0.00  0.00    +0.030 C 
BRANCH  16  22
ATOM     22  C   UNL     1      -1.496  -1.832   0.006  0.00  0.00    +0.310 C 
ATOM     23  O   UNL     1      -0.528  -2.555  -0.007  0.00  0.00    -0.251 OA
BRANCH  22  24
ATOM     24  O   UNL     1      -1.339  -0.499   0.012  0.00  0.00    -0.465 OA
BRANCH  24  26
ATOM     25  C   UNL     1      -0.019   1.526   0.010  0.00  0.00    +0.048 C 
ATOM     26  C   UNL     1       0.002  -0.004   0.002  0.00  0.00    +0.229 C 
ENDBRANCH  24  26
ENDBRANCH  22  24
ENDBRANCH  16  22
ENDBRANCH   1  19
TORSDOF 5
