REMARK  Name = ZINC44457906
REMARK  4 active torsions:
REMARK  status: ('A' for Active; 'I' for Inactive)
REMARK    1  A    between atoms: C_1  and  C_2
REMARK    2  A    between atoms: C_8  and  N_10
REMARK    3  A    between atoms: C_11  and  C_13
REMARK    4  A    between atoms: N_21  and  C_22
REMARK                            x       y       z     vdW  Elec       q    Type
REMARK                         _______ _______ _______ _____ _____    ______ ____
ROOT
ATOM      1  C   UNL     1       4.207   0.645   2.380  0.00  0.00    +0.078 C 
ATOM      2  C   UNL     1       5.087  -0.281   1.537  0.00  0.00    +0.032 C 
ATOM      3  C   UNL     1       6.515   0.272   1.499  0.00  0.00    +0.110 C 
ATOM      4  N   UNL     1       6.986   0.462   2.878  0.00  0.00    -0.286 N 
ATOM      5  C   UNL     1       6.168   1.261   3.800  0.00  0.00    +0.110 C 
ATOM      6  C   UNL     1       4.744   0.697   3.812  0.00  0.00    +0.032 C 
ATOM      7  C   UNL     1       8.146  -0.088   3.289  0.00  0.00    +0.302 C 
ATOM      8  O   UNL     1       8.570   0.150   4.403  0.00  0.00    -0.253 OA
ATOM      9  N   UNL     1       8.835  -0.903   2.465  0.00  0.00    -0.296 N 
ATOM     10  H   UNL     1       8.535  -1.035   1.552  0.00  0.00    +0.151 HD
ENDROOT
BRANCH   1  12
ATOM     11  N   UNL     1       2.115  -0.011   1.235  0.00  0.00    -0.312 N 
ATOM     12  C   UNL     1       2.794   0.122   2.391  0.00  0.00    +0.216 C 
ATOM     13  O   UNL     1       2.268  -0.180   3.442  0.00  0.00    -0.276 OA
ATOM     14  H   UNL     1       2.536   0.231   0.395  0.00  0.00    +0.149 HD
BRANCH  11  21
ATOM     15  C   UNL     1      -0.022   1.516   0.015  0.00  0.00    +0.009 C 
ATOM     16  C   UNL     1       0.000  -0.013   0.007  0.00  0.00    +0.006 C 
ATOM     17  C   UNL     1      -1.435  -0.544   0.019  0.00  0.00    +0.005 C 
ATOM     18  C   UNL     1      -1.413  -2.074   0.011  0.00  0.00    +0.000 C 
ATOM     19  C   UNL     1      -0.671  -2.580   1.250  0.00  0.00    +0.002 C 
ATOM     20  C   UNL     1       0.764  -2.049   1.238  0.00  0.00    +0.022 C 
ATOM     21  C   UNL     1       0.741  -0.519   1.246  0.00  0.00    +0.076 C 
ENDBRANCH  11  21
ENDBRANCH   1  12
BRANCH   9  22
ATOM     22  C   UNL     1      10.035  -1.588   2.949  0.00  0.00    +0.075 C 
ATOM     23  C   UNL     1      11.255  -1.615   2.025  0.00  0.00    +0.024 C 
ATOM     24  C   UNL     1      10.437  -2.888   2.250  0.00  0.00    +0.024 C 
ENDBRANCH   9  22
TORSDOF 3
