REMARK  Name = ZINC52635392
REMARK  7 active torsions:
REMARK  status: ('A' for Active; 'I' for Inactive)
REMARK    1  A    between atoms: C_1  and  C_2
REMARK    2  A    between atoms: C_2  and  C_4
REMARK    3  A    between atoms: C_2  and  N_15
REMARK    4  A    between atoms: N_9  and  C_10
REMARK    5  A    between atoms: N_15  and  C_16
REMARK    6  A    between atoms: C_21  and  O_22
REMARK    7  A    between atoms: O_22  and  C_23
REMARK                            x       y       z     vdW  Elec       q    Type
REMARK                         _______ _______ _______ _____ _____    ______ ____
ROOT
ATOM      1  C   UNL     1      -0.019   1.526   0.010  0.00  0.00    +0.038 C 
ATOM      2  C   UNL     1       0.002  -0.004   0.002  0.00  0.00    +0.154 C 
ENDROOT
BRANCH   2   3
ATOM      3  C   UNL     1       0.731  -0.503   1.223  0.00  0.00    +0.240 C 
ATOM      4  O   UNL     1       1.725  -1.186   1.099  0.00  0.00    -0.273 OA
ATOM      5  N   UNL     1       0.278  -0.191   2.453  0.00  0.00    -0.239 N 
ATOM      6  C   UNL     1       0.930  -0.637   3.545  0.00  0.00    +0.306 C 
ATOM      7  O   UNL     1       1.926  -1.322   3.420  0.00  0.00    -0.252 OA
ATOM      8  N   UNL     1       0.476  -0.324   4.775  0.00  0.00    -0.296 N 
ATOM      9  H   UNL     1      -0.517   0.356   2.553  0.00  0.00    +0.159 HD
ATOM     10  H   UNL     1      -0.319   0.222   4.875  0.00  0.00    +0.151 HD
BRANCH   8  11
ATOM     11  C   UNL     1       1.185  -0.810   5.962  0.00  0.00    +0.074 C 
ATOM     12  C   UNL     1       0.657  -2.204   6.359  0.00  0.00    +0.022 C 
ATOM     13  C   UNL     1       0.670  -2.187   7.908  0.00  0.00    +0.002 C 
ATOM     14  C   UNL     1       0.227  -0.740   8.238  0.00  0.00    +0.002 C 
ATOM     15  C   UNL     1       0.911   0.121   7.157  0.00  0.00    +0.022 C 
ENDBRANCH   8  11
ENDBRANCH   2   3
BRANCH   2  16
ATOM     16  N   UNL     1       0.688  -0.476  -1.203  0.00  0.00    -0.330 N 
ATOM     17  H   UNL     1       1.632  -0.695  -1.170  0.00  0.00    +0.147 HD
BRANCH  16  18
ATOM     18  C   UNL     1      -0.020  -0.613  -2.403  0.00  0.00    +0.071 A 
ATOM     19  C   UNL     1      -1.370  -0.296  -2.454  0.00  0.00    +0.046 A 
ATOM     20  C   UNL     1      -2.067  -0.432  -3.641  0.00  0.00    +0.043 A 
ATOM     21  C   UNL     1      -1.421  -0.883  -4.778  0.00  0.00    +0.024 A 
ATOM     22  C   UNL     1      -0.076  -1.201  -4.734  0.00  0.00    +0.049 A 
ATOM     23  C   UNL     1       0.630  -1.062  -3.550  0.00  0.00    +0.141 A 
ATOM     24 CL   UNL     1      -3.756  -0.036  -3.704  0.00  0.00    -0.083 Cl
BRANCH  23  25
ATOM     25  O   UNL     1       1.955  -1.369  -3.507  0.00  0.00    -0.493 OA
ATOM     26  C   UNL     1       2.556  -1.824  -4.721  0.00  0.00    +0.277 C 
ENDBRANCH  23  25
ENDBRANCH  16  18
ENDBRANCH   2  16
TORSDOF 5
