REMARK  Name = ZINC01410424
REMARK  7 active torsions:
REMARK  status: ('A' for Active; 'I' for Inactive)
REMARK    1  A    between atoms: C_1  and  C_2
REMARK    2  A    between atoms: C_4  and  C_14
REMARK    3  A    between atoms: C_5  and  C_13
REMARK    4  A    between atoms: N_6  and  C_7
REMARK    5  A    between atoms: N_18  and  C_22
REMARK    6  A    between atoms: C_22  and  C_23
REMARK    7  A    between atoms: C_28  and  N_29
REMARK                            x       y       z     vdW  Elec       q    Type
REMARK                         _______ _______ _______ _____ _____    ______ ____
ROOT
ATOM      1  C   UNL     1       1.719   3.101  -0.092  0.00  0.00    +0.030 C 
ATOM      2  C   UNL     1       3.039   3.396   0.041  0.00  0.00    +0.080 C 
ATOM      3  C   UNL     1       4.206   2.496   0.052  0.00  0.00    +0.261 C 
ATOM      4  O   UNL     1       4.084   1.291  -0.067  0.00  0.00    -0.269 OA
ATOM      5  N   UNL     1       5.392   3.063   0.195  0.00  0.00    -0.224 N 
ATOM      6  C   UNL     1       5.522   4.398   0.334  0.00  0.00    +0.286 C 
ATOM      7  O   UNL     1       6.541   5.048   0.477  0.00  0.00    -0.262 OA
ATOM      8  S   UNL     1       3.836   4.981   0.256  0.00  0.00    -0.026 S 
ENDROOT
BRANCH   1  12
ATOM      9  C   UNL     1       1.392  -1.894   0.876  0.00  0.00    +0.064 C 
ATOM     10  C   UNL     1       1.148  -0.507   0.341  0.00  0.00    +0.022 A 
ATOM     11  C   UNL     1       1.869   0.585   0.648  0.00  0.00    +0.031 A 
ATOM     12  C   UNL     1       1.278   1.702  -0.099  0.00  0.00    -0.003 A 
ATOM     13  C   UNL     1       0.222   1.168  -0.811  0.00  0.00    +0.028 A 
ATOM     14  N   UNL     1       0.158  -0.159  -0.535  0.00  0.00    -0.317 N 
ATOM     15  C   UNL     1      -0.695   1.925  -1.737  0.00  0.00    +0.064 C 
BRANCH  14  16
ATOM     16  C   UNL     1      -0.786  -1.045  -1.071  0.00  0.00    +0.047 A 
ATOM     17  C   UNL     1      -2.131  -0.901  -0.759  0.00  0.00    +0.026 A 
ATOM     18  C   UNL     1      -3.059  -1.774  -1.293  0.00  0.00    +0.002 A 
ATOM     19  C   UNL     1      -2.649  -2.796  -2.129  0.00  0.00    +0.000 A 
ATOM     20  C   UNL     1      -1.310  -2.945  -2.438  0.00  0.00    +0.002 A 
ATOM     21  C   UNL     1      -0.377  -2.072  -1.912  0.00  0.00    +0.026 A 
ENDBRANCH  14  16
ENDBRANCH   1  12
BRANCH   5  22
ATOM     22  C   UNL     1       6.591   2.221   0.209  0.00  0.00    +0.155 C 
BRANCH  22  23
ATOM     23  C   UNL     1       6.858   1.752   1.616  0.00  0.00    +0.001 A 
ATOM     24  C   UNL     1       6.082   2.220   2.660  0.00  0.00    +0.007 A 
ATOM     25  C   UNL     1       6.324   1.785   3.950  0.00  0.00    +0.000 A 
ATOM     26  C   UNL     1       7.349   0.891   4.197  0.00  0.00    +0.002 A 
ATOM     27  C   UNL     1       8.128   0.426   3.154  0.00  0.00    +0.033 A 
ATOM     28  C   UNL     1       7.882   0.857   1.863  0.00  0.00    +0.131 A 
BRANCH  28  29
ATOM     29  N   UNL     1       8.717   0.360   0.746  0.00  0.00    +0.057 N 
ATOM     30  O   UNL     1       9.549  -0.506   0.946  0.00  0.00    -0.126 OA
ATOM     31  O   UNL     1       8.571   0.818  -0.373  0.00  0.00    -0.126 OA
ENDBRANCH  28  29
ENDBRANCH  22  23
ENDBRANCH   5  22
TORSDOF 5
