REMARK  Name = ZINC51205320
REMARK  7 active torsions:
REMARK  status: ('A' for Active; 'I' for Inactive)
REMARK    1  A    between atoms: C_1  and  C_2
REMARK    2  A    between atoms: C_4  and  C_28
REMARK    3  A    between atoms: C_5  and  S_9
REMARK    4  A    between atoms: C_6  and  C_8
REMARK    5  A    between atoms: S_9  and  N_12
REMARK    6  A    between atoms: N_12  and  C_13
REMARK    7  A    between atoms: C_14  and  C_16
REMARK                            x       y       z     vdW  Elec       q    Type
REMARK                         _______ _______ _______ _____ _____    ______ ____
ROOT
ATOM      1  N   UNL     1      -0.054  -3.874   0.090  0.00  0.00    -0.174 N 
ATOM      2  C   UNL     1       0.508  -3.337   1.332  0.00  0.00    +0.160 C 
ATOM      3  C   UNL     1       0.743  -4.076  -0.978  0.00  0.00    +0.242 C 
ATOM      4  O   UNL     1       0.263  -4.428  -2.034  0.00  0.00    -0.273 OA
ENDROOT
BRANCH   3   5
ATOM      5  C   UNL     1       2.230  -3.863  -0.859  0.00  0.00    +0.117 C 
ATOM      6  C   UNL     1       2.856  -5.045  -0.119  0.00  0.00    +0.113 C 
ATOM      7  C   UNL     1       2.843  -6.266  -0.999  0.00  0.00    +0.218 C 
ATOM      8  O   UNL     1       2.670  -7.360  -0.505  0.00  0.00    -0.275 OA
ATOM      9  N   UNL     1       3.022  -6.158  -2.329  0.00  0.00    -0.285 N 
ATOM     10  C   UNL     1       3.206  -4.904  -2.920  0.00  0.00    +0.037 A 
ATOM     11  C   UNL     1       2.833  -3.755  -2.236  0.00  0.00    -0.014 A 
ATOM     12  C   UNL     1       3.015  -2.516  -2.818  0.00  0.00    +0.006 A 
ATOM     13  C   UNL     1       3.568  -2.421  -4.082  0.00  0.00    +0.000 A 
ATOM     14  C   UNL     1       3.941  -3.564  -4.766  0.00  0.00    +0.002 A 
ATOM     15  C   UNL     1       3.761  -4.805  -4.188  0.00  0.00    +0.023 A 
ATOM     16  H   UNL     1       3.023  -6.956  -2.881  0.00  0.00    +0.155 HD
ENDBRANCH   3   5
BRANCH   1  17
ATOM     17  S   UNL     1      -1.668  -4.233  -0.001  0.00  0.00    +0.077 S 
ATOM     18  O   UNL     1      -1.987  -4.321  -1.383  0.00  0.00    -0.150 OA
ATOM     19  O   UNL     1      -2.333  -3.338   0.880  0.00  0.00    -0.150 OA
BRANCH  17  24
ATOM     20  C   UNL     1      -2.393  -9.767   2.291  0.00  0.00    +0.044 C 
ATOM     21  C   UNL     1      -2.212  -8.385   1.719  0.00  0.00    -0.050 A 
ATOM     22  C   UNL     1      -2.021  -8.219   0.360  0.00  0.00    +0.008 A 
ATOM     23  C   UNL     1      -1.855  -6.951  -0.165  0.00  0.00    -0.023 A 
ATOM     24  C   UNL     1      -1.881  -5.849   0.668  0.00  0.00    +0.115 A 
ATOM     25  C   UNL     1      -2.073  -6.014   2.027  0.00  0.00    -0.023 A 
ATOM     26  C   UNL     1      -2.243  -7.282   2.552  0.00  0.00    +0.008 A 
ATOM     27  C   UNL     1      -2.100  -4.813   2.936  0.00  0.00    +0.046 C 
ATOM     28  C   UNL     1      -1.645  -6.771  -1.647  0.00  0.00    +0.046 C 
ENDBRANCH  17  24
ENDBRANCH   1  17
TORSDOF 3
