REMARK  Name = ZINC13882136
REMARK  5 active torsions:
REMARK  status: ('A' for Active; 'I' for Inactive)
REMARK    1  A    between atoms: C_6  and  C_7
REMARK    2  A    between atoms: C_7  and  C_8
REMARK    3  A    between atoms: N_10  and  N_11
REMARK    4  A    between atoms: C_12  and  C_14
REMARK    5  A    between atoms: C_23  and  N_26
REMARK                            x       y       z     vdW  Elec       q    Type
REMARK                         _______ _______ _______ _____ _____    ______ ____
ROOT
ATOM      1  N   UNL     1       4.391   1.764  -0.269  0.00  0.00    -0.234 N 
ATOM      2  C   UNL     1       3.547   2.084  -1.270  0.00  0.00    +0.235 C 
ATOM      3  O   UNL     1       3.925   2.791  -2.179  0.00  0.00    -0.274 OA
ATOM      4  H   UNL     1       4.047   1.122   0.556  0.00  0.00    +0.173 HD
ENDROOT
BRANCH   2   5
ATOM      5  C   UNL     1       2.133   1.562  -1.259  0.00  0.00    +0.051 C 
ATOM      6  C   UNL     1       1.393   2.069  -2.499  0.00  0.00    +0.020 C 
ATOM      7  C   UNL     1      -0.043   1.539  -2.488  0.00  0.00    -0.007 C 
ATOM      8  C   UNL     1      -0.022   0.009  -2.496  0.00  0.00    +0.007 C 
ATOM      9  C   UNL     1       0.718  -0.497  -1.257  0.00  0.00    -0.007 C 
ATOM     10  C   UNL     1       2.154   0.032  -1.268  0.00  0.00    +0.020 C 
ATOM     11  C   UNL     1       0.002  -0.004   0.002  0.00  0.00    +0.034 C 
ATOM     12  C   UNL     1      -0.019   1.526   0.010  0.00  0.00    +0.067 C 
ATOM     13  C   UNL     1      -0.759   2.033  -1.229  0.00  0.00    +0.034 C 
ATOM     14  C   UNL     1       1.417   2.055  -0.000  0.00  0.00    +0.046 C 
BRANCH  12  15
ATOM     15  N   UNL     1      -0.704   1.998   1.216  0.00  0.00    -0.246 N 
ATOM     16  C   UNL     1      -2.029   1.990   1.445  0.00  0.00    +0.219 A 
ATOM     17  N   UNL     1      -2.239   2.492   2.635  0.00  0.00    -0.223 NA
ATOM     18  C   UNL     1      -1.078   2.838   3.190  0.00  0.00    +0.245 A 
ATOM     19  N   UNL     1      -0.109   2.555   2.359  0.00  0.00    -0.158 NA
ENDBRANCH  12  15
ENDBRANCH   2   5
BRANCH   1  22
ATOM     20  C   UNL     1       6.549   1.929   0.722  0.00  0.00    +0.233 C 
ATOM     21  O   UNL     1       6.170   1.222   1.632  0.00  0.00    -0.274 OA
ATOM     22  N   UNL     1       5.705   2.249  -0.279  0.00  0.00    -0.234 N 
ATOM     23  H   UNL     1       6.048   2.890  -1.104  0.00  0.00    +0.173 HD
BRANCH  20  24
ATOM     24  C   UNL     1       7.963   2.451   0.712  0.00  0.00    +0.132 C 
BRANCH  24  30
ATOM     25  C   UNL     1       8.677   2.695   3.098  0.00  0.00    +0.005 A 
ATOM     26  C   UNL     1       9.341   2.235   4.220  0.00  0.00    +0.020 A 
ATOM     27  C   UNL     1      10.029   1.036   4.173  0.00  0.00    +0.041 A 
ATOM     28  C   UNL     1      10.047   0.295   3.004  0.00  0.00    +0.020 A 
ATOM     29  C   UNL     1       9.379   0.753   1.885  0.00  0.00    +0.005 A 
ATOM     30  C   UNL     1       8.691   1.952   1.933  0.00  0.00    -0.038 A 
ATOM     31 CL   UNL     1      10.868   0.460   5.579  0.00  0.00    -0.084 Cl
ENDBRANCH  24  30
ENDBRANCH  20  24
ENDBRANCH   1  22
TORSDOF 5
