REMARK  Name = ZINC13310606
REMARK  9 active torsions:
REMARK  status: ('A' for Active; 'I' for Inactive)
REMARK    1  A    between atoms: C_1  and  O_2
REMARK    2  A    between atoms: O_2  and  C_3
REMARK    3  A    between atoms: C_3  and  C_5
REMARK    4  A    between atoms: C_5  and  N_6
REMARK    5  A    between atoms: C_10  and  S_24
REMARK    6  A    between atoms: N_15  and  C_16
REMARK    7  A    between atoms: C_16  and  C_18
REMARK    8  A    between atoms: C_18  and  C_19
REMARK    9  A    between atoms: S_24  and  C_27
REMARK                            x       y       z     vdW  Elec       q    Type
REMARK                         _______ _______ _______ _____ _____    ______ ____
ROOT
ATOM      1  N   UNL     1      -6.537  -0.871   1.393  0.00  0.00    -0.310 N 
ATOM      2  C   UNL     1      -5.427  -0.260   1.947  0.00  0.00    +0.058 A 
ATOM      3  C   UNL     1      -5.024   1.080   1.834  0.00  0.00    +0.029 A 
ATOM      4  C   UNL     1      -3.884   1.525   2.460  0.00  0.00    +0.029 A 
ATOM      5  C   UNL     1      -3.095   0.669   3.209  0.00  0.00    +0.089 A 
ATOM      6  C   UNL     1      -3.469  -0.657   3.337  0.00  0.00    +0.044 A 
ATOM      7  C   UNL     1      -4.612  -1.102   2.716  0.00  0.00    +0.041 A 
ATOM      8  S   UNL     1      -5.438  -2.670   2.617  0.00  0.00    -0.052 S 
ATOM      9  C   UNL     1      -6.769  -2.192   1.613  0.00  0.00    +0.167 A 
ATOM     10  N   UNL     1      -7.775  -2.940   1.166  0.00  0.00    -0.156 NA
ENDROOT
BRANCH   5  11
ATOM     11  S   UNL     1      -1.635   1.263   3.997  0.00  0.00    -0.006 S 
ATOM     12  O   UNL     1      -1.443   0.396   5.106  0.00  0.00    -0.170 OA
ATOM     13  O   UNL     1      -1.868   2.651   4.194  0.00  0.00    -0.170 OA
ATOM     14  C   UNL     1      -0.315   1.018   2.777  0.00  0.00    +0.200 C 
ENDBRANCH   5  11
BRANCH  10  15
ATOM     15  C   UNL     1      -7.840  -4.228   1.486  0.00  0.00    +0.243 C 
ATOM     16  O   UNL     1      -6.979  -4.724   2.187  0.00  0.00    -0.273 OA
BRANCH  15  17
ATOM     17  C   UNL     1      -8.979  -5.074   0.979  0.00  0.00    +0.140 C 
BRANCH  17  18
ATOM     18  C   UNL     1      -8.818  -6.486   1.481  0.00  0.00    -0.001 A 
ATOM     19  C   UNL     1      -9.283  -7.043   2.626  0.00  0.00    +0.011 A 
ATOM     20  C   UNL     1      -9.014  -8.375   2.881  0.00  0.00    +0.008 A 
ATOM     21  C   UNL     1      -8.284  -9.081   1.984  0.00  0.00    +0.045 A 
ATOM     22  S   UNL     1      -7.959  -7.857   0.726  0.00  0.00    -0.101 S 
ENDBRANCH  17  18
ENDBRANCH  15  17
ENDBRANCH  10  15
BRANCH   1  23
ATOM     23  C   UNL     1      -7.465  -0.094   0.569  0.00  0.00    +0.244 C 
BRANCH  23  24
ATOM     24  C   UNL     1      -7.892  -0.917  -0.619  0.00  0.00    +0.327 C 
ATOM     25  O   UNL     1      -7.343  -1.967  -0.855  0.00  0.00    -0.249 OA
BRANCH  24  27
ATOM     26  C   UNL     1      -9.240  -1.327  -2.541  0.00  0.00    +0.280 C 
ATOM     27  O   UNL     1      -8.882  -0.483  -1.416  0.00  0.00    -0.467 OA
ENDBRANCH  24  27
ENDBRANCH  23  24
ENDBRANCH   1  23
TORSDOF 7
