REMARK  Name = ZINC09309699
REMARK  5 active torsions:
REMARK  status: ('A' for Active; 'I' for Inactive)
REMARK    1  A    between atoms: C_1  and  C_2
REMARK    2  A    between atoms: C_2  and  O_3
REMARK    3  A    between atoms: O_3  and  C_4
REMARK    4  A    between atoms: C_9  and  C_10
REMARK    5  A    between atoms: C_28  and  C_30
REMARK                            x       y       z     vdW  Elec       q    Type
REMARK                         _______ _______ _______ _____ _____    ______ ____
ROOT
ATOM      1  C   UNL     1       2.055  -1.434   3.442  0.00  0.00    +0.238 C 
ATOM      2  C   UNL     1       3.468  -1.103   3.058  0.00  0.00    +0.027 C 
ATOM      3  C   UNL     1       4.493  -1.872   3.479  0.00  0.00    +0.083 C 
ATOM      4  C   UNL     1       4.166  -3.039   4.337  0.00  0.00    +0.044 A 
ATOM      5  C   UNL     1       5.080  -4.061   4.550  0.00  0.00    +0.033 A 
ATOM      6  C   UNL     1       4.732  -5.131   5.355  0.00  0.00    +0.042 A 
ATOM      7  C   UNL     1       3.480  -5.181   5.944  0.00  0.00    +0.023 A 
ATOM      8  C   UNL     1       2.565  -4.166   5.737  0.00  0.00    +0.048 A 
ATOM      9  C   UNL     1       2.900  -3.090   4.934  0.00  0.00    +0.131 A 
ATOM     10  O   UNL     1       2.027  -2.078   4.717  0.00  0.00    -0.479 OA
ATOM     11 CL   UNL     1       5.869  -6.414   5.628  0.00  0.00    -0.084 Cl
ATOM     12  N   UNL     1       5.775  -1.593   3.137  0.00  0.00    -0.213 NA
ATOM     13  C   UNL     1       6.138  -0.575   2.393  0.00  0.00    +0.237 C 
ATOM     14  N   UNL     1       7.350  -0.156   1.966  0.00  0.00    -0.205 NA
ATOM     15  C   UNL     1       7.229   0.920   1.240  0.00  0.00    +0.203 C 
ATOM     16  N   UNL     1       5.914   1.264   1.153  0.00  0.00    -0.251 N 
ATOM     17  N   UNL     1       5.207   0.310   1.888  0.00  0.00    -0.208 N 
ATOM     18  C   UNL     1       3.787   0.097   2.193  0.00  0.00    +0.160 C 
ATOM     19  H   UNL     1       5.542   2.022   0.676  0.00  0.00    +0.171 HD
ENDROOT
BRANCH   1  25
ATOM     20  C   UNL     1       0.875  -1.825   1.265  0.00  0.00    +0.127 A 
ATOM     21  C   UNL     1       0.332  -2.674   0.311  0.00  0.00    +0.046 A 
ATOM     22  C   UNL     1       0.372  -4.041   0.502  0.00  0.00    +0.004 A 
ATOM     23  C   UNL     1       0.952  -4.565   1.643  0.00  0.00    +0.001 A 
ATOM     24  C   UNL     1       1.493  -3.721   2.595  0.00  0.00    +0.011 A 
ATOM     25  C   UNL     1       1.460  -2.353   2.406  0.00  0.00    +0.039 A 
BRANCH  20  26
ATOM     26  O   UNL     1       0.837  -0.480   1.079  0.00  0.00    -0.492 OA
BRANCH  26  28
ATOM     27  C   UNL     1       0.271   1.522  -0.152  0.00  0.00    +0.048 C 
ATOM     28  C   UNL     1       0.218  -0.007  -0.119  0.00  0.00    +0.225 C 
ENDBRANCH  26  28
ENDBRANCH  20  26
ENDBRANCH   1  25
BRANCH  18  29
ATOM     29  C   UNL     1       3.264   1.329   2.887  0.00  0.00    -0.003 A 
ATOM     30  C   UNL     1       2.057   1.891   2.504  0.00  0.00    +0.009 A 
ATOM     31  C   UNL     1       1.615   3.024   3.170  0.00  0.00    +0.020 A 
ATOM     32  C   UNL     1       2.389   3.552   4.187  0.00  0.00    +0.111 A 
ATOM     33  N   UNL     1       3.533   2.990   4.524  0.00  0.00    -0.263 NA
ATOM     34  C   UNL     1       3.981   1.908   3.917  0.00  0.00    +0.116 A 
ENDBRANCH  18  29
TORSDOF 4
