REMARK  Name = ZINC59442873
REMARK  5 active torsions:
REMARK  status: ('A' for Active; 'I' for Inactive)
REMARK    1  A    between atoms: C_1  and  C_2
REMARK    2  A    between atoms: C_2  and  C_26
REMARK    3  A    between atoms: C_6  and  S_9
REMARK    4  A    between atoms: S_9  and  C_10
REMARK    5  A    between atoms: C_10  and  C_11
REMARK                            x       y       z     vdW  Elec       q    Type
REMARK                         _______ _______ _______ _____ _____    ______ ____
ROOT
ATOM      1  C   UNL     1       6.484  -0.480   1.762  0.00  0.00    +0.243 C 
ATOM      2  O   UNL     1       7.151  -0.607   0.757  0.00  0.00    -0.271 OA
ATOM      3  N   UNL     1       7.089  -0.347   2.959  0.00  0.00    -0.279 N 
ATOM      4  C   UNL     1       6.428  -0.202   4.172  0.00  0.00    +0.058 A 
ATOM      5  C   UNL     1       5.078  -0.152   4.502  0.00  0.00    +0.027 A 
ATOM      6  C   UNL     1       4.694   0.003   5.818  0.00  0.00    +0.002 A 
ATOM      7  C   UNL     1       5.645   0.111   6.821  0.00  0.00    +0.001 A 
ATOM      8  C   UNL     1       6.988   0.064   6.512  0.00  0.00    +0.010 A 
ATOM      9  C   UNL     1       7.388  -0.092   5.188  0.00  0.00    +0.008 A 
ATOM     10  C   UNL     1       8.707  -0.179   4.531  0.00  0.00    +0.008 A 
ATOM     11  C   UNL     1       8.463  -0.341   3.161  0.00  0.00    +0.058 A 
ATOM     12  C   UNL     1       9.537  -0.458   2.286  0.00  0.00    +0.027 A 
ATOM     13  C   UNL     1      10.828  -0.419   2.769  0.00  0.00    +0.002 A 
ATOM     14  C   UNL     1      11.069  -0.262   4.125  0.00  0.00    +0.001 A 
ATOM     15  C   UNL     1      10.015  -0.135   5.006  0.00  0.00    +0.010 A 
ENDROOT
BRANCH   1  16
ATOM     16  C   UNL     1       4.980  -0.471   1.672  0.00  0.00    +0.176 C 
BRANCH  16  17
ATOM     17  S   UNL     1       4.477  -0.668  -0.060  0.00  0.00    -0.075 S 
BRANCH  17  23
ATOM     18  C   UNL     1      -0.019   1.526   0.010  0.00  0.00    +0.043 C 
ATOM     19  C   UNL     1       0.002  -0.004   0.002  0.00  0.00    +0.123 C 
ATOM     20  C   UNL     1       0.740  -0.498  -1.220  0.00  0.00    +0.273 C 
ATOM     21  O   UNL     1       0.080  -0.663  -2.384  0.00  0.00    -0.268 OA
ATOM     22  N   UNL     1       2.009  -0.765  -1.151  0.00  0.00    -0.184 NA
ATOM     23  C   UNL     1       2.716  -0.638   0.002  0.00  0.00    +0.208 C 
ATOM     24  N   UNL     1       2.121  -0.495   1.153  0.00  0.00    -0.159 NA
ATOM     25  N   UNL     1       0.713  -0.499   1.193  0.00  0.00    -0.252 N 
ATOM     26  C   UNL     1      -1.431  -0.541  -0.005  0.00  0.00    +0.043 C 
ATOM     27  H   UNL     1       0.231  -0.815   1.973  0.00  0.00    +0.169 HD
ENDBRANCH  17  23
ENDBRANCH  16  17
ENDBRANCH   1  16
TORSDOF 3
