REMARK  Name = ZINC36260172
REMARK  4 active torsions:
REMARK  status: ('A' for Active; 'I' for Inactive)
REMARK    1  A    between atoms: C_1  and  C_2
REMARK    2  A    between atoms: N_6  and  C_15
REMARK    3  A    between atoms: C_9  and  O_14
REMARK    4  A    between atoms: C_15  and  C_16
REMARK                            x       y       z     vdW  Elec       q    Type
REMARK                         _______ _______ _______ _____ _____    ______ ____
ROOT
ATOM      1  C   UNL     1      -0.179   1.523  -0.182  0.00  0.00    +0.062 C 
ATOM      2  C   UNL     1      -0.179  -0.007  -0.218  0.00  0.00    +0.256 C 
ATOM      3  C   UNL     1       0.622  -0.480  -1.405  0.00  0.00    +0.261 C 
ATOM      4  O   UNL     1       0.073  -0.680  -2.468  0.00  0.00    -0.271 OA
ATOM      5  N   UNL     1       1.951  -0.680  -1.279  0.00  0.00    -0.261 N 
ATOM      6  C   UNL     1       2.554  -0.476  -0.029  0.00  0.00    +0.082 A 
ATOM      7  C   UNL     1       3.930  -0.355   0.080  0.00  0.00    +0.072 A 
ATOM      8  C   UNL     1       4.507  -0.154   1.325  0.00  0.00    +0.119 A 
ATOM      9  C   UNL     1       3.708  -0.074   2.457  0.00  0.00    +0.049 A 
ATOM     10  C   UNL     1       2.335  -0.194   2.349  0.00  0.00    +0.051 A 
ATOM     11  C   UNL     1       1.754  -0.394   1.109  0.00  0.00    +0.143 A 
ATOM     12  O   UNL     1       0.404  -0.511   0.986  0.00  0.00    -0.478 OA
ENDROOT
BRANCH   8  13
ATOM     13  O   UNL     1       5.857  -0.034   1.437  0.00  0.00    -0.507 OA
ATOM     14  H   UNL     1       6.179   0.874   1.360  0.00  0.00    +0.292 HD
ENDBRANCH   8  13
BRANCH   5  15
ATOM     15  C   UNL     1       2.752  -1.106  -2.430  0.00  0.00    +0.152 C 
BRANCH  15  16
ATOM     16  C   UNL     1       2.915  -2.603  -2.402  0.00  0.00    +0.005 A 
ATOM     17  C   UNL     1       4.080  -3.163  -1.911  0.00  0.00    +0.008 A 
ATOM     18  C   UNL     1       4.230  -4.537  -1.885  0.00  0.00    +0.000 A 
ATOM     19  C   UNL     1       3.216  -5.353  -2.352  0.00  0.00    +0.003 A 
ATOM     20  C   UNL     1       2.051  -4.796  -2.843  0.00  0.00    +0.038 A 
ATOM     21  C   UNL     1       1.897  -3.420  -2.864  0.00  0.00    +0.128 A 
ATOM     22  F   UNL     1       0.756  -2.874  -3.340  0.00  0.00    -0.205 F 
ENDBRANCH  15  16
ENDBRANCH   5  15
TORSDOF 3
