REMARK  Name = ZINC41585932
REMARK  5 active torsions:
REMARK  status: ('A' for Active; 'I' for Inactive)
REMARK    1  A    between atoms: N_10  and  C_13
REMARK    2  A    between atoms: C_13  and  C_14
REMARK    3  A    between atoms: C_15  and  O_31
REMARK    4  A    between atoms: C_22  and  C_23
REMARK    5  A    between atoms: C_23  and  C_24
REMARK                            x       y       z     vdW  Elec       q    Type
REMARK                         _______ _______ _______ _____ _____    ______ ____
ROOT
ATOM      1  C   UNL     1       0.108  -6.738  -1.565  0.00  0.00    +0.053 A 
ATOM      2  C   UNL     1       0.428  -7.790  -0.724  0.00  0.00    +0.125 A 
ATOM      3  C   UNL     1      -0.549  -8.699  -0.326  0.00  0.00    +0.046 A 
ATOM      4  C   UNL     1      -1.837  -8.565  -0.760  0.00  0.00    +0.017 A 
ATOM      5  C   UNL     1      -2.179  -7.510  -1.610  0.00  0.00    +0.045 A 
ATOM      6  C   UNL     1      -1.198  -6.586  -2.010  0.00  0.00    +0.175 A 
ATOM      7  O   UNL     1      -1.804  -5.686  -2.811  0.00  0.00    -0.354 OA
ATOM      8  N   UNL     1      -3.174  -6.014  -2.929  0.00  0.00    -0.082 NA
ATOM      9  C   UNL     1      -3.429  -7.086  -2.243  0.00  0.00    +0.096 A 
ENDROOT
BRANCH   2  10
ATOM     10  O   UNL     1       1.704  -7.936  -0.283  0.00  0.00    -0.506 OA
ATOM     11  H   UNL     1       1.890  -7.473   0.545  0.00  0.00    +0.292 HD
ENDBRANCH   2  10
BRANCH   1  12
ATOM     12  C   UNL     1       1.171  -5.759  -1.990  0.00  0.00    +0.127 C 
BRANCH  12  22
ATOM     13  C   UNL     1      -0.017   1.379  -0.013  0.00  0.00    +0.005 A 
ATOM     14  C   UNL     1       1.195   2.058   0.002  0.00  0.00    +0.018 A 
ATOM     15  C   UNL     1       2.373   1.339   0.009  0.00  0.00    +0.084 A 
ATOM     16  N   UNL     1       2.361   0.020   0.001  0.00  0.00    -0.350 N 
ATOM     17  C   UNL     1       1.227  -0.664  -0.014  0.00  0.00    +0.099 A 
ATOM     18  C   UNL     1       0.002  -0.004  -0.021  0.00  0.00    +0.042 A 
ATOM     19  N   UNL     1       1.260  -2.054  -0.022  0.00  0.00    -0.314 N 
ATOM     20  C   UNL     1       2.535  -2.777  -0.142  0.00  0.00    +0.122 C 
ATOM     21  C   UNL     1       2.407  -3.805  -1.271  0.00  0.00    +0.103 C 
ATOM     22  N   UNL     1       1.232  -4.653  -1.026  0.00  0.00    -0.295 NA
ATOM     23  C   UNL     1      -0.007  -3.865  -1.049  0.00  0.00    +0.103 C 
ATOM     24  C   UNL     1       0.023  -2.839   0.095  0.00  0.00    +0.122 C 
ATOM     25  H   UNL     1       3.203  -0.461   0.006  0.00  0.00    +0.166 HD
ENDBRANCH  12  22
ENDBRANCH   1  12
BRANCH   9  26
ATOM     26  C   UNL     1      -4.770  -7.761  -2.110  0.00  0.00    +0.094 C 
BRANCH  26  27
ATOM     27  C   UNL     1      -5.513  -7.175  -0.938  0.00  0.00    -0.041 A 
ATOM     28  C   UNL     1      -5.364  -7.726   0.321  0.00  0.00    +0.005 A 
ATOM     29  C   UNL     1      -6.045  -7.188   1.397  0.00  0.00    +0.020 A 
ATOM     30  C   UNL     1      -6.878  -6.098   1.214  0.00  0.00    +0.041 A 
ATOM     31  C   UNL     1      -7.027  -5.547  -0.047  0.00  0.00    +0.020 A 
ATOM     32  C   UNL     1      -6.341  -6.082  -1.121  0.00  0.00    +0.005 A 
ATOM     33 CL   UNL     1      -7.734  -5.423   2.564  0.00  0.00    -0.084 Cl
ENDBRANCH  26  27
ENDBRANCH   9  26
TORSDOF 5
