REMARK  Name = ZINC39034858
REMARK  7 active torsions:
REMARK  status: ('A' for Active; 'I' for Inactive)
REMARK    1  A    between atoms: C_1  and  C_2
REMARK    2  A    between atoms: C_7  and  O_30
REMARK    3  A    between atoms: C_13  and  C_15
REMARK    4  A    between atoms: C_15  and  C_16
REMARK    5  A    between atoms: C_16  and  C_17
REMARK    6  A    between atoms: C_17  and  N_19
REMARK    7  A    between atoms: O_30  and  C_31
REMARK                            x       y       z     vdW  Elec       q    Type
REMARK                         _______ _______ _______ _____ _____    ______ ____
ROOT
ATOM      1  C   UNL     1       1.085  -1.991   1.081  0.00  0.00    +0.024 C 
ENDROOT
BRANCH   1  13
ATOM      2  C   UNL     1      -0.071   1.514   0.042  0.00  0.00    +0.013 C 
ATOM      3  C   UNL     1      -0.044  -0.015   0.033  0.00  0.00    +0.033 C 
ATOM      4  C   UNL     1      -1.457  -0.541   0.054  0.00  0.00    -0.001 A 
ATOM      5  C   UNL     1      -2.168  -0.568  -1.136  0.00  0.00    +0.011 A 
ATOM      6  C   UNL     1      -3.466  -1.035  -1.165  0.00  0.00    +0.046 A 
ATOM      7  C   UNL     1      -4.069  -1.479   0.003  0.00  0.00    +0.124 A 
ATOM      8  C   UNL     1      -3.362  -1.456   1.194  0.00  0.00    +0.092 A 
ATOM      9  C   UNL     1      -2.053  -0.990   1.220  0.00  0.00    +0.139 A 
ATOM     10  O   UNL     1      -1.387  -1.003   2.407  0.00  0.00    -0.425 OA
ATOM     11  C   UNL     1      -0.200  -0.365   2.462  0.00  0.00    +0.316 C 
ATOM     12  O   UNL     1       0.118   0.297   3.421  0.00  0.00    -0.250 OA
ATOM     13  C   UNL     1       0.714  -0.518   1.265  0.00  0.00    +0.106 C 
BRANCH   7  14
ATOM     14  O   UNL     1      -5.349  -1.936  -0.021  0.00  0.00    -0.495 OA
ATOM     15  C   UNL     1      -6.016  -1.929  -1.284  0.00  0.00    +0.277 C 
ENDBRANCH   7  14
ENDBRANCH   1  13
BRANCH   1  16
ATOM     16  C   UNL     1       1.949  -2.451   2.257  0.00  0.00    +0.099 C 
BRANCH  16  17
ATOM     17  C   UNL     1       2.314  -3.901   2.075  0.00  0.00    +0.238 C 
ATOM     18  O   UNL     1       1.922  -4.510   1.098  0.00  0.00    -0.274 OA
BRANCH  17  19
ATOM     19  N   UNL     1       3.065  -4.516   2.983  0.00  0.00    -0.157 NA
ATOM     20  C   UNL     1       3.302  -5.822   2.878  0.00  0.00    +0.164 A 
ATOM     21  N   UNL     1       2.954  -6.651   1.861  0.00  0.00    -0.335 N 
ATOM     22  H   UNL     1       2.474  -6.304   1.093  0.00  0.00    +0.168 HD
ATOM     23  C   UNL     1       3.287  -7.991   1.923  0.00  0.00    +0.055 A 
ATOM     24  C   UNL     1       3.029  -9.011   0.996  0.00  0.00    +0.027 A 
ATOM     25  C   UNL     1       3.444 -10.300   1.239  0.00  0.00    +0.002 A 
ATOM     26  C   UNL     1       4.125 -10.627   2.400  0.00  0.00    +0.001 A 
ATOM     27  C   UNL     1       4.393  -9.638   3.331  0.00  0.00    +0.017 A 
ATOM     28  C   UNL     1       3.978  -8.350   3.089  0.00  0.00    +0.039 A 
ATOM     29  S   UNL     1       4.105  -6.816   3.970  0.00  0.00    -0.052 S 
ENDBRANCH  17  19
ENDBRANCH  16  17
ENDBRANCH   1  16
TORSDOF 5
