REMARK  Name = ZINC67516860
REMARK  3 active torsions:
REMARK  status: ('A' for Active; 'I' for Inactive)
REMARK    1  A    between atoms: C_1  and  C_2
REMARK    2  A    between atoms: C_15  and  C_17
REMARK    3  A    between atoms: C_17  and  N_18
REMARK                            x       y       z     vdW  Elec       q    Type
REMARK                         _______ _______ _______ _____ _____    ______ ____
ROOT
ATOM      1  C   UNL     1      -0.013   1.540   0.022  0.00  0.00    +0.007 C 
ATOM      2  C   UNL     1       0.002   0.010   0.011  0.00  0.00    -0.014 C 
ATOM      3  C   UNL     1       0.711  -0.482  -1.252  0.00  0.00    +0.005 C 
ATOM      4  C   UNL     1       2.158   0.018  -1.264  0.00  0.00    +0.023 C 
ATOM      5  C   UNL     1       2.879  -0.513  -0.026  0.00  0.00    +0.079 C 
ATOM      6  C   UNL     1       2.176   0.019   1.228  0.00  0.00    +0.010 C 
ATOM      7  C   UNL     1       0.741  -0.500   1.252  0.00  0.00    +0.008 C 
ATOM      8  C   UNL     1       2.936  -0.454   2.466  0.00  0.00    +0.007 C 
ATOM      9  C   UNL     1       4.356   0.120   2.435  0.00  0.00    +0.019 C 
ATOM     10  C   UNL     1       5.086  -0.377   1.184  0.00  0.00    +0.108 C 
ATOM     11  N   UNL     1       4.274  -0.061  -0.008  0.00  0.00    -0.297 N 
ATOM     12  C   UNL     1       4.796   0.615  -1.050  0.00  0.00    +0.234 C 
ATOM     13  O   UNL     1       4.141   0.776  -2.058  0.00  0.00    -0.274 OA
ENDROOT
BRANCH  12  14
ATOM     14  C   UNL     1       6.194   1.172  -0.964  0.00  0.00    +0.212 C 
BRANCH  14  15
ATOM     15  N   UNL     1       6.525   1.858  -2.215  0.00  0.00    -0.233 N 
ATOM     16  C   UNL     1       7.095   1.237  -3.262  0.00  0.00    +0.226 C 
ATOM     17  O   UNL     1       7.269   0.043  -3.376  0.00  0.00    -0.275 OA
ATOM     18  C   UNL     1       7.482   2.305  -4.284  0.00  0.00    +0.087 C 
ATOM     19  C   UNL     1       8.970   2.562  -4.150  0.00  0.00    +0.013 C 
ATOM     20  C   UNL     1       9.365   3.958  -4.612  0.00  0.00    +0.001 C 
ATOM     21  C   UNL     1       8.601   4.983  -3.766  0.00  0.00    +0.001 C 
ATOM     22  C   UNL     1       7.117   4.851  -4.086  0.00  0.00    +0.013 C 
ATOM     23  C   UNL     1       6.575   3.457  -3.876  0.00  0.00    +0.087 C 
ATOM     24  C   UNL     1       6.280   3.166  -2.421  0.00  0.00    +0.226 C 
ATOM     25  O   UNL     1       5.896   3.964  -1.593  0.00  0.00    -0.275 OA
ENDBRANCH  14  15
ENDBRANCH  12  14
TORSDOF 2
