REMARK  Name = ZINC34952391
REMARK  7 active torsions:
REMARK  status: ('A' for Active; 'I' for Inactive)
REMARK    1  A    between atoms: C_1  and  C_2
REMARK    2  A    between atoms: C_2  and  O_3
REMARK    3  A    between atoms: O_3  and  C_4
REMARK    4  A    between atoms: C_4  and  C_6
REMARK    5  A    between atoms: C_13  and  C_15
REMARK    6  A    between atoms: N_20  and  S_21
REMARK    7  A    between atoms: S_21  and  C_24
REMARK                            x       y       z     vdW  Elec       q    Type
REMARK                         _______ _______ _______ _____ _____    ______ ____
ROOT
ATOM      1  C   UNL     1      -5.981  -5.988  -0.579  0.00  0.00    +0.166 C 
ATOM      2  C   UNL     1      -7.027  -4.857  -0.674  0.00  0.00    +0.031 C 
ATOM      3  C   UNL     1      -7.487  -4.934  -2.154  0.00  0.00    +0.019 C 
ATOM      4  C   UNL     1      -7.440  -6.460  -2.416  0.00  0.00    +0.110 C 
ATOM      5  N   UNL     1      -6.260  -6.937  -1.666  0.00  0.00    -0.165 NA
ENDROOT
BRANCH   1  12
ATOM      6  C   UNL     1      -2.881  -2.427   0.017  0.00  0.00    +0.115 C 
ATOM      7  C   UNL     1      -3.622  -1.974   1.276  0.00  0.00    +0.018 C 
ATOM      8  C   UNL     1      -5.040  -2.550   1.271  0.00  0.00    +0.020 C 
ATOM      9  C   UNL     1      -4.964  -4.080   1.279  0.00  0.00    +0.108 C 
ATOM     10  N   UNL     1      -4.130  -4.518   0.151  0.00  0.00    -0.299 N 
ATOM     11  C   UNL     1      -2.781  -3.955   0.009  0.00  0.00    +0.122 C 
ATOM     12  C   UNL     1      -4.595  -5.419  -0.737  0.00  0.00    +0.234 C 
ATOM     13  O   UNL     1      -3.897  -5.773  -1.664  0.00  0.00    -0.274 OA
BRANCH   6  14
ATOM     14  C   UNL     1      -1.496  -1.832   0.006  0.00  0.00    +0.312 C 
ATOM     15  O   UNL     1      -0.528  -2.555  -0.007  0.00  0.00    -0.250 OA
BRANCH  14  16
ATOM     16  O   UNL     1      -1.339  -0.499   0.012  0.00  0.00    -0.465 OA
BRANCH  16  18
ATOM     17  C   UNL     1      -0.019   1.526   0.010  0.00  0.00    +0.048 C 
ATOM     18  C   UNL     1       0.002  -0.004   0.002  0.00  0.00    +0.229 C 
ENDBRANCH  16  18
ENDBRANCH  14  16
ENDBRANCH   6  14
ENDBRANCH   1  12
BRANCH   5  19
ATOM     19  S   UNL     1      -5.393  -8.310  -1.995  0.00  0.00    +0.062 S 
ATOM     20  O   UNL     1      -5.610  -8.608  -3.367  0.00  0.00    -0.153 OA
ATOM     21  O   UNL     1      -4.094  -8.109  -1.455  0.00  0.00    -0.153 OA
BRANCH  19  22
ATOM     22  C   UNL     1      -6.124  -9.621  -1.073  0.00  0.00    +0.106 A 
ATOM     23  C   UNL     1      -5.686  -9.892   0.210  0.00  0.00    +0.030 A 
ATOM     24  C   UNL     1      -6.260 -10.921   0.933  0.00  0.00    +0.022 A 
ATOM     25  C   UNL     1      -7.272 -11.680   0.373  0.00  0.00    +0.041 A 
ATOM     26  C   UNL     1      -7.710 -11.408  -0.911  0.00  0.00    +0.022 A 
ATOM     27  C   UNL     1      -7.140 -10.375  -1.631  0.00  0.00    +0.030 A 
ATOM     28 CL   UNL     1      -7.992 -12.972   1.281  0.00  0.00    -0.084 Cl
ENDBRANCH  19  22
ENDBRANCH   5  19
TORSDOF 6
