REMARK  Name = ZINC64800790
REMARK  11 active torsions:
REMARK  status: ('A' for Active; 'I' for Inactive)
REMARK    1  A    between atoms: C_1  and  C_2
REMARK    2  A    between atoms: C_4  and  C_27
REMARK    3  A    between atoms: N_6  and  C_8
REMARK    4  A    between atoms: C_8  and  C_9
REMARK    5  A    between atoms: C_8  and  C_10
REMARK    6  A    between atoms: C_8  and  C_11
REMARK    7  A    between atoms: C_11  and  N_12
REMARK    8  A    between atoms: C_13  and  C_15
REMARK    9  A    between atoms: C_15  and  C_16
REMARK   10  A    between atoms: C_16  and  C_17
REMARK   11  A    between atoms: C_19  and  C_22
REMARK                            x       y       z     vdW  Elec       q    Type
REMARK                         _______ _______ _______ _____ _____    ______ ____
ROOT
ATOM      1  N   UNL     1      -0.750  -2.466   3.616  0.00  0.00    -0.317 N 
ATOM      2  C   UNL     1      -1.628  -2.151   4.588  0.00  0.00    +0.213 C 
ATOM      3  O   UNL     1      -1.281  -1.451   5.515  0.00  0.00    -0.276 OA
ATOM      4  H   UNL     1      -1.027  -3.026   2.874  0.00  0.00    +0.149 HD
ENDROOT
BRANCH   1   5
ATOM      5  C   UNL     1       0.625  -1.963   3.679  0.00  0.00    +0.092 C 
BRANCH   5   6
ATOM      6  C   UNL     1       1.408  -2.463   2.464  0.00  0.00    -0.055 C 
ATOM      7  C   UNL     1       1.425  -3.993   2.463  0.00  0.00    -0.008 C 
ATOM      8  C   UNL     1       2.843  -1.937   2.530  0.00  0.00    -0.008 C 
BRANCH   6  14
ATOM      9  C   UNL     1      -0.019   1.526   0.010  0.00  0.00    +0.005 C 
ATOM     10  C   UNL     1       0.002  -0.004   0.002  0.00  0.00    -0.031 C 
ATOM     11  C   UNL     1       0.724  -0.499  -1.255  0.00  0.00    +0.003 C 
ATOM     12  C   UNL     1       0.808  -2.027  -1.215  0.00  0.00    -0.031 C 
ATOM     13  C   UNL     1       1.518  -2.460   0.070  0.00  0.00    -0.075 C 
ATOM     14  N   UNL     1       0.765  -1.980   1.235  0.00  0.00    +0.384 N 
ATOM     15  C   UNL     1       0.742  -0.512   1.241  0.00  0.00    -0.075 C 
ATOM     16  C   UNL     1       1.595  -2.527  -2.428  0.00  0.00    +0.005 C 
ATOM     17  H   UNL     1      -0.180  -2.330   1.191  0.00  0.00    -0.081 HD
ENDBRANCH   6  14
ENDBRANCH   5   6
ENDBRANCH   1   5
BRANCH   2  18
ATOM     18  C   UNL     1      -3.042  -2.669   4.523  0.00  0.00    +0.105 C 
BRANCH  18  19
ATOM     19  C   UNL     1      -3.825  -2.169   5.738  0.00  0.00    +0.108 C 
BRANCH  19  20
ATOM     20  C   UNL     1      -5.239  -2.687   5.673  0.00  0.00    +0.228 A 
ATOM     21  N   UNL     1      -5.663  -3.806   6.185  0.00  0.00    -0.189 NA
ATOM     22  C   UNL     1      -6.979  -3.955   5.941  0.00  0.00    +0.237 A 
ATOM     23  N   UNL     1      -7.399  -2.913   5.262  0.00  0.00    -0.053 NA
ATOM     24  O   UNL     1      -6.271  -2.070   5.082  0.00  0.00    -0.338 OA
BRANCH  22  25
ATOM     25  C   UNL     1      -7.811  -5.100   6.367  0.00  0.00    +0.175 A 
ATOM     26  C   UNL     1      -9.138  -5.258   6.119  0.00  0.00    +0.053 A 
ATOM     27  C   UNL     1      -9.517  -6.482   6.702  0.00  0.00    +0.042 A 
ATOM     28  C   UNL     1      -8.414  -7.007   7.271  0.00  0.00    +0.196 A 
ATOM     29  O   UNL     1      -7.384  -6.172   7.063  0.00  0.00    -0.460 OA
ENDBRANCH  22  25
ENDBRANCH  19  20
ENDBRANCH  18  19
ENDBRANCH   2  18
TORSDOF 7
