REMARK  Name = ZINC54910108
REMARK  5 active torsions:
REMARK  status: ('A' for Active; 'I' for Inactive)
REMARK    1  A    between atoms: C_1  and  C_2
REMARK    2  A    between atoms: C_2  and  C_3
REMARK    3  A    between atoms: C_14  and  O_21
REMARK    4  A    between atoms: C_17  and  C_19
REMARK    5  A    between atoms: C_17  and  C_20
REMARK                            x       y       z     vdW  Elec       q    Type
REMARK                         _______ _______ _______ _____ _____    ______ ____
ROOT
ATOM      1  C   UNL     1       0.723  -0.398   1.289  0.00  0.00    +0.075 C 
ATOM      2  C   UNL     1       0.798  -1.935   1.402  0.00  0.00    +0.024 C 
ATOM      3  C   UNL     1       2.208  -2.171   2.007  0.00  0.00    +0.021 C 
ATOM      4  C   UNL     1       3.027  -1.041   1.335  0.00  0.00    +0.107 C 
ATOM      5  N   UNL     1       2.103   0.110   1.269  0.00  0.00    -0.307 N 
ATOM      6  C   UNL     1       2.472   1.444   1.198  0.00  0.00    +0.161 A 
ATOM      7  N   UNL     1       3.679   1.953   1.079  0.00  0.00    -0.229 NA
ATOM      8  C   UNL     1       3.885   3.267   1.022  0.00  0.00    +0.057 A 
ATOM      9  C   UNL     1       2.762   4.025   1.095  0.00  0.00    +0.043 A 
ATOM     10  S   UNL     1       1.483   2.808   1.237  0.00  0.00    -0.054 S 
ATOM     11  C   UNL     1       2.662   5.512   1.057  0.00  0.00    +0.153 C 
ATOM     12  C   UNL     1       4.002   6.070   0.552  0.00  0.00    +0.043 C 
ATOM     13  C   UNL     1       5.141   5.386   1.313  0.00  0.00    -0.027 C 
ATOM     14  C   UNL     1       5.253   3.921   0.886  0.00  0.00    +0.063 C 
ATOM     15  C   UNL     1       4.861   5.456   2.815  0.00  0.00    +0.011 C 
ATOM     16  C   UNL     1       6.457   6.105   1.010  0.00  0.00    +0.011 C 
ENDROOT
BRANCH   1  18
ATOM     17  C   UNL     1      -1.465  -0.418   0.084  0.00  0.00    +0.006 C 
ATOM     18  C   UNL     1       0.005  -0.005  -0.004  0.00  0.00    +0.019 C 
ENDBRANCH   1  18
BRANCH  11  19
ATOM     19  O   UNL     1       1.611   5.902   0.171  0.00  0.00    -0.387 OA
ATOM     20  H   UNL     1       0.740   5.565   0.422  0.00  0.00    +0.210 HD
ENDBRANCH  11  19
TORSDOF 2
