REMARK  Name = ZINC31159596
REMARK  9 active torsions:
REMARK  status: ('A' for Active; 'I' for Inactive)
REMARK    1  A    between atoms: C_1  and  C_2
REMARK    2  A    between atoms: C_6  and  C_31
REMARK    3  A    between atoms: C_9  and  C_10
REMARK    4  A    between atoms: C_9  and  C_11
REMARK    5  A    between atoms: C_11  and  C_12
REMARK    6  A    between atoms: C_12  and  C_13
REMARK    7  A    between atoms: C_18  and  O_20
REMARK    8  A    between atoms: C_22  and  O_30
REMARK    9  A    between atoms: C_24  and  O_29
REMARK                            x       y       z     vdW  Elec       q    Type
REMARK                         _______ _______ _______ _____ _____    ______ ____
ROOT
ATOM      1  C   UNL     1      -6.107   0.122   0.190  0.00  0.00    +0.008 C 
ATOM      2  C   UNL     1      -4.698   0.183   0.788  0.00  0.00    -0.008 C 
ATOM      3  C   UNL     1      -4.342  -1.149   1.426  0.00  0.00    +0.004 C 
ATOM      4  C   UNL     1      -5.146  -1.384   2.702  0.00  0.00    +0.010 C 
ATOM      5  C   UNL     1      -4.855  -0.269   3.703  0.00  0.00    +0.005 C 
ATOM      6  C   UNL     1      -5.220   1.082   3.102  0.00  0.00    +0.007 C 
ATOM      7  C   UNL     1      -4.598   1.363   1.751  0.00  0.00    -0.026 C 
ATOM      8  C   UNL     1      -5.385   2.528   1.099  0.00  0.00    +0.012 C 
ATOM      9  C   UNL     1      -4.957   2.196   4.112  0.00  0.00    +0.038 C 
ATOM     10  C   UNL     1      -5.831   2.004   5.354  0.00  0.00    +0.146 C 
ATOM     11  C   UNL     1      -5.569   0.645   6.005  0.00  0.00    +0.177 C 
ATOM     12  C   UNL     1      -5.718  -0.462   4.960  0.00  0.00    +0.126 C 
ATOM     13  C   UNL     1      -7.071  -1.148   4.818  0.00  0.00    +0.199 C 
ATOM     14  O   UNL     1      -5.942  -1.794   5.415  0.00  0.00    -0.365 OA
ATOM     15  C   UNL     1      -3.389  -0.345   4.133  0.00  0.00    +0.014 C 
ENDROOT
BRANCH  11  16
ATOM     16  O   UNL     1      -6.513   0.435   7.060  0.00  0.00    -0.386 OA
ATOM     17  H   UNL     1      -6.481  -0.494   7.649  0.00  0.00    +0.210 HD
ENDBRANCH  11  16
BRANCH  10  18
ATOM     18  O   UNL     1      -7.209   2.102   4.987  0.00  0.00    -0.389 OA
ATOM     19  H   UNL     1      -7.991   1.990   5.753  0.00  0.00    +0.210 HD
ENDBRANCH  10  18
BRANCH   7  20
ATOM     20  C   UNL     1      -3.141   1.819   1.859  0.00  0.00    +0.012 C 
BRANCH  20  21
ATOM     21  C   UNL     1      -2.626   2.214   0.473  0.00  0.00    +0.038 C 
BRANCH  21  22
ATOM     22  C   UNL     1      -1.221   2.745   0.593  0.00  0.00    +0.004 C 
ATOM     23  C   UNL     1      -0.096   2.055   0.425  0.00  0.00    +0.097 C 
ATOM     24  C   UNL     1       1.056   2.939   0.622  0.00  0.00    +0.334 C 
ATOM     25  O   UNL     1       2.219   2.600   0.531  0.00  0.00    -0.246 OA
ATOM     26  O   UNL     1       0.634   4.183   0.919  0.00  0.00    -0.428 OA
ATOM     27  C   UNL     1      -0.821   4.163   0.928  0.00  0.00    +0.337 C 
BRANCH  27  28
ATOM     28  O   UNL     1      -1.310   4.526   2.221  0.00  0.00    -0.354 OA
ATOM     29  H   UNL     1      -1.108   5.529   2.624  0.00  0.00    +0.214 HD
ENDBRANCH  27  28
ENDBRANCH  21  22
ENDBRANCH  20  21
ENDBRANCH   7  20
TORSDOF 6
