REMARK  Name = ZINC48469822
REMARK  3 active torsions:
REMARK  status: ('A' for Active; 'I' for Inactive)
REMARK    1  A    between atoms: C_3  and  N_9
REMARK    2  A    between atoms: N_12  and  C_13
REMARK    3  A    between atoms: C_13  and  C_14
REMARK                            x       y       z     vdW  Elec       q    Type
REMARK                         _______ _______ _______ _____ _____    ______ ____
ROOT
ATOM      1  N   UNL     1       3.585   2.129  -0.021  0.00  0.00    -0.268 N 
ATOM      2  C   UNL     1       3.568   3.473  -0.116  0.00  0.00    +0.304 C 
ATOM      3  O   UNL     1       2.509   4.070  -0.103  0.00  0.00    -0.253 OA
ATOM      4  N   UNL     1       4.726   4.155  -0.225  0.00  0.00    -0.299 N 
ATOM      5  H   UNL     1       4.430   1.658   0.051  0.00  0.00    +0.156 HD
ATOM      6  H   UNL     1       5.570   3.679  -0.236  0.00  0.00    +0.150 HD
ENDROOT
BRANCH   1   9
ATOM      7  C   UNL     1       0.066   1.244  -0.626  0.00  0.00    +0.040 A 
ATOM      8  C   UNL     1       1.252   1.953  -0.622  0.00  0.00    +0.027 A 
ATOM      9  C   UNL     1       2.381   1.411  -0.026  0.00  0.00    +0.053 A 
ATOM     10  C   UNL     1       2.318   0.155   0.565  0.00  0.00    +0.065 A 
ATOM     11  C   UNL     1       1.130  -0.551   0.558  0.00  0.00    +0.060 A 
ATOM     12  C   UNL     1       0.004  -0.007  -0.037  0.00  0.00    +0.125 A 
ATOM     13  F   UNL     1      -1.157  -0.699  -0.043  0.00  0.00    -0.205 F 
ATOM     14 CL   UNL     1       3.730  -0.527   1.310  0.00  0.00    -0.082 Cl
ENDBRANCH   1   9
BRANCH   4  15
ATOM     15  C   UNL     1       4.707   5.616  -0.329  0.00  0.00    +0.111 C 
BRANCH  15  16
ATOM     16  C   UNL     1       6.142   6.138  -0.441  0.00  0.00    +0.029 C 
ATOM     17  C   UNL     1       6.758   5.654  -1.764  0.00  0.00    +0.029 C 
ATOM     18  C   UNL     1       8.078   6.442  -2.000  0.00  0.00    +0.166 C 
ATOM     19  S   UNL     1       7.565   8.128  -1.461  0.00  0.00    -0.031 S 
ATOM     20  O   UNL     1       7.096   8.851  -2.591  0.00  0.00    -0.174 OA
ATOM     21  O   UNL     1       8.589   8.686  -0.649  0.00  0.00    -0.174 OA
ATOM     22  C   UNL     1       6.131   7.685  -0.400  0.00  0.00    +0.171 C 
ENDBRANCH  15  16
ENDBRANCH   4  15
TORSDOF 3
