REMARK  Name = ZINC29131697
REMARK  8 active torsions:
REMARK  status: ('A' for Active; 'I' for Inactive)
REMARK    1  A    between atoms: C_1  and  C_2
REMARK    2  A    between atoms: C_4  and  N_8
REMARK    3  A    between atoms: C_11  and  N_14
REMARK    4  A    between atoms: N_14  and  C_15
REMARK    5  A    between atoms: C_16  and  C_18
REMARK    6  A    between atoms: C_18  and  C_19
REMARK    7  A    between atoms: C_19  and  S_20
REMARK    8  A    between atoms: S_20  and  C_23
REMARK                            x       y       z     vdW  Elec       q    Type
REMARK                         _______ _______ _______ _____ _____    ______ ____
ROOT
ATOM      1  N   UNL     1      -1.072   1.998   5.075  0.00  0.00    -0.301 N 
ATOM      2  C   UNL     1       0.176   1.310   5.416  0.00  0.00    +0.132 C 
ATOM      3  C   UNL     1      -1.407   2.184   3.783  0.00  0.00    +0.217 C 
ATOM      4  O   UNL     1      -2.440   2.754   3.501  0.00  0.00    -0.276 OA
ENDROOT
BRANCH   1   8
ATOM      5  N   UNL     1      -2.508   2.790   8.956  0.00  0.00    -0.330 N 
ATOM      6  C   UNL     1      -3.276   1.830   8.152  0.00  0.00    +0.107 C 
ATOM      7  C   UNL     1      -2.405   1.308   7.008  0.00  0.00    +0.041 C 
ATOM      8  C   UNL     1      -1.954   2.485   6.138  0.00  0.00    +0.079 C 
ATOM      9  C   UNL     1      -1.198   3.494   7.008  0.00  0.00    +0.041 C 
ATOM     10  C   UNL     1      -2.104   3.951   8.153  0.00  0.00    +0.107 C 
BRANCH   5  14
ATOM     11  C   UNL     1      -2.859   5.446  13.081  0.00  0.00    +0.063 C 
ATOM     12  C   UNL     1      -3.430   4.463  12.091  0.00  0.00    +0.015 A 
ATOM     13  C   UNL     1      -2.684   4.091  10.992  0.00  0.00    +0.044 A 
ATOM     14  C   UNL     1      -3.225   3.186  10.081  0.00  0.00    +0.033 A 
ATOM     15  C   UNL     1      -4.502   2.682  10.329  0.00  0.00    +0.040 A 
ATOM     16  C   UNL     1      -5.180   3.099  11.455  0.00  0.00    +0.084 A 
ATOM     17  N   UNL     1      -4.636   3.963  12.291  0.00  0.00    -0.364 N 
ATOM     18  H   UNL     1      -5.217   4.266  13.175  0.00  0.00    +0.165 HD
ENDBRANCH   5  14
ENDBRANCH   1   8
BRANCH   3  19
ATOM     19  C   UNL     1      -0.500   1.683   2.689  0.00  0.00    +0.119 C 
BRANCH  19  20
ATOM     20  C   UNL     1      -1.110   2.020   1.327  0.00  0.00    +0.181 C 
BRANCH  20  21
ATOM     21  S   UNL     1      -0.017   1.417   0.010  0.00  0.00    -0.003 S 
ATOM     22  O   UNL     1       0.002  -0.004   0.002  0.00  0.00    -0.169 OA
ATOM     23  O   UNL     1       1.195   2.158   0.002  0.00  0.00    -0.169 OA
BRANCH  21  24
ATOM     24  C   UNL     1      -0.827   1.864  -1.490  0.00  0.00    +0.089 A 
ATOM     25  C   UNL     1      -1.724   0.974  -2.078  0.00  0.00    +0.027 A 
ATOM     26  C   UNL     1      -2.369   1.290  -3.233  0.00  0.00    +0.010 A 
ATOM     27  C   UNL     1      -2.122   2.527  -3.852  0.00  0.00    -0.018 A 
ATOM     28  C   UNL     1      -2.766   2.886  -5.048  0.00  0.00    +0.010 A 
ATOM     29  C   UNL     1      -2.502   4.093  -5.620  0.00  0.00    +0.020 A 
ATOM     30  C   UNL     1      -1.600   4.981  -5.035  0.00  0.00    +0.042 A 
ATOM     31  C   UNL     1      -0.958   4.667  -3.876  0.00  0.00    +0.028 A 
ATOM     32  C   UNL     1      -1.206   3.430  -3.257  0.00  0.00    -0.015 A 
ATOM     33  C   UNL     1      -0.562   3.071  -2.061  0.00  0.00    +0.035 A 
ATOM     34 CL   UNL     1      -1.291   6.511  -5.797  0.00  0.00    -0.084 Cl
ENDBRANCH  21  24
ENDBRANCH  20  21
ENDBRANCH  19  20
ENDBRANCH   3  19
TORSDOF 6
