REMARK  Name = ZINC63626174
REMARK  6 active torsions:
REMARK  status: ('A' for Active; 'I' for Inactive)
REMARK    1  A    between atoms: C_6  and  N_7
REMARK    2  A    between atoms: N_10  and  C_13
REMARK    3  A    between atoms: C_13  and  C_14
REMARK    4  A    between atoms: N_19  and  C_20
REMARK    5  A    between atoms: C_20  and  C_21
REMARK    6  A    between atoms: C_21  and  C_22
REMARK                            x       y       z     vdW  Elec       q    Type
REMARK                         _______ _______ _______ _____ _____    ______ ____
ROOT
ATOM      1  C   UNL     1      -4.717  -3.947  -1.684  0.00  0.00    +0.234 C 
ATOM      2  O   UNL     1      -4.103  -4.526  -0.813  0.00  0.00    -0.274 OA
ATOM      3  N   UNL     1      -5.602  -4.620  -2.446  0.00  0.00    -0.239 N 
ATOM      4  C   UNL     1      -5.805  -5.936  -2.239  0.00  0.00    +0.306 C 
ATOM      5  O   UNL     1      -5.190  -6.517  -1.366  0.00  0.00    -0.252 OA
ATOM      6  N   UNL     1      -6.690  -6.609  -3.001  0.00  0.00    -0.299 N 
ATOM      7  H   UNL     1      -6.092  -4.157  -3.142  0.00  0.00    +0.159 HD
ATOM      8  H   UNL     1      -7.180  -6.146  -3.698  0.00  0.00    +0.150 HD
ENDROOT
BRANCH   1   9
ATOM      9  C   UNL     1      -4.490  -2.475  -1.915  0.00  0.00    +0.181 C 
BRANCH   9  13
ATOM     10  N   UNL     1      -1.198  -0.721   0.010  0.00  0.00    -0.327 N 
ATOM     11  C   UNL     1      -2.490  -0.028   0.131  0.00  0.00    +0.120 C 
ATOM     12  C   UNL     1      -3.410  -0.513  -0.995  0.00  0.00    +0.104 C 
ATOM     13  N   UNL     1      -3.486  -1.980  -0.963  0.00  0.00    -0.291 NA
ATOM     14  C   UNL     1      -2.173  -2.587  -1.218  0.00  0.00    +0.104 C 
ATOM     15  C   UNL     1      -1.204  -2.187  -0.108  0.00  0.00    +0.120 C 
BRANCH  10  21
ATOM     16  C   UNL     1      -0.017   1.385  -0.005  0.00  0.00    +0.026 A 
ATOM     17  C   UNL     1       1.170   2.090  -0.012  0.00  0.00    +0.040 A 
ATOM     18  C   UNL     1       2.379   1.414  -0.013  0.00  0.00    +0.124 A 
ATOM     19  C   UNL     1       2.400   0.030  -0.007  0.00  0.00    +0.040 A 
ATOM     20  C   UNL     1       1.215  -0.680   0.001  0.00  0.00    +0.026 A 
ATOM     21  C   UNL     1       0.002  -0.004   0.002  0.00  0.00    +0.030 A 
ATOM     22  F   UNL     1       3.539   2.107  -0.020  0.00  0.00    -0.205 F 
ENDBRANCH  10  21
ENDBRANCH   9  13
ENDBRANCH   1   9
BRANCH   6  23
ATOM     23  C   UNL     1      -6.910  -8.040  -2.776  0.00  0.00    +0.110 C 
BRANCH  23  24
ATOM     24  C   UNL     1      -7.955  -8.557  -3.767  0.00  0.00    +0.052 C 
BRANCH  24  25
ATOM     25  C   UNL     1      -8.182 -10.028  -3.536  0.00  0.00    -0.040 C 
ATOM     26  C   UNL     1      -9.153 -10.593  -2.782  0.00  0.00    +0.002 A 
ATOM     27  C   UNL     1     -10.245 -10.027  -1.982  0.00  0.00    +0.048 A 
ATOM     28  C   UNL     1     -11.077 -10.866  -1.320  0.00  0.00    +0.124 A 
ATOM     29  C   UNL     1     -10.920 -12.260  -1.381  0.00  0.00    +0.040 A 
ATOM     30  C   UNL     1      -9.941 -12.852  -2.095  0.00  0.00    +0.029 A 
ATOM     31  C   UNL     1      -9.010 -12.066  -2.830  0.00  0.00    +0.043 A 
ATOM     32  N   UNL     1      -7.991 -12.399  -3.584  0.00  0.00    -0.380 N 
ATOM     33  C   UNL     1      -7.375 -11.173  -4.106  0.00  0.00    +0.144 C 
ATOM     34  F   UNL     1     -12.083 -10.348  -0.582  0.00  0.00    -0.205 F 
ATOM     35  H   UNL     1      -7.695 -13.304  -3.770  0.00  0.00    +0.160 HD
ENDBRANCH  24  25
ENDBRANCH  23  24
ENDBRANCH   6  23
TORSDOF 6
