REMARK  Name = ZINC53303070
REMARK  9 active torsions:
REMARK  status: ('A' for Active; 'I' for Inactive)
REMARK    1  A    between atoms: C_1  and  C_2
REMARK    2  A    between atoms: C_5  and  C_7
REMARK    3  A    between atoms: N_9  and  C_10
REMARK    4  A    between atoms: C_10  and  C_11
REMARK    5  A    between atoms: C_11  and  C_12
REMARK    6  A    between atoms: C_11  and  C_13
REMARK    7  A    between atoms: C_11  and  N_14
REMARK    8  A    between atoms: C_16  and  C_21
REMARK    9  A    between atoms: C_18  and  C_20
REMARK                            x       y       z     vdW  Elec       q    Type
REMARK                         _______ _______ _______ _____ _____    ______ ____
ROOT
ATOM      1  C   UNL     1       5.306  -3.554   0.007  0.00  0.00    -0.055 C 
ATOM      2  C   UNL     1       6.402  -4.615  -0.110  0.00  0.00    -0.008 C 
ATOM      3  C   UNL     1       5.403  -2.588  -1.175  0.00  0.00    -0.008 C 
ENDROOT
BRANCH   1   4
ATOM      4  N   UNL     1       5.475  -2.811   1.263  0.00  0.00    +0.384 N 
ATOM      5  C   UNL     1       4.397  -1.824   1.395  0.00  0.00    -0.075 C 
ATOM      6  C   UNL     1       4.523  -1.103   2.739  0.00  0.00    -0.031 C 
ATOM      7  C   UNL     1       5.879  -0.394   2.807  0.00  0.00    +0.003 C 
ATOM      8  C   UNL     1       6.993  -1.422   2.594  0.00  0.00    -0.031 C 
ATOM      9  C   UNL     1       6.776  -2.131   1.255  0.00  0.00    -0.075 C 
ATOM     10  C   UNL     1       6.963  -2.450   3.727  0.00  0.00    +0.005 C 
ATOM     11  C   UNL     1       3.400  -0.072   2.872  0.00  0.00    +0.005 C 
ATOM     12  H   UNL     1       5.437  -3.454   2.040  0.00  0.00    -0.081 HD
ENDBRANCH   1   4
BRANCH   1  13
ATOM     13  C   UNL     1       3.935  -4.234  -0.002  0.00  0.00    +0.092 C 
BRANCH  13  16
ATOM     14  C   UNL     1       2.621  -5.676   1.459  0.00  0.00    +0.279 C 
ATOM     15  O   UNL     1       1.682  -5.543   0.697  0.00  0.00    -0.267 OA
ATOM     16  N   UNL     1       3.793  -5.062   1.199  0.00  0.00    -0.310 N 
ATOM     17  H   UNL     1       4.541  -5.168   1.806  0.00  0.00    +0.149 HD
BRANCH  14  22
ATOM     18  C   UNL     1       3.708  -8.024   5.746  0.00  0.00    +0.086 C 
ATOM     19  C   UNL     1       2.949  -7.536   4.539  0.00  0.00    +0.103 A 
ATOM     20  C   UNL     1       1.665  -7.834   4.243  0.00  0.00    +0.045 A 
ATOM     21  C   UNL     1       1.354  -7.178   3.042  0.00  0.00    +0.055 A 
ATOM     22  C   UNL     1       2.479  -6.504   2.661  0.00  0.00    +0.189 A 
ATOM     23  O   UNL     1       3.435  -6.730   3.586  0.00  0.00    -0.455 OA
ENDBRANCH  14  22
ENDBRANCH  13  16
ENDBRANCH   1  13
TORSDOF 4
