REMARK  Name = ZINC52220481
REMARK  6 active torsions:
REMARK  status: ('A' for Active; 'I' for Inactive)
REMARK    1  A    between atoms: C_1  and  C_2
REMARK    2  A    between atoms: N_5  and  C_9
REMARK    3  A    between atoms: C_9  and  C_11
REMARK    4  A    between atoms: C_9  and  C_23
REMARK    5  A    between atoms: C_11  and  N_12
REMARK    6  A    between atoms: N_12  and  C_13
REMARK                            x       y       z     vdW  Elec       q    Type
REMARK                         _______ _______ _______ _____ _____    ______ ____
ROOT
ATOM      1  C   UNL     1      -2.708  -2.730   0.133  0.00  0.00    +0.108 C 
ENDROOT
BRANCH   1   2
ATOM      2  C   UNL     1      -3.676  -2.482   1.260  0.00  0.00    +0.025 A 
ATOM      3  C   UNL     1      -4.503  -3.501   1.700  0.00  0.00    +0.129 A 
ATOM      4  C   UNL     1      -5.393  -3.272   2.736  0.00  0.00    +0.039 A 
ATOM      5  C   UNL     1      -5.456  -2.025   3.329  0.00  0.00    +0.004 A 
ATOM      6  C   UNL     1      -4.631  -1.007   2.890  0.00  0.00    +0.020 A 
ATOM      7  C   UNL     1      -3.737  -1.236   1.859  0.00  0.00    +0.048 A 
ATOM      8 CL   UNL     1      -2.696   0.041   1.312  0.00  0.00    -0.083 Cl
ATOM      9  F   UNL     1      -4.441  -4.720   1.120  0.00  0.00    -0.205 F 
ENDBRANCH   1   2
BRANCH   1  13
ATOM     10  C   UNL     1       1.573  -3.814   2.306  0.00  0.00    +0.039 C 
ATOM     11  C   UNL     1       0.742  -2.712   1.646  0.00  0.00    +0.129 C 
ATOM     12  C   UNL     1      -0.612  -3.282   1.215  0.00  0.00    +0.116 C 
ATOM     13  N   UNL     1      -1.376  -2.240   0.514  0.00  0.00    -0.289 NA
ATOM     14  C   UNL     1      -0.637  -1.753  -0.660  0.00  0.00    +0.113 C 
ATOM     15  C   UNL     1       0.717  -1.198  -0.210  0.00  0.00    +0.175 C 
ATOM     16  O   UNL     1       1.433  -2.215   0.497  0.00  0.00    -0.374 OA
ENDBRANCH   1  13
BRANCH   1  17
ATOM     17  C   UNL     1      -2.635  -4.231  -0.156  0.00  0.00    +0.126 C 
BRANCH  17  18
ATOM     18  N   UNL     1      -1.725  -4.469  -1.279  0.00  0.00    -0.325 N 
ATOM     19  H   UNL     1      -1.379  -3.720  -1.790  0.00  0.00    +0.148 HD
BRANCH  18  20
ATOM     20  C   UNL     1      -1.359  -5.761  -1.611  0.00  0.00    +0.150 A 
ATOM     21  C   UNL     1      -0.487  -6.008  -2.685  0.00  0.00    +0.147 A 
ATOM     22  C   UNL     1      -0.151  -7.342  -2.974  0.00  0.00    +0.163 A 
ATOM     23  N   UNL     1       0.699  -7.293  -4.050  0.00  0.00    -0.329 N 
ATOM     24  C   UNL     1       0.860  -5.981  -4.384  0.00  0.00    +0.198 A 
ATOM     25  N   UNL     1       0.164  -5.229  -3.583  0.00  0.00    -0.231 NA
ATOM     26  H   UNL     1       1.110  -8.053  -4.491  0.00  0.00    +0.168 HD
ATOM     27  N   UNL     1      -0.666  -8.314  -2.228  0.00  0.00    -0.216 NA
ATOM     28  C   UNL     1      -1.480  -8.035  -1.231  0.00  0.00    +0.225 A 
ATOM     29  N   UNL     1      -1.820  -6.798  -0.918  0.00  0.00    -0.219 NA
ENDBRANCH  18  20
ENDBRANCH  17  18
ENDBRANCH   1  17
TORSDOF 5
