REMARK  Name = ZINC38611580
REMARK  4 active torsions:
REMARK  status: ('A' for Active; 'I' for Inactive)
REMARK    1  A    between atoms: C_1  and  C_2
REMARK    2  A    between atoms: C_4  and  C_8
REMARK    3  A    between atoms: N_10  and  N_11
REMARK    4  A    between atoms: C_12  and  C_13
REMARK                            x       y       z     vdW  Elec       q    Type
REMARK                         _______ _______ _______ _____ _____    ______ ____
ROOT
ATOM      1  C   UNL     1      -1.085  -2.916   1.228  0.00  0.00    +0.255 C 
ATOM      2  O   UNL     1      -0.331  -3.080   2.164  0.00  0.00    -0.272 OA
ATOM      3  N   UNL     1      -2.350  -3.378   1.292  0.00  0.00    -0.205 N 
ATOM      4  H   UNL     1      -2.953  -3.248   0.544  0.00  0.00    +0.177 HD
ENDROOT
BRANCH   1   8
ATOM      5  C   UNL     1      -0.018   1.503   0.010  0.00  0.00    +0.061 C 
ATOM      6  C   UNL     1       0.002  -0.004   0.002  0.00  0.00    +0.014 C 
ATOM      7  C   UNL     1      -1.078  -0.758   0.003  0.00  0.00    +0.022 C 
ATOM      8  C   UNL     1      -0.608  -2.197  -0.008  0.00  0.00    +0.184 C 
ATOM      9  N   UNL     1       0.865  -2.098  -0.014  0.00  0.00    -0.227 NA
ATOM     10  N   UNL     1       1.155  -0.763  -0.014  0.00  0.00    -0.284 N 
ATOM     11  H   UNL     1       1.262  -2.558   0.791  0.00  0.00    +0.145 HD
ATOM     12  H   UNL     1       2.054  -0.397  -0.021  0.00  0.00    +0.166 HD
ENDBRANCH   1   8
BRANCH   3  13
ATOM     13  N   UNL     1      -2.793  -4.047   2.441  0.00  0.00    -0.185 NA
ATOM     14  C   UNL     1      -4.014  -4.493   2.503  0.00  0.00    +0.176 C 
BRANCH  14  15
ATOM     15  C   UNL     1      -4.478  -5.193   3.704  0.00  0.00    +0.149 A 
ATOM     16  C   UNL     1      -5.725  -5.713   3.898  0.00  0.00    +0.052 A 
ATOM     17  C   UNL     1      -5.728  -6.290   5.181  0.00  0.00    +0.057 A 
ATOM     18  C   UNL     1      -4.499  -6.098   5.705  0.00  0.00    +0.171 A 
ATOM     19  O   UNL     1      -3.745  -5.441   4.809  0.00  0.00    -0.447 OA
ATOM     20 BR   UNL     1      -3.930  -6.667   7.417  0.00  0.00    -0.008 Br
ENDBRANCH  14  15
ENDBRANCH   3  13
TORSDOF 3
