REMARK  Name = ZINC15421095
REMARK  9 active torsions:
REMARK  status: ('A' for Active; 'I' for Inactive)
REMARK    1  A    between atoms: C_1  and  C_2
REMARK    2  A    between atoms: C_5  and  C_26
REMARK    3  A    between atoms: C_6  and  S_8
REMARK    4  A    between atoms: S_8  and  C_11
REMARK    5  A    between atoms: C_11  and  C_12
REMARK    6  A    between atoms: C_12  and  S_13
REMARK    7  A    between atoms: S_13  and  C_14
REMARK    8  A    between atoms: N_18  and  C_19
REMARK    9  A    between atoms: C_22  and  O_25
REMARK                            x       y       z     vdW  Elec       q    Type
REMARK                         _______ _______ _______ _____ _____    ______ ____
ROOT
ATOM      1  S   UNL     1      -3.864  -5.635   3.332  0.00  0.00    -0.083 S 
ENDROOT
BRANCH   1   2
ATOM      2  C   UNL     1      -4.052  -6.578   4.809  0.00  0.00    +0.214 A 
ATOM      3  N   UNL     1      -3.178  -6.681   5.787  0.00  0.00    -0.101 NA
ATOM      4  N   UNL     1      -3.630  -7.447   6.714  0.00  0.00    -0.022 NA
ATOM      5  N   UNL     1      -4.803  -7.883   6.406  0.00  0.00    -0.038 NA
ATOM      6  N   UNL     1      -5.127  -7.330   5.154  0.00  0.00    -0.187 N 
BRANCH   6   7
ATOM      7  C   UNL     1      -6.307  -7.518   4.419  0.00  0.00    +0.070 A 
ATOM      8  C   UNL     1      -6.821  -6.480   3.654  0.00  0.00    +0.031 A 
ATOM      9  C   UNL     1      -7.983  -6.665   2.931  0.00  0.00    +0.047 A 
ATOM     10  C   UNL     1      -8.636  -7.889   2.969  0.00  0.00    +0.117 A 
ATOM     11  C   UNL     1      -8.123  -8.926   3.734  0.00  0.00    +0.047 A 
ATOM     12  C   UNL     1      -6.959  -8.744   4.453  0.00  0.00    +0.031 A 
BRANCH  10  13
ATOM     13  O   UNL     1      -9.780  -8.071   2.257  0.00  0.00    -0.507 OA
ATOM     14  H   UNL     1      -9.636  -8.398   1.358  0.00  0.00    +0.292 HD
ENDBRANCH  10  13
ENDBRANCH   6   7
ENDBRANCH   1   2
BRANCH   1  15
ATOM     15  C   UNL     1      -2.222  -4.883   3.497  0.00  0.00    +0.100 C 
BRANCH  15  16
ATOM     16  C   UNL     1      -1.927  -4.025   2.265  0.00  0.00    +0.183 C 
BRANCH  16  17
ATOM     17  S   UNL     1      -0.285  -3.273   2.431  0.00  0.00    -0.002 S 
ATOM     18  O   UNL     1       0.719  -4.278   2.397  0.00  0.00    -0.169 OA
ATOM     19  O   UNL     1      -0.296  -2.294   3.461  0.00  0.00    -0.169 OA
BRANCH  17  25
ATOM     20  C   UNL     1       2.230  -2.378  -2.063  0.00  0.00    +0.044 C 
ATOM     21  C   UNL     1       1.134  -1.992  -1.104  0.00  0.00    -0.049 A 
ATOM     22  C   UNL     1       0.309  -0.921  -1.391  0.00  0.00    +0.004 A 
ATOM     23  C   UNL     1      -0.697  -0.567  -0.511  0.00  0.00    +0.005 A 
ATOM     24  C   UNL     1      -0.878  -1.286   0.656  0.00  0.00    -0.026 A 
ATOM     25  C   UNL     1      -0.054  -2.358   0.943  0.00  0.00    +0.091 A 
ATOM     26  C   UNL     1       0.949  -2.714   0.061  0.00  0.00    +0.030 A 
ATOM     27  C   UNL     1      -1.974  -0.900   1.616  0.00  0.00    +0.046 C 
ENDBRANCH  17  25
ENDBRANCH  16  17
ENDBRANCH  15  16
ENDBRANCH   1  15
TORSDOF 7
