REMARK  Name = ZINC11936512
REMARK  8 active torsions:
REMARK  status: ('A' for Active; 'I' for Inactive)
REMARK    1  A    between atoms: C_1  and  N_2
REMARK    2  A    between atoms: N_2  and  C_3
REMARK    3  A    between atoms: C_3  and  C_4
REMARK    4  A    between atoms: C_4  and  C_5
REMARK    5  A    between atoms: C_15  and  C_17
REMARK    6  A    between atoms: C_17  and  C_18
REMARK    7  A    between atoms: C_25  and  C_26
REMARK    8  A    between atoms: C_25  and  N_57
REMARK                            x       y       z     vdW  Elec       q    Type
REMARK                         _______ _______ _______ _____ _____    ______ ____
ROOT
ATOM      1  C   UNL     1      -2.655   2.601   2.493  0.00  0.00    +0.090 C 
ENDROOT
BRANCH   1   2
ATOM      2  C   UNL     1      -4.097   2.895   2.072  0.00  0.00    +0.028 C 
ATOM      3  C   UNL     1      -4.092   3.700   0.803  0.00  0.00    +0.200 C 
ATOM      4  O   UNL     1      -3.296   4.609   0.695  0.00  0.00    -0.278 OA
ATOM      5  N   UNL     1      -4.928   3.456  -0.211  0.00  0.00    -0.318 N 
ATOM      6  C   UNL     1      -5.898   2.365  -0.196  0.00  0.00    +0.085 C 
ATOM      7  C   UNL     1      -6.120   1.882   1.239  0.00  0.00    -0.058 C 
ATOM      8  H   UNL     1      -4.888   4.030  -0.993  0.00  0.00    +0.149 HD
ATOM      9  N   UNL     1      -4.799   1.618   1.842  0.00  0.00    +0.391 N 
ATOM     10  H   UNL     1      -4.245   1.042   1.198  0.00  0.00    -0.080 HD
BRANCH   9  11
ATOM     11  C   UNL     1      -4.960   0.891   3.122  0.00  0.00    -0.039 C 
BRANCH  11  12
ATOM     12  C   UNL     1      -5.780  -0.350   2.884  0.00  0.00    -0.029 A 
ATOM     13  C   UNL     1      -5.153  -1.558   2.642  0.00  0.00    +0.004 A 
ATOM     14  C   UNL     1      -5.906  -2.697   2.424  0.00  0.00    +0.000 A 
ATOM     15  C   UNL     1      -7.287  -2.630   2.449  0.00  0.00    +0.003 A 
ATOM     16  C   UNL     1      -7.916  -1.423   2.690  0.00  0.00    +0.038 A 
ATOM     17  C   UNL     1      -7.163  -0.283   2.913  0.00  0.00    +0.125 A 
ATOM     18  F   UNL     1      -7.777   0.896   3.155  0.00  0.00    -0.205 F 
ENDBRANCH  11  12
ENDBRANCH   9  11
ENDBRANCH   1   2
BRANCH   1  21
ATOM     19  C   UNL     1       0.105   1.985   2.674  0.00  0.00    +0.132 C 
ATOM     20  N   UNL     1      -0.666   1.490   1.530  0.00  0.00    -0.304 N 
ATOM     21  C   UNL     1      -1.980   1.775   1.429  0.00  0.00    +0.214 C 
ATOM     22  O   UNL     1      -2.618   1.366   0.483  0.00  0.00    -0.276 OA
BRANCH  20  23
ATOM     23  C   UNL     1      -0.009   0.687   0.496  0.00  0.00    +0.115 C 
BRANCH  23  24
ATOM     24  C   UNL     1      -0.097  -0.794   0.869  0.00  0.00    +0.093 C 
BRANCH  24  25
ATOM     25  C   UNL     1       0.579  -1.621  -0.195  0.00  0.00    +0.110 A 
ATOM     26  N   UNL     1       1.583  -2.511   0.030  0.00  0.00    -0.342 N 
ATOM     27  H   UNL     1       1.996  -2.726   0.915  0.00  0.00    +0.167 HD
ATOM     28  C   UNL     1       1.925  -3.060  -1.189  0.00  0.00    +0.066 A 
ATOM     29  C   UNL     1       2.858  -4.005  -1.596  0.00  0.00    +0.028 A 
ATOM     30  C   UNL     1       2.954  -4.339  -2.930  0.00  0.00    +0.002 A 
ATOM     31  C   UNL     1       2.126  -3.737  -3.867  0.00  0.00    +0.002 A 
ATOM     32  C   UNL     1       1.203  -2.805  -3.485  0.00  0.00    +0.030 A 
ATOM     33  C   UNL     1       1.087  -2.451  -2.138  0.00  0.00    +0.089 A 
ATOM     34  N   UNL     1       0.290  -1.584  -1.463  0.00  0.00    -0.232 NA
ENDBRANCH  24  25
ENDBRANCH  23  24
ENDBRANCH  20  23
ENDBRANCH   1  21
TORSDOF 7
