REMARK  Name = ZINC01213074
REMARK  7 active torsions:
REMARK  status: ('A' for Active; 'I' for Inactive)
REMARK    1  A    between atoms: C_1  and  C_2
REMARK    2  A    between atoms: C_3  and  C_24
REMARK    3  A    between atoms: C_4  and  C_14
REMARK    4  A    between atoms: C_16  and  N_21
REMARK    5  A    between atoms: C_24  and  O_26
REMARK    6  A    between atoms: O_26  and  C_27
REMARK    7  A    between atoms: C_27  and  C_28
REMARK                            x       y       z     vdW  Elec       q    Type
REMARK                         _______ _______ _______ _____ _____    ______ ____
ROOT
ATOM      1  C   UNL     1      -6.554  -1.183   1.815  0.00  0.00    +0.061 C 
ATOM      2  C   UNL     1      -5.718  -0.835   3.019  0.00  0.00    +0.016 C 
ATOM      3  C   UNL     1      -4.440  -0.450   2.856  0.00  0.00    +0.065 C 
ATOM      4  C   UNL     1      -3.578  -0.094   4.032  0.00  0.00    +0.094 C 
ATOM      5  C   UNL     1      -4.168  -0.619   5.315  0.00  0.00    +0.024 C 
ATOM      6  C   UNL     1      -5.463  -0.994   5.377  0.00  0.00    +0.015 C 
ATOM      7  N   UNL     1      -6.264  -0.912   4.270  0.00  0.00    -0.321 N 
ATOM      8  C   UNL     1      -6.062  -1.507   6.663  0.00  0.00    +0.051 C 
ATOM      9  C   UNL     1      -4.986  -2.226   7.480  0.00  0.00    +0.014 C 
ATOM     10  C   UNL     1      -3.843  -1.242   7.752  0.00  0.00    +0.080 C 
ATOM     11  C   UNL     1      -3.330  -0.712   6.441  0.00  0.00    +0.162 C 
ATOM     12  O   UNL     1      -2.171  -0.359   6.353  0.00  0.00    -0.292 OA
ATOM     13  H   UNL     1      -7.357  -0.910   4.394  0.00  0.00    +0.152 HD
ENDROOT
BRANCH   4  14
ATOM     14  C   UNL     1      -3.461   1.405   4.124  0.00  0.00    -0.015 A 
ATOM     15  C   UNL     1      -4.594   2.179   4.289  0.00  0.00    +0.038 A 
ATOM     16  C   UNL     1      -4.486   3.554   4.374  0.00  0.00    +0.127 A 
ATOM     17  C   UNL     1      -3.245   4.157   4.293  0.00  0.00    +0.034 A 
ATOM     18  C   UNL     1      -2.111   3.385   4.128  0.00  0.00    +0.022 A 
ATOM     19  C   UNL     1      -2.217   2.008   4.048  0.00  0.00    +0.045 A 
ATOM     20 CL   UNL     1      -0.793   1.036   3.847  0.00  0.00    -0.083 Cl
BRANCH  16  21
ATOM     21  N   UNL     1      -5.700   4.382   4.551  0.00  0.00    +0.056 N 
ATOM     22  O   UNL     1      -6.794   3.851   4.622  0.00  0.00    -0.126 OA
ATOM     23  O   UNL     1      -5.606   5.594   4.626  0.00  0.00    -0.126 OA
ENDBRANCH  16  21
ENDBRANCH   4  14
BRANCH   3  24
ATOM     24  C   UNL     1      -3.897  -0.384   1.552  0.00  0.00    +0.338 C 
ATOM     25  O   UNL     1      -4.541  -0.789   0.603  0.00  0.00    -0.245 OA
BRANCH  24  26
ATOM     26  O   UNL     1      -2.663   0.130   1.360  0.00  0.00    -0.457 OA
BRANCH  26  27
ATOM     27  C   UNL     1      -2.177   0.165   0.017  0.00  0.00    +0.268 C 
BRANCH  27  28
ATOM     28  C   UNL     1      -0.795   0.766  -0.001  0.00  0.00    -0.010 A 
ATOM     29  C   UNL     1       0.314  -0.048   0.134  0.00  0.00    +0.007 A 
ATOM     30  C   UNL     1       1.582   0.502   0.111  0.00  0.00    +0.000 A 
ATOM     31  C   UNL     1       1.740   1.867  -0.040  0.00  0.00    +0.000 A 
ATOM     32  C   UNL     1       0.631   2.682  -0.169  0.00  0.00    +0.000 A 
ATOM     33  C   UNL     1      -0.637   2.131  -0.147  0.00  0.00    +0.007 A 
ENDBRANCH  27  28
ENDBRANCH  26  27
ENDBRANCH  24  26
ENDBRANCH   3  24
TORSDOF 6
