REMARK  Name = ZINC66408010
REMARK  6 active torsions:
REMARK  status: ('A' for Active; 'I' for Inactive)
REMARK    1  A    between atoms: C_1  and  C_2
REMARK    2  A    between atoms: C_4  and  C_23
REMARK    3  A    between atoms: C_11  and  C_12
REMARK    4  A    between atoms: C_15  and  O_19
REMARK    5  A    between atoms: C_16  and  O_18
REMARK    6  A    between atoms: O_19  and  C_20
REMARK                            x       y       z     vdW  Elec       q    Type
REMARK                         _______ _______ _______ _____ _____    ______ ____
ROOT
ATOM      1  C   UNL     1      -0.749   1.264  -0.430  0.00  0.00    +0.044 C 
ATOM      2  C   UNL     1      -0.415  -0.193  -0.236  0.00  0.00    -0.047 A 
ATOM      3  C   UNL     1      -0.388  -1.042  -1.330  0.00  0.00    +0.007 A 
ATOM      4  C   UNL     1      -0.090  -2.378  -1.159  0.00  0.00    -0.036 A 
ATOM      5  C   UNL     1       0.187  -2.865   0.116  0.00  0.00    +0.067 A 
ATOM      6  C   UNL     1       0.172  -2.008   1.224  0.00  0.00    +0.132 A 
ATOM      7  C   UNL     1      -0.134  -0.665   1.030  0.00  0.00    +0.049 A 
ATOM      8  O   UNL     1       0.468  -2.445   2.470  0.00  0.00    -0.487 OA
ATOM      9  C   UNL     1       0.304  -3.825   2.794  0.00  0.00    +0.268 C 
ATOM     10  C   UNL     1       0.936  -4.655   1.689  0.00  0.00    +0.038 C 
ATOM     11  C   UNL     1       1.832  -5.637   1.936  0.00  0.00    +0.018 C 
ATOM     12  C   UNL     1       0.494  -4.304   0.320  0.00  0.00    +0.196 C 
ATOM     13  O   UNL     1       0.392  -5.130  -0.569  0.00  0.00    -0.287 OA
ATOM     14  C   UNL     1      -0.064  -3.306  -2.347  0.00  0.00    +0.044 C 
ENDROOT
BRANCH  11  15
ATOM     15  C   UNL     1       2.088  -6.067   3.317  0.00  0.00    -0.021 A 
ATOM     16  C   UNL     1       1.051  -6.062   4.258  0.00  0.00    +0.012 A 
ATOM     17  C   UNL     1       1.294  -6.466   5.552  0.00  0.00    +0.050 A 
ATOM     18  C   UNL     1       2.566  -6.878   5.927  0.00  0.00    +0.161 A 
ATOM     19  C   UNL     1       3.604  -6.886   4.997  0.00  0.00    +0.159 A 
ATOM     20  C   UNL     1       3.369  -6.488   3.696  0.00  0.00    +0.057 A 
BRANCH  19  21
ATOM     21  O   UNL     1       4.848  -7.290   5.369  0.00  0.00    -0.503 OA
ATOM     22  H   UNL     1       5.004  -8.237   5.256  0.00  0.00    +0.292 HD
ENDBRANCH  19  21
BRANCH  18  23
ATOM     23  O   UNL     1       2.799  -7.275   7.205  0.00  0.00    -0.491 OA
ATOM     24  C   UNL     1       1.691  -7.243   8.107  0.00  0.00    +0.277 C 
ENDBRANCH  18  23
ENDBRANCH  11  15
TORSDOF 3
