REMARK  Name = ZINC16163853
REMARK  8 active torsions:
REMARK  status: ('A' for Active; 'I' for Inactive)
REMARK    1  A    between atoms: C_1  and  C_2
REMARK    2  A    between atoms: C_3  and  S_8
REMARK    3  A    between atoms: C_4  and  C_7
REMARK    4  A    between atoms: S_8  and  N_11
REMARK    5  A    between atoms: C_15  and  C_18
REMARK    6  A    between atoms: C_18  and  O_20
REMARK    7  A    between atoms: O_20  and  C_21
REMARK    8  A    between atoms: C_21  and  C_22
REMARK                            x       y       z     vdW  Elec       q    Type
REMARK                         _______ _______ _______ _____ _____    ______ ____
ROOT
ATOM      1  N   UNL     1      -3.750   1.659  -0.106  0.00  0.00    -0.176 NA
ATOM      2  C   UNL     1      -3.917   2.606  -1.217  0.00  0.00    +0.109 C 
ATOM      3  C   UNL     1      -2.750   3.598  -1.199  0.00  0.00    +0.018 C 
ATOM      4  C   UNL     1      -1.429   2.825  -1.225  0.00  0.00    +0.017 C 
ATOM      5  C   UNL     1      -1.329   1.940   0.019  0.00  0.00    +0.113 C 
ATOM      6  C   UNL     1      -2.481   0.929   0.015  0.00  0.00    +0.124 C 
ENDROOT
BRANCH   1   7
ATOM      7  S   UNL     1      -4.970   1.418   0.988  0.00  0.00    +0.066 S 
ATOM      8  O   UNL     1      -4.359   0.938   2.178  0.00  0.00    -0.153 OA
ATOM      9  O   UNL     1      -5.774   2.589   0.964  0.00  0.00    -0.153 OA
BRANCH   7  12
ATOM     10  C   UNL     1      -7.709   1.456  -1.036  0.00  0.00    +0.071 C 
ATOM     11  C   UNL     1      -7.103   0.197  -0.472  0.00  0.00    +0.107 A 
ATOM     12  C   UNL     1      -5.971   0.106   0.371  0.00  0.00    +0.170 A 
ATOM     13  C   UNL     1      -5.839  -1.222   0.599  0.00  0.00    +0.161 A 
ATOM     14  O   UNL     1      -6.828  -1.824  -0.077  0.00  0.00    -0.358 OA
ATOM     15  N   UNL     1      -7.516  -1.022  -0.666  0.00  0.00    -0.081 NA
ATOM     16  C   UNL     1      -4.787  -1.892   1.446  0.00  0.00    +0.091 C 
ENDBRANCH   7  12
ENDBRANCH   1   7
BRANCH   5  17
ATOM     17  C   UNL     1      -0.014   1.204   0.009  0.00  0.00    +0.312 C 
ATOM     18  O   UNL     1       0.002  -0.004   0.002  0.00  0.00    -0.250 OA
BRANCH  17  19
ATOM     19  O   UNL     1       1.139   1.891   0.001  0.00  0.00    -0.460 OA
BRANCH  19  20
ATOM     20  C   UNL     1       2.367   1.117  -0.015  0.00  0.00    +0.268 C 
BRANCH  20  21
ATOM     21  C   UNL     1       3.550   2.051  -0.021  0.00  0.00    -0.003 A 
ATOM     22  C   UNL     1       3.357   3.398  -0.012  0.00  0.00    +0.007 A 
ATOM     23  C   UNL     1       4.438   4.278  -0.017  0.00  0.00    +0.001 A 
ATOM     24  C   UNL     1       5.718   3.815  -0.032  0.00  0.00    +0.008 A 
ATOM     25  C   UNL     1       5.956   2.430  -0.041  0.00  0.00    -0.018 A 
ATOM     26  C   UNL     1       4.857   1.536  -0.030  0.00  0.00    -0.011 A 
ATOM     27  C   UNL     1       5.095   0.151  -0.044  0.00  0.00    +0.009 A 
ATOM     28  C   UNL     1       6.375  -0.312  -0.059  0.00  0.00    +0.001 A 
ATOM     29  C   UNL     1       7.456   0.567  -0.065  0.00  0.00    +0.001 A 
ATOM     30  C   UNL     1       7.264   1.914  -0.056  0.00  0.00    +0.008 A 
ENDBRANCH  20  21
ENDBRANCH  19  20
ENDBRANCH  17  19
ENDBRANCH   5  17
TORSDOF 6
