REMARK  Name = ZINC54067489
REMARK  4 active torsions:
REMARK  status: ('A' for Active; 'I' for Inactive)
REMARK    1  A    between atoms: C_1  and  C_2
REMARK    2  A    between atoms: N_11  and  C_12
REMARK    3  A    between atoms: C_12  and  C_14
REMARK    4  A    between atoms: C_12  and  C_15
REMARK                            x       y       z     vdW  Elec       q    Type
REMARK                         _______ _______ _______ _____ _____    ______ ____
ROOT
ATOM      1  C   UNL     1      -2.989  -2.452   1.982  0.00  0.00    +0.009 C 
ATOM      2  C   UNL     1      -1.562  -1.937   2.175  0.00  0.00    +0.003 C 
ATOM      3  C   UNL     1      -1.545  -0.413   2.034  0.00  0.00    +0.006 C 
ATOM      4  C   UNL     1      -0.124   0.107   2.259  0.00  0.00    +0.019 C 
ATOM      5  C   UNL     1       0.807  -0.487   1.198  0.00  0.00    +0.109 C 
ATOM      6  N   UNL     1       0.688  -1.951   1.230  0.00  0.00    -0.285 N 
ATOM      7  C   UNL     1      -0.646  -2.555   1.114  0.00  0.00    +0.112 C 
ATOM      8  C   UNL     1       1.782  -2.727   1.365  0.00  0.00    +0.303 C 
ATOM      9  O   UNL     1       2.889  -2.222   1.366  0.00  0.00    -0.253 OA
ATOM     10  N   UNL     1       1.650  -4.061   1.498  0.00  0.00    -0.293 N 
ATOM     11  H   UNL     1       0.775  -4.473   1.419  0.00  0.00    +0.151 HD
ENDROOT
BRANCH  10  12
ATOM     12  C   UNL     1       2.828  -4.891   1.762  0.00  0.00    +0.104 C 
ATOM     13  C   UNL     1       3.042  -5.008   3.272  0.00  0.00    +0.033 C 
BRANCH  12  14
ATOM     14  C   UNL     1       2.617  -6.264   1.177  0.00  0.00    +0.008 A 
ATOM     15  C   UNL     1       1.336  -6.760   1.024  0.00  0.00    +0.011 A 
ATOM     16  C   UNL     1       1.140  -8.018   0.488  0.00  0.00    +0.039 A 
ATOM     17  C   UNL     1       2.228  -8.785   0.104  0.00  0.00    +0.126 A 
ATOM     18  C   UNL     1       3.511  -8.289   0.257  0.00  0.00    +0.077 A 
ATOM     19  C   UNL     1       3.706  -7.026   0.789  0.00  0.00    +0.131 A 
ATOM     20  F   UNL     1       4.957  -6.539   0.933  0.00  0.00    -0.205 F 
ATOM     21  F   UNL     1       2.037 -10.015  -0.420  0.00  0.00    -0.205 F 
ENDBRANCH  12  14
ENDBRANCH  10  12
TORSDOF 2
