REMARK  Name = ZINC39325323
REMARK  3 active torsions:
REMARK  status: ('A' for Active; 'I' for Inactive)
REMARK    1  A    between atoms: C_5  and  C_7
REMARK    2  A    between atoms: C_19  and  N_23
REMARK    3  A    between atoms: C_20  and  C_21
REMARK                            x       y       z     vdW  Elec       q    Type
REMARK                         _______ _______ _______ _____ _____    ______ ____
ROOT
ATOM      1  C   UNL     1       1.228  -2.186  -0.022  0.00  0.00    +0.088 C 
ATOM      2  C   UNL     1       0.523  -2.715   1.234  0.00  0.00    +0.171 C 
ATOM      3  C   UNL     1       1.427  -2.572   2.423  0.00  0.00    +0.233 C 
ATOM      4  O   UNL     1       1.827  -1.471   2.733  0.00  0.00    -0.274 OA
ATOM      5  N   UNL     1       1.803  -3.636   3.150  0.00  0.00    -0.238 N 
ATOM      6  C   UNL     1       1.393  -4.876   2.840  0.00  0.00    +0.332 C 
ATOM      7  O   UNL     1       1.736  -5.808   3.542  0.00  0.00    -0.250 OA
ATOM      8  N   UNL     1       0.613  -5.112   1.774  0.00  0.00    -0.131 NA
ATOM      9  C   UNL     1       0.183  -4.166   0.991  0.00  0.00    +0.204 C 
ATOM     10  O   UNL     1      -0.580  -4.448  -0.088  0.00  0.00    -0.428 OA
ATOM     11  C   UNL     1      -0.314  -3.759  -1.219  0.00  0.00    +0.200 C 
ATOM     12  C   UNL     1       0.512  -2.691  -1.246  0.00  0.00    +0.095 C 
ATOM     13  H   UNL     1       2.383  -3.506   3.917  0.00  0.00    +0.159 HD
ENDROOT
BRANCH   1  18
ATOM     14  C   UNL     1      -0.017   1.378   0.010  0.00  0.00    +0.000 A 
ATOM     15  C   UNL     1       1.171   2.087   0.002  0.00  0.00    +0.003 A 
ATOM     16  C   UNL     1       2.377   1.414  -0.013  0.00  0.00    +0.038 A 
ATOM     17  C   UNL     1       2.397   0.029  -0.021  0.00  0.00    +0.127 A 
ATOM     18  C   UNL     1       1.208  -0.679  -0.013  0.00  0.00    -0.003 A 
ATOM     19  C   UNL     1       0.002  -0.004   0.002  0.00  0.00    +0.007 A 
ATOM     20  F   UNL     1       3.577  -0.630  -0.036  0.00  0.00    -0.205 F 
ENDBRANCH   1  18
BRANCH  11  21
ATOM     21  N   UNL     1      -0.906  -4.161  -2.390  0.00  0.00    -0.328 N 
ATOM     22  H   UNL     1      -1.503  -4.926  -2.394  0.00  0.00    +0.145 HD
ATOM     23  H   UNL     1      -0.729  -3.680  -3.214  0.00  0.00    +0.145 HD
ENDBRANCH  11  21
BRANCH  12  24
ATOM     24  C   UNL     1       0.715  -2.010  -2.489  0.00  0.00    +0.100 C 
ATOM     25  N   UNL     1       0.875  -1.469  -3.475  0.00  0.00    -0.191 NA
ENDBRANCH  12  24
TORSDOF 3
