REMARK  Name = ZINC63258845
REMARK  7 active torsions:
REMARK  status: ('A' for Active; 'I' for Inactive)
REMARK    1  A    between atoms: C_1  and  C_2
REMARK    2  A    between atoms: C_4  and  C_9
REMARK    3  A    between atoms: C_5  and  C_8
REMARK    4  A    between atoms: C_9  and  S_10
REMARK    5  A    between atoms: S_10  and  C_11
REMARK    6  A    between atoms: C_14  and  C_23
REMARK    7  A    between atoms: N_15  and  C_16
REMARK                            x       y       z     vdW  Elec       q    Type
REMARK                         _______ _______ _______ _____ _____    ______ ____
ROOT
ATOM      1  C   UNL     1      -4.359   1.490  -2.064  0.00  0.00    +0.197 A 
ATOM      2  N   UNL     1      -4.706   0.533  -2.913  0.00  0.00    -0.122 NA
ATOM      3  N   UNL     1      -5.637   0.951  -3.695  0.00  0.00    -0.128 NA
ATOM      4  C   UNL     1      -5.946   2.205  -3.396  0.00  0.00    +0.168 A 
ATOM      5  N   UNL     1      -5.134   2.578  -2.336  0.00  0.00    -0.270 N 
ENDROOT
BRANCH   4   6
ATOM      6  C   UNL     1      -6.913   3.001  -4.027  0.00  0.00    +0.025 C 
ATOM      7  C   UNL     1      -7.744   2.637  -5.087  0.00  0.00    +0.006 A 
ATOM      8  C   UNL     1      -7.883   1.440  -5.822  0.00  0.00    +0.010 A 
ATOM      9  C   UNL     1      -8.796   1.367  -6.823  0.00  0.00    +0.001 A 
ATOM     10  C   UNL     1      -9.611   2.453  -7.151  0.00  0.00    +0.002 A 
ATOM     11  C   UNL     1      -9.532   3.632  -6.488  0.00  0.00    +0.026 A 
ATOM     12  C   UNL     1      -8.601   3.784  -5.428  0.00  0.00    +0.043 A 
ATOM     13  N   UNL     1      -8.334   4.809  -4.642  0.00  0.00    -0.380 N 
ATOM     14  C   UNL     1      -7.277   4.432  -3.698  0.00  0.00    +0.152 C 
ATOM     15  H   UNL     1      -8.771   5.674  -4.679  0.00  0.00    +0.160 HD
ENDBRANCH   4   6
BRANCH   5  16
ATOM     16  C   UNL     1      -5.113   3.817  -1.681  0.00  0.00    +0.051 A 
ATOM     17  C   UNL     1      -6.218   4.239  -0.955  0.00  0.00    +0.028 A 
ATOM     18  C   UNL     1      -6.194   5.460  -0.311  0.00  0.00    +0.022 A 
ATOM     19  C   UNL     1      -5.070   6.263  -0.389  0.00  0.00    +0.041 A 
ATOM     20  C   UNL     1      -3.967   5.845  -1.113  0.00  0.00    +0.022 A 
ATOM     21  C   UNL     1      -3.984   4.622  -1.754  0.00  0.00    +0.028 A 
ATOM     22 CL   UNL     1      -5.043   7.798   0.421  0.00  0.00    -0.084 Cl
ENDBRANCH   5  16
BRANCH   1  23
ATOM     23  S   UNL     1      -3.128   1.373  -0.809  0.00  0.00    -0.081 S 
BRANCH  23  24
ATOM     24  C   UNL     1      -2.483  -0.314  -0.982  0.00  0.00    +0.112 C 
BRANCH  24  27
ATOM     25  C   UNL     1      -0.019   1.526   0.010  0.00  0.00    +0.045 C 
ATOM     26  C   UNL     1       0.002  -0.004   0.002  0.00  0.00    +0.174 C 
ATOM     27  C   UNL     1      -1.407  -0.548   0.046  0.00  0.00    -0.008 C 
ATOM     28  C   UNL     1      -1.526  -1.263   1.145  0.00  0.00    +0.038 C 
ATOM     29  N   UNL     1      -0.345  -1.271   1.865  0.00  0.00    -0.269 N 
ATOM     30  O   UNL     1       0.636  -0.500   1.190  0.00  0.00    -0.267 OA
ATOM     31  C   UNL     1      -2.784  -1.980   1.564  0.00  0.00    +0.065 C 
ATOM     32  H   UNL     1      -0.208  -1.735   2.706  0.00  0.00    +0.194 HD
ENDBRANCH  24  27
ENDBRANCH  23  24
ENDBRANCH   1  23
TORSDOF 5
