REMARK  Name = ZINC51237175
REMARK  3 active torsions:
REMARK  status: ('A' for Active; 'I' for Inactive)
REMARK    1  A    between atoms: C_4  and  C_7
REMARK    2  A    between atoms: N_12  and  C_13
REMARK    3  A    between atoms: C_19  and  C_22
REMARK                            x       y       z     vdW  Elec       q    Type
REMARK                         _______ _______ _______ _____ _____    ______ ____
ROOT
ATOM      1  C   UNL     1       3.696  -0.685  -0.037  0.00  0.00    +0.055 A 
ATOM      2  C   UNL     1       4.874  -0.023  -0.040  0.00  0.00    +0.074 A 
ATOM      3  S   UNL     1       6.052  -1.362  -0.061  0.00  0.00    -0.060 S 
ATOM      4  C   UNL     1       4.977  -2.654  -0.065  0.00  0.00    +0.165 A 
ATOM      5  N   UNL     1       3.756  -2.052  -0.045  0.00  0.00    -0.335 N 
ATOM      6  N   UNL     1       5.253  -3.955  -0.080  0.00  0.00    -0.139 NA
ATOM      7  H   UNL     1       2.944  -2.582  -0.040  0.00  0.00    +0.168 HD
ENDROOT
BRANCH   6   8
ATOM      8  C   UNL     1       6.524  -4.368  -0.094  0.00  0.00    +0.328 C 
ATOM      9  O   UNL     1       7.430  -3.553  -0.092  0.00  0.00    -0.250 OA
ATOM     10  N   UNL     1       6.804  -5.687  -0.109  0.00  0.00    -0.279 N 
ATOM     11  C   UNL     1       5.727  -6.690  -0.117  0.00  0.00    +0.137 C 
ATOM     12  C   UNL     1       6.000  -7.683  -1.252  0.00  0.00    +0.180 C 
ATOM     13  O   UNL     1       7.334  -8.184  -1.128  0.00  0.00    -0.364 OA
ATOM     14  C   UNL     1       8.348  -7.184  -1.253  0.00  0.00    +0.221 C 
ATOM     15  C   UNL     1       8.195  -6.165  -0.124  0.00  0.00    +0.150 C 
BRANCH  14  16
ATOM     16  C   UNL     1       9.706  -7.832  -1.169  0.00  0.00    +0.241 C 
ATOM     17  O   UNL     1       9.799  -9.017  -0.927  0.00  0.00    -0.273 OA
ATOM     18  N   UNL     1      10.818  -7.095  -1.363  0.00  0.00    -0.327 N 
ATOM     19  H   UNL     1      10.744  -6.148  -1.557  0.00  0.00    +0.145 HD
ATOM     20  H   UNL     1      11.692  -7.512  -1.309  0.00  0.00    +0.145 HD
ENDBRANCH  14  16
ENDBRANCH   6   8
BRANCH   1  24
ATOM     21  C   UNL     1      -0.017   1.379   0.010  0.00  0.00    +0.000 A 
ATOM     22  C   UNL     1       1.168   2.093   0.002  0.00  0.00    +0.001 A 
ATOM     23  C   UNL     1       2.377   1.429  -0.013  0.00  0.00    +0.010 A 
ATOM     24  C   UNL     1       2.403   0.034  -0.021  0.00  0.00    -0.001 A 
ATOM     25  C   UNL     1       1.204  -0.680  -0.013  0.00  0.00    +0.010 A 
ATOM     26  C   UNL     1       0.002  -0.004   0.002  0.00  0.00    +0.001 A 
ENDBRANCH   1  24
TORSDOF 3
