REMARK  Name = ZINC20356710
REMARK  6 active torsions:
REMARK  status: ('A' for Active; 'I' for Inactive)
REMARK    1  A    between atoms: C_1  and  C_2
REMARK    2  A    between atoms: C_14  and  C_15
REMARK    3  A    between atoms: C_18  and  O_23
REMARK    4  A    between atoms: C_19  and  O_21
REMARK    5  A    between atoms: O_21  and  C_22
REMARK    6  A    between atoms: O_23  and  C_24
REMARK                            x       y       z     vdW  Elec       q    Type
REMARK                         _______ _______ _______ _____ _____    ______ ____
ROOT
ATOM      1  C   UNL     1      -0.808   2.876   2.959  0.00  0.00    +0.007 C 
ATOM      2  C   UNL     1      -0.535   1.429   2.541  0.00  0.00    -0.011 C 
ATOM      3  C   UNL     1      -1.853   0.750   2.163  0.00  0.00    +0.022 C 
ATOM      4  C   UNL     1      -1.571  -0.687   1.713  0.00  0.00    +0.107 C 
ATOM      5  N   UNL     1      -0.819  -1.375   2.771  0.00  0.00    -0.308 N 
ATOM      6  C   UNL     1       0.418  -0.761   3.273  0.00  0.00    +0.107 C 
ATOM      7  C   UNL     1       0.114   0.677   3.705  0.00  0.00    +0.022 C 
ATOM      8  C   UNL     1      -1.268  -2.581   3.286  0.00  0.00    +0.182 C 
ATOM      9  N   UNL     1      -0.736  -3.323   4.224  0.00  0.00    -0.149 NA
ATOM     10  N   UNL     1      -1.331  -4.501   4.622  0.00  0.00    -0.150 N 
ATOM     11  C   UNL     1      -0.897  -5.326   5.681  0.00  0.00    +0.153 C 
ATOM     12  N   UNL     1      -0.158  -4.895   6.669  0.00  0.00    -0.283 NA
ATOM     13  C   UNL     1      -1.364  -6.736   5.562  0.00  0.00    +0.081 C 
ATOM     14  C   UNL     1      -0.603  -7.792   6.010  0.00  0.00    +0.024 C 
ATOM     15  C   UNL     1      -2.693  -6.940   4.934  0.00  0.00    +0.273 C 
ATOM     16  O   UNL     1      -3.358  -7.934   5.180  0.00  0.00    -0.268 OA
ATOM     17  N   UNL     1      -3.143  -5.997   4.085  0.00  0.00    -0.152 NA
ATOM     18  C   UNL     1      -2.464  -4.886   3.941  0.00  0.00    +0.182 C 
ATOM     19  S   UNL     1      -2.727  -3.516   2.846  0.00  0.00    -0.018 S 
ATOM     20  H   UNL     1       0.175  -3.984   6.665  0.00  0.00    +0.188 HD
ENDROOT
BRANCH  14  21
ATOM     21  C   UNL     1       0.774  -7.566   6.455  0.00  0.00    -0.021 A 
ATOM     22  C   UNL     1       1.301  -8.312   7.519  0.00  0.00    +0.012 A 
ATOM     23  C   UNL     1       2.596  -8.097   7.934  0.00  0.00    +0.050 A 
ATOM     24  C   UNL     1       3.383  -7.143   7.301  0.00  0.00    +0.162 A 
ATOM     25  C   UNL     1       2.867  -6.396   6.242  0.00  0.00    +0.162 A 
ATOM     26  C   UNL     1       1.572  -6.607   5.814  0.00  0.00    +0.057 A 
BRANCH  25  27
ATOM     27  O   UNL     1       3.642  -5.463   5.627  0.00  0.00    -0.491 OA
ATOM     28  C   UNL     1       3.049  -4.735   4.549  0.00  0.00    +0.277 C 
ENDBRANCH  25  27
BRANCH  24  29
ATOM     29  O   UNL     1       4.659  -6.935   7.716  0.00  0.00    -0.491 OA
ATOM     30  C   UNL     1       5.125  -7.733   8.807  0.00  0.00    +0.277 C 
ENDBRANCH  24  29
ENDBRANCH  14  21
TORSDOF 3
