REMARK  Name = ZINC43175020
REMARK  7 active torsions:
REMARK  status: ('A' for Active; 'I' for Inactive)
REMARK    1  A    between atoms: C_1  and  C_2
REMARK    2  A    between atoms: N_5  and  S_11
REMARK    3  A    between atoms: C_7  and  C_10
REMARK    4  A    between atoms: S_11  and  C_14
REMARK    5  A    between atoms: C_14  and  C_15
REMARK    6  A    between atoms: C_15  and  N_16
REMARK    7  A    between atoms: N_19  and  C_20
REMARK                            x       y       z     vdW  Elec       q    Type
REMARK                         _______ _______ _______ _____ _____    ______ ____
ROOT
ATOM      1  N   UNL     1      -0.814  -4.603  -4.264  0.00  0.00    -0.298 N 
ATOM      2  C   UNL     1      -1.188  -5.423  -5.266  0.00  0.00    +0.304 C 
ATOM      3  O   UNL     1      -2.303  -5.910  -5.270  0.00  0.00    -0.253 OA
ATOM      4  N   UNL     1      -0.327  -5.704  -6.264  0.00  0.00    -0.268 N 
ATOM      5  H   UNL     1       0.074  -4.215  -4.261  0.00  0.00    +0.150 HD
ATOM      6  H   UNL     1       0.538  -5.266  -6.296  0.00  0.00    +0.156 HD
ENDROOT
BRANCH   4   7
ATOM      7  C   UNL     1      -0.680  -6.628  -7.255  0.00  0.00    +0.053 A 
ATOM      8  C   UNL     1      -1.998  -6.722  -7.681  0.00  0.00    +0.026 A 
ATOM      9  C   UNL     1      -2.345  -7.634  -8.658  0.00  0.00    +0.022 A 
ATOM     10  C   UNL     1      -1.379  -8.456  -9.213  0.00  0.00    +0.042 A 
ATOM     11  C   UNL     1      -0.065  -8.366  -8.791  0.00  0.00    +0.041 A 
ATOM     12  C   UNL     1       0.288  -7.450  -7.818  0.00  0.00    +0.064 A 
ATOM     13 CL   UNL     1       1.939  -7.331  -7.294  0.00  0.00    -0.082 Cl
ATOM     14 CL   UNL     1      -1.818  -9.602 -10.441  0.00  0.00    -0.083 Cl
ENDBRANCH   4   7
BRANCH   1  15
ATOM     15  C   UNL     1      -1.751  -4.298  -3.180  0.00  0.00    +0.130 C 
BRANCH  15  16
ATOM     16  C   UNL     1      -1.082  -3.351  -2.180  0.00  0.00    +0.204 C 
BRANCH  16  17
ATOM     17  S   UNL     1      -2.242  -2.973  -0.837  0.00  0.00    +0.033 S 
ATOM     18  O   UNL     1      -2.481  -4.136  -0.056  0.00  0.00    -0.158 OA
ATOM     19  O   UNL     1      -3.324  -2.195  -1.330  0.00  0.00    -0.158 OA
BRANCH  17  23
ATOM     20  C   UNL     1      -0.050   1.571  -0.041  0.00  0.00    +0.039 C 
ATOM     21  C   UNL     1      -0.025   0.041  -0.038  0.00  0.00    +0.131 C 
ATOM     22  C   UNL     1      -1.461  -0.494  -0.023  0.00  0.00    +0.140 C 
ATOM     23  N   UNL     1      -1.411  -1.953   0.168  0.00  0.00    -0.176 NA
ATOM     24  C   UNL     1      -0.600  -2.477   1.278  0.00  0.00    +0.140 C 
ATOM     25  C   UNL     1       0.794  -1.845   1.200  0.00  0.00    +0.131 C 
ATOM     26  O   UNL     1       0.664  -0.423   1.125  0.00  0.00    -0.371 OA
ATOM     27  C   UNL     1       1.518  -2.358  -0.046  0.00  0.00    +0.039 C 
ENDBRANCH  17  23
ENDBRANCH  16  17
ENDBRANCH  15  16
ENDBRANCH   1  15
TORSDOF 5
