REMARK  Name = ZINC61171842
REMARK  4 active torsions:
REMARK  status: ('A' for Active; 'I' for Inactive)
REMARK    1  A    between atoms: C_1  and  N_2
REMARK    2  A    between atoms: C_6  and  C_8
REMARK    3  A    between atoms: C_14  and  C_16
REMARK    4  A    between atoms: C_21  and  N_22
REMARK                            x       y       z     vdW  Elec       q    Type
REMARK                         _______ _______ _______ _____ _____    ______ ____
ROOT
ATOM      1  C   UNL     1       2.412   0.992  -0.091  0.00  0.00    +0.105 C 
ATOM      2  N   UNL     1       1.740  -0.300   0.100  0.00  0.00    -0.302 NA
ATOM      3  C   UNL     1       1.801  -1.111  -1.124  0.00  0.00    +0.103 C 
ATOM      4  C   UNL     1       0.939  -2.365  -0.945  0.00  0.00    +0.124 C 
ATOM      5  N   UNL     1       1.366  -3.056   0.281  0.00  0.00    -0.288 N 
ATOM      6  C   UNL     1       1.462  -2.274   1.523  0.00  0.00    +0.120 C 
ATOM      7  C   UNL     1       2.304  -1.023   1.247  0.00  0.00    +0.111 C 
ATOM      8  C   UNL     1       1.662  -4.370   0.267  0.00  0.00    +0.249 C 
ATOM      9  O   UNL     1       2.083  -4.909   1.271  0.00  0.00    -0.270 OA
ENDROOT
BRANCH   6  10
ATOM     10  C   UNL     1       2.122  -3.103   2.594  0.00  0.00    -0.026 A 
ATOM     11  C   UNL     1       3.442  -3.489   2.453  0.00  0.00    +0.005 A 
ATOM     12  C   UNL     1       4.048  -4.250   3.436  0.00  0.00    +0.000 A 
ATOM     13  C   UNL     1       3.334  -4.624   4.559  0.00  0.00    +0.000 A 
ATOM     14  C   UNL     1       2.014  -4.237   4.699  0.00  0.00    +0.000 A 
ATOM     15  C   UNL     1       1.410  -3.473   3.719  0.00  0.00    +0.005 A 
ENDBRANCH   6  10
BRANCH   8  16
ATOM     16  C   UNL     1       1.474  -5.157  -0.971  0.00  0.00    +0.067 A 
ATOM     17  C   UNL     1       2.137  -4.789  -2.143  0.00  0.00    +0.015 A 
ATOM     18  C   UNL     1       1.957  -5.527  -3.294  0.00  0.00    +0.001 A 
ATOM     19  C   UNL     1       1.123  -6.631  -3.289  0.00  0.00    +0.002 A 
ATOM     20  C   UNL     1       0.463  -7.001  -2.131  0.00  0.00    +0.033 A 
ATOM     21  C   UNL     1       0.638  -6.275  -0.971  0.00  0.00    +0.138 A 
BRANCH  21  22
ATOM     22  N   UNL     1      -0.064  -6.676   0.269  0.00  0.00    +0.057 N 
ATOM     23  O   UNL     1      -0.704  -7.701   0.297  0.00  0.00    -0.126 OA
ATOM     24  O   UNL     1       0.003  -5.978   1.254  0.00  0.00    -0.126 OA
ENDBRANCH  21  22
ENDBRANCH   8  16
TORSDOF 3
