REMARK  Name = ZINC39355271
REMARK  7 active torsions:
REMARK  status: ('A' for Active; 'I' for Inactive)
REMARK    1  A    between atoms: C_1  and  C_2
REMARK    2  A    between atoms: C_5  and  N_9
REMARK    3  A    between atoms: C_7  and  C_8
REMARK    4  A    between atoms: C_15  and  N_20
REMARK    5  A    between atoms: C_21  and  C_23
REMARK    6  A    between atoms: C_23  and  C_24
REMARK    7  A    between atoms: C_24  and  C_25
REMARK                            x       y       z     vdW  Elec       q    Type
REMARK                         _______ _______ _______ _____ _____    ______ ____
ROOT
ATOM      1  N   UNL     1       0.059  -4.167  -0.021  0.00  0.00    -0.246 N 
ATOM      2  C   UNL     1      -0.032  -5.050  -1.188  0.00  0.00    +0.123 C 
ATOM      3  C   UNL     1      -1.273  -4.749  -2.032  0.00  0.00    +0.029 C 
ATOM      4  C   UNL     1      -1.480  -5.897  -3.024  0.00  0.00    +0.004 C 
ATOM      5  C   UNL     1      -1.809  -7.199  -2.296  0.00  0.00    +0.027 C 
ATOM      6  C   UNL     1      -0.616  -7.630  -1.426  0.00  0.00    +0.102 C 
ATOM      7  C   UNL     1      -0.212  -6.436  -0.588  0.00  0.00    -0.013 C 
ATOM      8  C   UNL     1      -0.053  -6.335   0.703  0.00  0.00    +0.091 C 
ATOM      9  N   UNL     1       0.174  -5.023   1.088  0.00  0.00    -0.271 N 
ATOM     10  H   UNL     1       0.379  -4.736   1.992  0.00  0.00    +0.169 HD
ENDROOT
BRANCH   1  15
ATOM     11  C   UNL     1      -0.018   1.503   0.010  0.00  0.00    +0.044 C 
ATOM     12  C   UNL     1       0.002  -0.004   0.002  0.00  0.00    -0.047 A 
ATOM     13  C   UNL     1       0.070  -0.687  -1.199  0.00  0.00    +0.005 A 
ATOM     14  C   UNL     1       0.089  -2.067  -1.210  0.00  0.00    +0.025 A 
ATOM     15  C   UNL     1       0.040  -2.771  -0.013  0.00  0.00    +0.048 A 
ATOM     16  C   UNL     1      -0.027  -2.082   1.191  0.00  0.00    +0.028 A 
ATOM     17  C   UNL     1      -0.041  -0.701   1.195  0.00  0.00    -0.046 A 
ATOM     18  C   UNL     1      -0.109   0.047   2.502  0.00  0.00    +0.044 C 
ENDBRANCH   1  15
BRANCH   6  19
ATOM     19  N   UNL     1      -1.004  -8.746  -0.560  0.00  0.00    -0.309 N 
ATOM     20  C   UNL     1      -0.948 -10.010  -1.024  0.00  0.00    +0.214 C 
ATOM     21  O   UNL     1      -0.577 -10.223  -2.159  0.00  0.00    -0.276 OA
ATOM     22  H   UNL     1      -1.301  -8.575   0.347  0.00  0.00    +0.149 HD
BRANCH  20  23
ATOM     23  C   UNL     1      -1.348 -11.158  -0.134  0.00  0.00    +0.102 C 
BRANCH  23  24
ATOM     24  C   UNL     1      -1.194 -12.474  -0.898  0.00  0.00    +0.066 C 
BRANCH  24  25
ATOM     25  C   UNL     1      -1.593 -13.622  -0.007  0.00  0.00    +0.062 A 
ATOM     26  C   UNL     1      -1.533 -14.938  -0.496  0.00  0.00    +0.030 A 
ATOM     27  C   UNL     1      -1.902 -15.956   0.337  0.00  0.00    +0.073 A 
ATOM     28  C   UNL     1      -2.321 -15.620   1.643  0.00  0.00    +0.265 A 
ATOM     29  O   UNL     1      -2.660 -16.492   2.425  0.00  0.00    -0.266 OA
ATOM     30  N   UNL     1      -2.343 -14.325   2.015  0.00  0.00    -0.243 N 
ATOM     31  N   UNL     1      -1.986 -13.388   1.214  0.00  0.00    -0.176 NA
ATOM     32  H   UNL     1      -2.631 -14.097   2.912  0.00  0.00    +0.192 HD
ENDBRANCH  24  25
ENDBRANCH  23  24
ENDBRANCH  20  23
ENDBRANCH   6  19
TORSDOF 5
