REMARK  Name = ZINC11694145
REMARK  2 active torsions:
REMARK  status: ('A' for Active; 'I' for Inactive)
REMARK    1  A    between atoms: C_5  and  S_7
REMARK    2  A    between atoms: S_7  and  N_10
REMARK                            x       y       z     vdW  Elec       q    Type
REMARK                         _______ _______ _______ _____ _____    ______ ____
ROOT
ATOM      1  N   UNL     1      -3.248   4.629   0.206  0.00  0.00    -0.176 NA
ATOM      2  C   UNL     1      -3.014   3.983   1.504  0.00  0.00    +0.112 C 
ATOM      3  C   UNL     1      -1.508   3.978   1.787  0.00  0.00    +0.052 C 
ATOM      4  C   UNL     1      -0.773   3.341   0.613  0.00  0.00    +0.115 C 
ATOM      5  C   UNL     1      -1.030   4.119  -0.674  0.00  0.00    +0.052 C 
ATOM      6  C   UNL     1      -2.533   4.125  -0.975  0.00  0.00    +0.112 C 
ATOM      7  C   UNL     1       0.709   3.267   0.897  0.00  0.00    +0.244 C 
ATOM      8  O   UNL     1       1.465   4.194   1.096  0.00  0.00    -0.273 OA
ATOM      9  N   UNL     1       1.015   1.953   0.880  0.00  0.00    -0.238 N 
ATOM     10  C   UNL     1      -0.062   1.200   0.628  0.00  0.00    +0.307 C 
ATOM     11  O   UNL     1      -0.038  -0.013   0.563  0.00  0.00    -0.252 OA
ATOM     12  N   UNL     1      -1.175   1.938   0.448  0.00  0.00    -0.285 N 
ATOM     13  H   UNL     1       1.905   1.599   1.034  0.00  0.00    +0.159 HD
ATOM     14  H   UNL     1      -2.065   1.607   0.251  0.00  0.00    +0.151 HD
ENDROOT
BRANCH   1  15
ATOM     15  S   UNL     1      -4.299   5.902   0.074  0.00  0.00    +0.062 S 
ATOM     16  O   UNL     1      -4.250   6.598   1.312  0.00  0.00    -0.153 OA
ATOM     17  O   UNL     1      -4.018   6.535  -1.167  0.00  0.00    -0.153 OA
BRANCH  15  22
ATOM     18  C   UNL     1      -8.120   4.921   0.836  0.00  0.00    +0.002 A 
ATOM     19  C   UNL     1      -8.467   4.168  -0.270  0.00  0.00    +0.002 A 
ATOM     20  C   UNL     1      -7.541   3.944  -1.272  0.00  0.00    +0.022 A 
ATOM     21  C   UNL     1      -6.267   4.474  -1.167  0.00  0.00    +0.067 A 
ATOM     22  C   UNL     1      -5.921   5.228  -0.060  0.00  0.00    +0.124 A 
ATOM     23  C   UNL     1      -6.846   5.447   0.944  0.00  0.00    +0.030 A 
ATOM     24 CL   UNL     1      -5.104   4.192  -2.424  0.00  0.00    -0.082 Cl
ENDBRANCH  15  22
ENDBRANCH   1  15
TORSDOF 2
