REMARK  Name = ZINC38626540
REMARK  5 active torsions:
REMARK  status: ('A' for Active; 'I' for Inactive)
REMARK    1  A    between atoms: C_1  and  C_2
REMARK    2  A    between atoms: C_2  and  C_3
REMARK    3  A    between atoms: C_3  and  C_24
REMARK    4  A    between atoms: C_16  and  S_22
REMARK    5  A    between atoms: S_22  and  C_23
REMARK                            x       y       z     vdW  Elec       q    Type
REMARK                         _______ _______ _______ _____ _____    ______ ____
ROOT
ATOM      1  C   UNL     1      -1.433  -0.534   0.013  0.00  0.00    -0.012 C 
ATOM      2  C   UNL     1      -1.902   0.279  -1.192  0.00  0.00    +0.043 C 
ATOM      3  C   UNL     1      -1.354  -0.268  -2.482  0.00  0.00    -0.038 A 
ATOM      4  C   UNL     1      -1.313   0.546  -3.599  0.00  0.00    +0.004 A 
ATOM      5  C   UNL     1      -0.821   0.065  -4.798  0.00  0.00    +0.000 A 
ATOM      6  C   UNL     1      -0.362  -1.237  -4.897  0.00  0.00    +0.001 A 
ATOM      7  C   UNL     1      -0.391  -2.063  -3.794  0.00  0.00    +0.010 A 
ATOM      8  C   UNL     1      -0.882  -1.582  -2.578  0.00  0.00    +0.000 A 
ATOM      9  C   UNL     1      -0.900  -2.439  -1.387  0.00  0.00    +0.065 C 
ATOM     10  N   UNL     1      -0.206  -3.530  -1.290  0.00  0.00    -0.214 NA
ATOM     11  C   UNL     1      -0.145  -4.253  -0.146  0.00  0.00    +0.259 A 
ATOM     12  N   UNL     1       0.467  -5.394   0.117  0.00  0.00    -0.107 NA
ATOM     13  N   UNL     1       0.301  -5.714   1.349  0.00  0.00    -0.120 NA
ATOM     14  C   UNL     1      -0.439  -4.814   1.958  0.00  0.00    +0.199 A 
ATOM     15  N   UNL     1      -0.766  -3.865   1.022  0.00  0.00    -0.224 N 
ATOM     16  C   UNL     1      -1.538  -2.760   1.083  0.00  0.00    +0.246 C 
ATOM     17  O   UNL     1      -2.030  -2.387   2.122  0.00  0.00    -0.271 OA
ATOM     18  C   UNL     1      -1.758  -2.009  -0.212  0.00  0.00    +0.134 C 
ATOM     19  C   UNL     1      -2.150  -0.040   1.271  0.00  0.00    +0.012 C 
ENDROOT
BRANCH   1  21
ATOM     20  C   UNL     1       0.402   1.114   0.412  0.00  0.00    +0.004 C 
ATOM     21  C   UNL     1       0.077  -0.364   0.186  0.00  0.00    +0.005 C 
ENDBRANCH   1  21
BRANCH  14  22
ATOM     22  S   UNL     1      -0.921  -4.824   3.653  0.00  0.00    -0.089 S 
ATOM     23  C   UNL     1      -0.163  -6.334   4.316  0.00  0.00    +0.093 C 
ENDBRANCH  14  22
TORSDOF 2
