REMARK  Name = ZINC20367466
REMARK  5 active torsions:
REMARK  status: ('A' for Active; 'I' for Inactive)
REMARK    1  A    between atoms: C_1  and  C_2
REMARK    2  A    between atoms: C_5  and  C_8
REMARK    3  A    between atoms: C_8  and  N_9
REMARK    4  A    between atoms: C_15  and  C_17
REMARK    5  A    between atoms: C_24  and  C_27
REMARK                            x       y       z     vdW  Elec       q    Type
REMARK                         _______ _______ _______ _____ _____    ______ ____
ROOT
ATOM      1  N   UNL     1      -0.603  -2.117  -0.002  0.00  0.00    -0.265 N 
ATOM      2  C   UNL     1       0.747  -2.104  -0.016  0.00  0.00    +0.110 A 
ATOM      3  C   UNL     1       1.149  -0.814  -0.013  0.00  0.00    +0.065 A 
ATOM      4  C   UNL     1       0.002  -0.004   0.002  0.00  0.00    +0.147 A 
ATOM      5  N   UNL     1      -1.049  -0.789   0.014  0.00  0.00    -0.156 NA
ATOM      6  N   UNL     1      -0.017   1.396   0.010  0.00  0.00    -0.264 N 
ATOM      7  C   UNL     1       1.141   2.086   0.002  0.00  0.00    +0.271 C 
ATOM      8  O   UNL     1       2.201   1.493  -0.011  0.00  0.00    -0.268 OA
ATOM      9  H   UNL     1      -0.977   1.933   0.022  0.00  0.00    +0.157 HD
ENDROOT
BRANCH   7  10
ATOM     10  C   UNL     1       1.121   3.569   0.011  0.00  0.00    +0.171 A 
ATOM     11  C   UNL     1       2.233   4.436   0.010  0.00  0.00    +0.027 A 
ATOM     12  C   UNL     1       1.696   5.678   0.016  0.00  0.00    +0.141 A 
ATOM     13  O   UNL     1       0.373   5.522   0.029  0.00  0.00    -0.359 OA
ATOM     14  N   UNL     1       0.062   4.349   0.025  0.00  0.00    -0.073 NA
ATOM     15  C   UNL     1       2.514   6.943   0.011  0.00  0.00    +0.078 C 
ATOM     16  C   UNL     1       3.942   6.592  -0.425  0.00  0.00    +0.011 C 
ATOM     17  C   UNL     1       4.458   5.409   0.399  0.00  0.00    -0.009 C 
ATOM     18  C   UNL     1       3.703   4.134  -0.007  0.00  0.00    +0.044 C 
ATOM     19  C   UNL     1       5.954   5.219   0.138  0.00  0.00    +0.008 C 
ENDBRANCH   7  10
BRANCH   1  20
ATOM     20  C   UNL     1      -1.452  -3.311  -0.000  0.00  0.00    +0.178 C 
BRANCH  20  25
ATOM     21  C   UNL     1      -5.071  -3.092   4.500  0.00  0.00    +0.044 C 
ATOM     22  C   UNL     1      -4.127  -3.150   3.326  0.00  0.00    -0.050 A 
ATOM     23  C   UNL     1      -4.500  -2.603   2.112  0.00  0.00    +0.004 A 
ATOM     24  C   UNL     1      -3.635  -2.655   1.036  0.00  0.00    +0.006 A 
ATOM     25  C   UNL     1      -2.396  -3.254   1.173  0.00  0.00    -0.026 A 
ATOM     26  C   UNL     1      -2.025  -3.805   2.386  0.00  0.00    +0.006 A 
ATOM     27  C   UNL     1      -2.889  -3.749   3.463  0.00  0.00    +0.004 A 
ENDBRANCH  20  25
ENDBRANCH   1  20
TORSDOF 3
