REMARK  Name = ZINC04937754
REMARK  6 active torsions:
REMARK  status: ('A' for Active; 'I' for Inactive)
REMARK    1  A    between atoms: C_6  and  C_7
REMARK    2  A    between atoms: N_9  and  C_10
REMARK    3  A    between atoms: C_10  and  N_12
REMARK    4  A    between atoms: N_12  and  C_13
REMARK    5  A    between atoms: C_16  and  N_20
REMARK    6  A    between atoms: C_18  and  O_19
REMARK                            x       y       z     vdW  Elec       q    Type
REMARK                         _______ _______ _______ _____ _____    ______ ____
ROOT
ATOM      1  C   UNL     1      -2.396   1.385  -0.081  0.00  0.00    +0.141 C 
ATOM      2  S   UNL     1      -2.381  -0.327  -0.090  0.00  0.00    -0.018 S 
ENDROOT
BRANCH   1   5
ATOM      3  C   UNL     1      -4.722   1.366  -0.273  0.00  0.00    +0.250 C 
ATOM      4  O   UNL     1      -4.711   0.151  -0.280  0.00  0.00    -0.270 OA
ATOM      5  N   UNL     1      -3.565   2.050  -0.173  0.00  0.00    -0.264 N 
ATOM      6  H   UNL     1      -3.573   3.020  -0.168  0.00  0.00    +0.157 HD
BRANCH   3  12
ATOM      7  C   UNL     1      -6.019   3.491  -0.361  0.00  0.00    +0.014 A 
ATOM      8  C   UNL     1      -7.218   4.165  -0.461  0.00  0.00    +0.016 A 
ATOM      9  C   UNL     1      -8.406   3.459  -0.563  0.00  0.00    +0.018 A 
ATOM     10  C   UNL     1      -8.397   2.075  -0.572  0.00  0.00    +0.016 A 
ATOM     11  C   UNL     1      -7.204   1.389  -0.478  0.00  0.00    +0.014 A 
ATOM     12  C   UNL     1      -6.003   2.094  -0.374  0.00  0.00    +0.037 A 
ATOM     13 BR   UNL     1     -10.046   4.391  -0.693  0.00  0.00    -0.050 Br
ENDBRANCH   3  12
ENDBRANCH   1   5
BRANCH   1  14
ATOM     14  N   UNL     1      -1.238   2.069   0.019  0.00  0.00    -0.294 N 
ATOM     15  H   UNL     1      -1.251   3.035   0.104  0.00  0.00    +0.154 HD
BRANCH  14  16
ATOM     16  C   UNL     1      -0.016   1.384  -0.000  0.00  0.00    +0.075 A 
ATOM     17  C   UNL     1       0.199   0.372  -0.925  0.00  0.00    +0.029 A 
ATOM     18  C   UNL     1       1.408  -0.298  -0.946  0.00  0.00    +0.035 A 
ATOM     19  C   UNL     1       2.404   0.037  -0.047  0.00  0.00    +0.130 A 
ATOM     20  C   UNL     1       2.196   1.044   0.877  0.00  0.00    +0.080 A 
ATOM     21  C   UNL     1       0.987   1.720   0.905  0.00  0.00    +0.140 A 
BRANCH  19  22
ATOM     22  N   UNL     1       3.696  -0.684  -0.075  0.00  0.00    +0.057 N 
ATOM     23  O   UNL     1       3.881  -1.571  -0.889  0.00  0.00    -0.126 OA
ATOM     24  O   UNL     1       4.575  -0.390   0.716  0.00  0.00    -0.126 OA
ENDBRANCH  19  22
BRANCH  21  25
ATOM     25  O   UNL     1       0.782   2.711   1.814  0.00  0.00    -0.505 OA
ATOM     26  H   UNL     1       0.404   2.406   2.650  0.00  0.00    +0.292 HD
ENDBRANCH  21  25
ENDBRANCH  14  16
ENDBRANCH   1  14
TORSDOF 6
