REMARK  Name = ZINC39579026
REMARK  4 active torsions:
REMARK  status: ('A' for Active; 'I' for Inactive)
REMARK    1  A    between atoms: C_1  and  C_2
REMARK    2  A    between atoms: C_2  and  C_17
REMARK    3  A    between atoms: N_3  and  N_4
REMARK    4  A    between atoms: C_5  and  C_7
REMARK                            x       y       z     vdW  Elec       q    Type
REMARK                         _______ _______ _______ _____ _____    ______ ____
ROOT
ATOM      1  C   UNL     1       0.817   1.220  -0.229  0.00  0.00    +0.068 C 
ATOM      2  C   UNL     1      -0.010  -0.017   0.011  0.00  0.00    +0.063 C 
ATOM      3  N   UNL     1      -0.409  -0.308   1.212  0.00  0.00    -0.184 NA
ENDROOT
BRANCH   2   4
ATOM      4  C   UNL     1      -0.366  -0.896  -1.117  0.00  0.00    -0.002 A 
ATOM      5  C   UNL     1      -1.648  -1.475  -1.175  0.00  0.00    +0.010 A 
ATOM      6  C   UNL     1      -1.999  -2.287  -2.203  0.00  0.00    +0.009 A 
ATOM      7  C   UNL     1      -1.077  -2.561  -3.231  0.00  0.00    -0.018 A 
ATOM      8  C   UNL     1      -1.418  -3.399  -4.305  0.00  0.00    +0.008 A 
ATOM      9  C   UNL     1      -0.505  -3.646  -5.285  0.00  0.00    +0.001 A 
ATOM     10  C   UNL     1       0.767  -3.079  -5.240  0.00  0.00    +0.001 A 
ATOM     11  C   UNL     1       1.134  -2.263  -4.215  0.00  0.00    +0.008 A 
ATOM     12  C   UNL     1       0.218  -1.984  -3.185  0.00  0.00    -0.017 A 
ATOM     13  C   UNL     1       0.562  -1.142  -2.117  0.00  0.00    +0.018 A 
ENDBRANCH   2   4
BRANCH   3  14
ATOM     14  N   UNL     1      -1.051  -1.528   1.460  0.00  0.00    -0.205 N 
ATOM     15  C   UNL     1      -1.563  -1.784   2.680  0.00  0.00    +0.263 C 
ATOM     16  O   UNL     1      -1.468  -0.958   3.563  0.00  0.00    -0.271 OA
ATOM     17  H   UNL     1      -1.127  -2.189   0.753  0.00  0.00    +0.177 HD
BRANCH  15  18
ATOM     18  C   UNL     1      -2.253  -3.097   2.947  0.00  0.00    +0.243 C 
ATOM     19  C   UNL     1      -3.685  -3.053   2.478  0.00  0.00    -0.012 C 
ATOM     20  C   UNL     1      -4.415  -3.241   3.582  0.00  0.00    +0.065 C 
ATOM     21  C   UNL     1      -5.928  -3.270   3.574  0.00  0.00    +0.057 C 
ATOM     22  C   UNL     1      -6.420  -2.639   2.267  0.00  0.00    +0.006 C 
ATOM     23  C   UNL     1      -5.697  -3.282   1.079  0.00  0.00    +0.005 C 
ATOM     24  C   UNL     1      -4.223  -2.850   1.092  0.00  0.00    +0.035 C 
ATOM     25  N   UNL     1      -3.604  -3.392   4.652  0.00  0.00    -0.158 NA
ATOM     26  N   UNL     1      -2.392  -3.330   4.398  0.00  0.00    -0.170 NA
ENDBRANCH  15  18
ENDBRANCH   3  14
TORSDOF 3
