REMARK  Name = ZINC39463178
REMARK  3 active torsions:
REMARK  status: ('A' for Active; 'I' for Inactive)
REMARK    1  A    between atoms: C_1  and  C_2
REMARK    2  A    between atoms: C_2  and  O_3
REMARK    3  A    between atoms: O_3  and  C_4
REMARK                            x       y       z     vdW  Elec       q    Type
REMARK                         _______ _______ _______ _____ _____    ______ ____
ROOT
ATOM      1  C   UNL     1      -1.496  -1.846   0.112  0.00  0.00    +0.220 A 
ATOM      2  C   UNL     1      -2.670  -2.521   0.125  0.00  0.00    +0.178 A 
ATOM      3  N   UNL     1      -2.410  -3.829   0.236  0.00  0.00    -0.232 NA
ATOM      4  C   UNL     1      -1.099  -4.008   0.295  0.00  0.00    +0.142 A 
ATOM      5  N   UNL     1      -0.496  -2.776   0.213  0.00  0.00    -0.258 N 
ATOM      6  C   UNL     1       0.868  -2.670   0.244  0.00  0.00    +0.091 A 
ATOM      7  C   UNL     1       1.640  -3.771   0.351  0.00  0.00    +0.053 A 
ATOM      8  C   UNL     1       1.051  -5.046   0.433  0.00  0.00    +0.047 A 
ATOM      9  C   UNL     1      -0.305  -5.166   0.413  0.00  0.00    +0.067 A 
ATOM     10 CL   UNL     1       2.050  -6.459   0.571  0.00  0.00    -0.083 Cl
ATOM     11  I   UNL     1       1.765  -0.780   0.123  0.00  0.00    -0.023 I 
ENDROOT
BRANCH   1  12
ATOM     12  O   UNL     1      -1.339  -0.499   0.012  0.00  0.00    -0.476 OA
BRANCH  12  14
ATOM     13  C   UNL     1      -2.148   1.778   0.028  0.00  0.00    +0.048 C 
ATOM     14  C   UNL     1      -2.526   0.296   0.026  0.00  0.00    +0.227 C 
ENDBRANCH  12  14
ENDBRANCH   1  12
TORSDOF 2
