REMARK  Name = ZINC21575535
REMARK  8 active torsions:
REMARK  status: ('A' for Active; 'I' for Inactive)
REMARK    1  A    between atoms: C_1  and  C_2
REMARK    2  A    between atoms: C_4  and  C_27
REMARK    3  A    between atoms: C_5  and  N_9
REMARK    4  A    between atoms: C_10  and  C_12
REMARK    5  A    between atoms: C_12  and  C_14
REMARK    6  A    between atoms: C_12  and  O_15
REMARK    7  A    between atoms: O_15  and  C_16
REMARK    8  A    between atoms: C_19  and  N_22
REMARK                            x       y       z     vdW  Elec       q    Type
REMARK                         _______ _______ _______ _____ _____    ______ ____
ROOT
ATOM      1  C   UNL     1       0.106  -4.266  -0.137  0.00  0.00    +0.256 C 
ATOM      2  C   UNL     1       0.483  -4.715   1.276  0.00  0.00    +0.062 C 
ENDROOT
BRANCH   1   4
ATOM      3  N   UNL     1       1.212  -2.057  -0.015  0.00  0.00    -0.281 N 
ATOM      4  C   UNL     1       0.077  -2.760  -0.195  0.00  0.00    +0.258 C 
ATOM      5  O   UNL     1      -0.969  -2.182  -0.404  0.00  0.00    -0.271 OA
ATOM      6  H   UNL     1       2.174  -2.581   0.083  0.00  0.00    +0.155 HD
BRANCH   3  11
ATOM      7  C   UNL     1       1.029   3.609   0.238  0.00  0.00    +0.044 C 
ATOM      8  C   UNL     1       1.078   2.104   0.170  0.00  0.00    -0.049 A 
ATOM      9  C   UNL     1       1.710   1.388   1.171  0.00  0.00    +0.008 A 
ATOM     10  C   UNL     1       1.756   0.009   1.112  0.00  0.00    -0.028 A 
ATOM     11  C   UNL     1       1.167  -0.659   0.047  0.00  0.00    +0.055 A 
ATOM     12  C   UNL     1       0.533   0.062  -0.957  0.00  0.00    +0.063 A 
ATOM     13  C   UNL     1       0.490   1.442  -0.892  0.00  0.00    +0.025 A 
ATOM     14 CL   UNL     1      -0.205  -0.768  -2.291  0.00  0.00    -0.082 Cl
ATOM     15  C   UNL     1       2.445  -0.769   2.203  0.00  0.00    +0.046 C 
ENDBRANCH   3  11
ENDBRANCH   1   4
BRANCH   1  16
ATOM     16  O   UNL     1      -1.185  -4.781  -0.471  0.00  0.00    -0.480 OA
BRANCH  16  17
ATOM     17  C   UNL     1      -1.239  -6.056  -0.937  0.00  0.00    +0.122 A 
ATOM     18  C   UNL     1      -2.466  -6.647  -1.200  0.00  0.00    +0.048 A 
ATOM     19  C   UNL     1      -2.521  -7.941  -1.679  0.00  0.00    +0.031 A 
ATOM     20  C   UNL     1      -1.349  -8.655  -1.885  0.00  0.00    +0.069 A 
ATOM     21  C   UNL     1      -0.121  -8.066  -1.616  0.00  0.00    +0.031 A 
ATOM     22  C   UNL     1      -0.067  -6.770  -1.143  0.00  0.00    +0.048 A 
BRANCH  20  23
ATOM     23  N   UNL     1      -1.405  -9.973  -2.366  0.00  0.00    -0.200 N 
ATOM     24  C   UNL     1      -2.508 -10.687  -2.674  0.00  0.00    +0.250 A 
ATOM     25  N   UNL     1      -2.108 -11.863  -3.083  0.00  0.00    -0.116 NA
ATOM     26  N   UNL     1      -0.827 -11.941  -3.053  0.00  0.00    -0.023 NA
ATOM     27  N   UNL     1      -0.323 -10.830  -2.634  0.00  0.00    -0.039 NA
ENDBRANCH  20  23
ENDBRANCH  16  17
ENDBRANCH   1  16
TORSDOF 5
