REMARK  Name = ZINC48735933
REMARK  7 active torsions:
REMARK  status: ('A' for Active; 'I' for Inactive)
REMARK    1  A    between atoms: C_1  and  C_2
REMARK    2  A    between atoms: C_5  and  C_10
REMARK    3  A    between atoms: C_6  and  O_9
REMARK    4  A    between atoms: C_7  and  C_8
REMARK    5  A    between atoms: C_15  and  C_18
REMARK    6  A    between atoms: C_18  and  O_20
REMARK    7  A    between atoms: O_20  and  C_21
REMARK                            x       y       z     vdW  Elec       q    Type
REMARK                         _______ _______ _______ _____ _____    ______ ____
ROOT
ATOM      1  C   UNL     1       0.059  -4.252  -0.036  0.00  0.00    +0.250 C 
ATOM      2  O   UNL     1       0.170  -4.869   1.006  0.00  0.00    -0.270 OA
ATOM      3  N   UNL     1      -0.040  -4.917  -1.204  0.00  0.00    -0.297 N 
ATOM      4  C   UNL     1      -0.061  -4.303  -2.540  0.00  0.00    +0.109 C 
ATOM      5  C   UNL     1      -0.157  -5.449  -3.570  0.00  0.00    +0.035 C 
ATOM      6  C   UNL     1       0.386  -6.670  -2.781  0.00  0.00    +0.116 C 
ATOM      7  C   UNL     1      -0.138  -6.380  -1.355  0.00  0.00    +0.122 C 
ENDROOT
BRANCH   1  12
ATOM      8  C   UNL     1      -0.049   1.502   0.016  0.00  0.00    +0.044 C 
ATOM      9  C   UNL     1      -0.018  -0.004   0.005  0.00  0.00    -0.044 A 
ATOM     10  C   UNL     1      -0.919  -0.706  -0.779  0.00  0.00    +0.004 A 
ATOM     11  C   UNL     1      -0.900  -2.084  -0.797  0.00  0.00    +0.017 A 
ATOM     12  C   UNL     1       0.033  -2.777  -0.022  0.00  0.00    +0.078 A 
ATOM     13  C   UNL     1       0.943  -2.064   0.769  0.00  0.00    +0.132 A 
ATOM     14  C   UNL     1       0.913  -0.677   0.771  0.00  0.00    -0.005 A 
ATOM     15  C   UNL     1       1.893   0.096   1.615  0.00  0.00    +0.048 C 
BRANCH  13  16
ATOM     16  O   UNL     1       1.853  -2.726   1.527  0.00  0.00    -0.506 OA
ATOM     17  H   UNL     1       2.689  -2.902   1.073  0.00  0.00    +0.292 HD
ENDBRANCH  13  16
ENDBRANCH   1  12
BRANCH   6  18
ATOM     18  C   UNL     1      -0.186  -7.957  -3.319  0.00  0.00    +0.312 C 
ATOM     19  O   UNL     1      -0.960  -7.933  -4.247  0.00  0.00    -0.250 OA
BRANCH  18  20
ATOM     20  O   UNL     1       0.164  -9.129  -2.767  0.00  0.00    -0.468 OA
ATOM     21  C   UNL     1      -0.416 -10.309  -3.326  0.00  0.00    +0.280 C 
ENDBRANCH  18  20
ENDBRANCH   6  18
TORSDOF 4
