REMARK  Name = ZINC28190988
REMARK  5 active torsions:
REMARK  status: ('A' for Active; 'I' for Inactive)
REMARK    1  A    between atoms: C_1  and  C_2
REMARK    2  A    between atoms: C_7  and  C_13
REMARK    3  A    between atoms: C_13  and  S_14
REMARK    4  A    between atoms: S_14  and  C_15
REMARK    5  A    between atoms: C_16  and  C_25
REMARK                            x       y       z     vdW  Elec       q    Type
REMARK                         _______ _______ _______ _____ _____    ______ ____
ROOT
ATOM      1  C   UNL     1      -3.729   5.843   0.067  0.00  0.00    +0.131 C 
ENDROOT
BRANCH   1   8
ATOM      2  C   UNL     1       2.506   1.065  -0.015  0.00  0.00    +0.045 C 
ATOM      3  C   UNL     1       1.189   1.798   0.000  0.00  0.00    -0.034 A 
ATOM      4  C   UNL     1      -0.013   1.076   0.008  0.00  0.00    +0.008 A 
ATOM      5  C   UNL     1      -1.199   1.746   0.017  0.00  0.00    +0.047 A 
ATOM      6  C   UNL     1      -1.200   3.152   0.030  0.00  0.00    +0.141 A 
ATOM      7  N   UNL     1      -2.358   3.809   0.044  0.00  0.00    -0.233 NA
ATOM      8  C   UNL     1      -2.400   5.132   0.051  0.00  0.00    +0.059 A 
ATOM      9  C   UNL     1      -1.227   5.862   0.043  0.00  0.00    +0.094 A 
ATOM     10  C   UNL     1      -0.005   5.179   0.028  0.00  0.00    +0.259 A 
ATOM     11  O   UNL     1       1.049   5.794   0.021  0.00  0.00    -0.267 OA
ATOM     12  N   UNL     1      -0.011   3.828   0.022  0.00  0.00    -0.268 N 
ATOM     13  C   UNL     1       1.169   3.150   0.007  0.00  0.00    +0.099 A 
ENDBRANCH   1   8
BRANCH   1  14
ATOM     14  S   UNL     1      -4.484   5.747  -1.575  0.00  0.00    -0.098 S 
BRANCH  14  15
ATOM     15  C   UNL     1      -5.979   6.632  -1.277  0.00  0.00    +0.119 A 
ATOM     16  C   UNL     1      -6.903   6.813  -2.321  0.00  0.00    +0.071 A 
ATOM     17  N   UNL     1      -8.023   7.463  -2.116  0.00  0.00    -0.248 NA
ATOM     18  C   UNL     1      -8.287   7.971  -0.905  0.00  0.00    +0.090 A 
ATOM     19  C   UNL     1      -9.476   8.678  -0.661  0.00  0.00    +0.030 A 
ATOM     20  C   UNL     1      -9.719   9.184   0.579  0.00  0.00    +0.002 A 
ATOM     21  C   UNL     1      -8.804   9.012   1.615  0.00  0.00    +0.002 A 
ATOM     22  C   UNL     1      -7.641   8.333   1.415  0.00  0.00    +0.030 A 
ATOM     23  C   UNL     1      -7.356   7.796   0.148  0.00  0.00    +0.090 A 
ATOM     24  N   UNL     1      -6.220   7.124  -0.076  0.00  0.00    -0.237 NA
ATOM     25  C   UNL     1      -6.607   6.249  -3.687  0.00  0.00    +0.068 C 
ENDBRANCH  14  15
ENDBRANCH   1  14
TORSDOF 3
