REMARK  Name = ZINC38789933
REMARK  5 active torsions:
REMARK  status: ('A' for Active; 'I' for Inactive)
REMARK    1  A    between atoms: C_3  and  N_25
REMARK    2  A    between atoms: C_6  and  N_7
REMARK    3  A    between atoms: N_7  and  C_8
REMARK    4  A    between atoms: C_8  and  C_9
REMARK    5  A    between atoms: C_29  and  O_32
REMARK                            x       y       z     vdW  Elec       q    Type
REMARK                         _______ _______ _______ _____ _____    ______ ____
ROOT
ATOM      1  C   UNL     1      -1.181  -2.185  -0.015  0.00  0.00    +0.118 C 
ENDROOT
BRANCH   1   2
ATOM      2  C   UNL     1      -2.616  -2.715  -0.000  0.00  0.00    +0.115 C 
ATOM      3  C   UNL     1      -2.556  -4.217   0.195  0.00  0.00    -0.003 C 
ATOM      4  C   UNL     1      -3.133  -4.995  -0.760  0.00  0.00    -0.003 A 
ATOM      5  C   UNL     1      -3.116  -6.454  -0.647  0.00  0.00    +0.059 A 
ATOM      6  C   UNL     1      -3.703  -7.205  -1.618  0.00  0.00    +0.163 A 
ATOM      7  C   UNL     1      -4.327  -6.601  -2.728  0.00  0.00    +0.164 A 
ATOM      8  C   UNL     1      -4.367  -5.230  -2.881  0.00  0.00    +0.073 A 
ATOM      9  C   UNL     1      -3.787  -4.382  -1.930  0.00  0.00    +0.044 A 
ATOM     10  N   UNL     1      -3.838  -3.058  -2.099  0.00  0.00    -0.284 N 
ATOM     11  C   UNL     1      -3.313  -2.203  -1.241  0.00  0.00    +0.226 C 
ATOM     12  O   UNL     1      -3.390  -1.006  -1.448  0.00  0.00    -0.275 OA
ATOM     13  O   UNL     1      -4.917  -7.370  -3.683  0.00  0.00    -0.485 OA
ATOM     14  C   UNL     1      -4.545  -8.751  -3.723  0.00  0.00    +0.270 C 
ATOM     15  C   UNL     1      -4.597  -9.305  -2.293  0.00  0.00    +0.270 C 
ATOM     16  O   UNL     1      -3.671  -8.562  -1.493  0.00  0.00    -0.485 OA
ATOM     17  H   UNL     1      -4.280  -2.709  -2.888  0.00  0.00    +0.155 HD
ENDBRANCH   1   2
BRANCH   1  18
ATOM     18  N   UNL     1      -1.201  -0.721   0.010  0.00  0.00    -0.343 N 
ATOM     19  H   UNL     1      -2.047  -0.247   0.033  0.00  0.00    +0.146 HD
BRANCH  18  25
ATOM     20  C   UNL     1      -0.017   1.384   0.026  0.00  0.00    +0.025 A 
ATOM     21  C   UNL     1       1.170   2.091   0.018  0.00  0.00    +0.025 A 
ATOM     22  C   UNL     1       2.381   1.413  -0.013  0.00  0.00    +0.030 A 
ATOM     23  C   UNL     1       2.400   0.025  -0.037  0.00  0.00    +0.025 A 
ATOM     24  C   UNL     1       1.214  -0.682  -0.029  0.00  0.00    +0.025 A 
ATOM     25  C   UNL     1       0.002  -0.004   0.002  0.00  0.00    +0.027 A 
BRANCH  22  26
ATOM     26  N   UNL     1       3.584   2.130  -0.021  0.00  0.00    -0.327 N 
ATOM     27  C   UNL     1       4.873   1.430   0.067  0.00  0.00    +0.105 C 
ATOM     28  C   UNL     1       5.756   1.873  -1.104  0.00  0.00    +0.021 C 
ATOM     29  C   UNL     1       5.868   3.399  -1.104  0.00  0.00    +0.034 C 
ATOM     30  C   UNL     1       4.479   4.014  -1.287  0.00  0.00    +0.132 C 
ATOM     31  C   UNL     1       3.582   3.595  -0.124  0.00  0.00    +0.136 C 
BRANCH  30  32
ATOM     32  O   UNL     1       4.588   5.439  -1.319  0.00  0.00    -0.390 OA
ATOM     33  H   UNL     1       5.145   5.774  -2.034  0.00  0.00    +0.210 HD
ENDBRANCH  30  32
ENDBRANCH  22  26
ENDBRANCH  18  25
ENDBRANCH   1  18
TORSDOF 5
