REMARK  Name = ZINC04479603
REMARK  6 active torsions:
REMARK  status: ('A' for Active; 'I' for Inactive)
REMARK    1  A    between atoms: C_1  and  O_2
REMARK    2  A    between atoms: O_2  and  C_3
REMARK    3  A    between atoms: C_6  and  N_9
REMARK    4  A    between atoms: C_11  and  N_16
REMARK    5  A    between atoms: N_19  and  C_20
REMARK    6  A    between atoms: C_23  and  C_26
REMARK                            x       y       z     vdW  Elec       q    Type
REMARK                         _______ _______ _______ _____ _____    ______ ____
ROOT
ATOM      1  N   UNL     1       0.121   0.972   0.029  0.00  0.00    -0.294 N 
ATOM      2  C   UNL     1      -0.971   1.762   0.015  0.00  0.00    +0.304 C 
ATOM      3  O   UNL     1      -2.081   1.266  -0.014  0.00  0.00    -0.253 OA
ATOM      4  N   UNL     1      -0.833   3.103   0.034  0.00  0.00    -0.269 N 
ATOM      5  H   UNL     1       1.006   1.368   0.049  0.00  0.00    +0.151 HD
ATOM      6  H   UNL     1       0.050   3.500  -0.024  0.00  0.00    +0.156 HD
ENDROOT
BRANCH   1   9
ATOM      7  N   UNL     1       2.104  -1.457  -0.493  0.00  0.00    -0.270 N 
ATOM      8  C   UNL     1       1.204  -1.177   0.631  0.00  0.00    +0.136 C 
ATOM      9  C   UNL     1      -0.029  -0.485   0.010  0.00  0.00    +0.101 C 
ATOM     10  C   UNL     1       0.004  -1.025  -1.439  0.00  0.00    +0.120 C 
ATOM     11  C   UNL     1       1.455  -1.385  -1.668  0.00  0.00    +0.222 C 
ATOM     12  O   UNL     1       1.960  -1.579  -2.754  0.00  0.00    -0.275 OA
BRANCH   7  16
ATOM     13  C   UNL     1       6.154  -2.366  -0.096  0.00  0.00    +0.120 A 
ATOM     14  C   UNL     1       5.412  -2.005   1.019  0.00  0.00    +0.047 A 
ATOM     15  C   UNL     1       4.071  -1.704   0.888  0.00  0.00    +0.027 A 
ATOM     16  C   UNL     1       3.465  -1.762  -0.360  0.00  0.00    +0.037 A 
ATOM     17  C   UNL     1       4.207  -2.129  -1.474  0.00  0.00    +0.027 A 
ATOM     18  C   UNL     1       5.550  -2.425  -1.343  0.00  0.00    +0.047 A 
BRANCH  13  20
ATOM     19  C   UNL     1       8.178  -3.026  -1.155  0.00  0.00    +0.277 C 
ATOM     20  O   UNL     1       7.475  -2.663   0.034  0.00  0.00    -0.495 OA
ENDBRANCH  13  20
ENDBRANCH   7  16
ENDBRANCH   1   9
BRANCH   4  21
ATOM     21  C   UNL     1      -1.964   3.921   0.135  0.00  0.00    +0.035 A 
ATOM     22  C   UNL     1      -1.996   5.146  -0.518  0.00  0.00    +0.024 A 
ATOM     23  C   UNL     1      -3.115   5.950  -0.420  0.00  0.00    +0.014 A 
ATOM     24  C   UNL     1      -4.199   5.540   0.336  0.00  0.00    +0.055 A 
ATOM     25  C   UNL     1      -4.167   4.323   0.991  0.00  0.00    +0.014 A 
ATOM     26  C   UNL     1      -3.053   3.512   0.893  0.00  0.00    +0.024 A 
BRANCH  24  27
ATOM     27  C   UNL     1      -5.416   6.421   0.445  0.00  0.00    +0.417 C 
ATOM     28  F   UNL     1      -5.274   7.279   1.541  0.00  0.00    -0.166 F 
ATOM     29  F   UNL     1      -5.551   7.177  -0.725  0.00  0.00    -0.166 F 
ATOM     30  F   UNL     1      -6.554   5.626   0.620  0.00  0.00    -0.166 F 
ENDBRANCH  24  27
ENDBRANCH   4  21
TORSDOF 5
