REMARK  Name = ZINC45368291
REMARK  9 active torsions:
REMARK  status: ('A' for Active; 'I' for Inactive)
REMARK    1  A    between atoms: C_4  and  C_23
REMARK    2  A    between atoms: C_6  and  C_7
REMARK    3  A    between atoms: C_9  and  O_22
REMARK    4  A    between atoms: C_11  and  O_21
REMARK    5  A    between atoms: C_13  and  O_20
REMARK    6  A    between atoms: C_15  and  C_18
REMARK    7  A    between atoms: C_18  and  O_19
REMARK    8  A    between atoms: C_23  and  C_24
REMARK    9  A    between atoms: C_27  and  C_29
REMARK                            x       y       z     vdW  Elec       q    Type
REMARK                         _______ _______ _______ _____ _____    ______ ____
ROOT
ATOM      1  C   UNL     1      -0.017   1.378   0.010  0.00  0.00    +0.008 A 
ATOM      2  C   UNL     1       1.171   2.086   0.002  0.00  0.00    +0.020 A 
ATOM      3  C   UNL     1       2.378   1.410  -0.013  0.00  0.00    +0.045 A 
ATOM      4  C   UNL     1       2.396   0.027  -0.021  0.00  0.00    -0.022 A 
ATOM      5  C   UNL     1       1.208  -0.680  -0.013  0.00  0.00    +0.011 A 
ATOM      6  C   UNL     1       0.002  -0.004   0.002  0.00  0.00    -0.016 A 
ATOM      7 CL   UNL     1       3.870   2.298  -0.023  0.00  0.00    -0.083 Cl
ENDROOT
BRANCH   6   8
ATOM      8  C   UNL     1      -1.293  -0.775   0.011  0.00  0.00    +0.180 C 
ATOM      9  C   UNL     1      -1.846  -0.828   1.437  0.00  0.00    +0.179 C 
ATOM     10  C   UNL     1      -3.191  -1.560   1.428  0.00  0.00    +0.177 C 
ATOM     11  C   UNL     1      -4.142  -0.847   0.462  0.00  0.00    +0.176 C 
ATOM     12  C   UNL     1      -3.500  -0.793  -0.927  0.00  0.00    +0.175 C 
ATOM     13  O   UNL     1      -2.239  -0.127  -0.842  0.00  0.00    -0.361 OA
BRANCH  11  14
ATOM     14  O   UNL     1      -5.377  -1.563   0.392  0.00  0.00    -0.386 OA
ATOM     15  H   UNL     1      -5.836  -1.639   1.239  0.00  0.00    +0.210 HD
ENDBRANCH  11  14
BRANCH  10  16
ATOM     16  O   UNL     1      -3.749  -1.552   2.744  0.00  0.00    -0.386 OA
ATOM     17  H   UNL     1      -4.603  -2.000   2.812  0.00  0.00    +0.210 HD
ENDBRANCH  10  16
BRANCH   9  18
ATOM     18  O   UNL     1      -0.926  -1.525   2.280  0.00  0.00    -0.386 OA
ATOM     19  H   UNL     1      -1.214  -1.597   3.201  0.00  0.00    +0.210 HD
ENDBRANCH   9  18
BRANCH  12  20
ATOM     20  C   UNL     1      -4.418  -0.030  -1.883  0.00  0.00    +0.190 C 
BRANCH  20  21
ATOM     21  O   UNL     1      -3.876  -0.079  -3.205  0.00  0.00    -0.392 OA
ATOM     22  H   UNL     1      -4.407   0.386  -3.866  0.00  0.00    +0.210 HD
ENDBRANCH  20  21
ENDBRANCH  12  20
ENDBRANCH   6   8
BRANCH   4  23
ATOM     23  C   UNL     1       3.711  -0.710  -0.038  0.00  0.00    +0.101 C 
BRANCH  23  24
ATOM     24  C   UNL     1       4.256  -0.732  -1.443  0.00  0.00    +0.107 A 
ATOM     25  N   UNL     1       5.053   0.129  -2.035  0.00  0.00    -0.146 NA
ATOM     26  N   UNL     1       5.433  -0.019  -3.231  0.00  0.00    -0.141 NA
ATOM     27  C   UNL     1       5.011  -1.081  -3.908  0.00  0.00    +0.132 A 
ATOM     28  S   UNL     1       4.007  -1.873  -2.659  0.00  0.00    -0.050 S 
BRANCH  27  29
ATOM     29  C   UNL     1       5.295  -1.494  -5.300  0.00  0.00    +0.012 A 
ATOM     30  C   UNL     1       4.737  -2.663  -5.831  0.00  0.00    +0.030 A 
ATOM     31  C   UNL     1       5.029  -3.010  -7.134  0.00  0.00    +0.111 A 
ATOM     32  N   UNL     1       5.821  -2.258  -7.875  0.00  0.00    -0.263 NA
ATOM     33  C   UNL     1       6.367  -1.150  -7.413  0.00  0.00    +0.111 A 
ATOM     34  C   UNL     1       6.124  -0.724  -6.123  0.00  0.00    +0.030 A 
ENDBRANCH  27  29
ENDBRANCH  23  24
ENDBRANCH   4  23
TORSDOF 9
