REMARK  Name = ZINC00089870
REMARK  2 active torsions:
REMARK  status: ('A' for Active; 'I' for Inactive)
REMARK    1  A    between atoms: C_4  and  O_22
REMARK    2  A    between atoms: C_5  and  N_7
REMARK                            x       y       z     vdW  Elec       q    Type
REMARK                         _______ _______ _______ _____ _____    ______ ____
ROOT
ATOM      1  N   UNL     1       1.058   6.033   0.023  0.00  0.00    -0.199 N 
ATOM      2  C   UNL     1      -0.100   5.347   0.031  0.00  0.00    +0.258 C 
ATOM      3  O   UNL     1      -1.158   5.947   0.044  0.00  0.00    -0.269 OA
ATOM      4  C   UNL     1      -0.093   3.877   0.023  0.00  0.00    +0.046 A 
ATOM      5  C   UNL     1      -1.263   3.131   0.030  0.00  0.00    +0.014 A 
ATOM      6  C   UNL     1      -1.204   1.742   0.017  0.00  0.00    +0.001 A 
ATOM      7  C   UNL     1      -0.013   1.076   0.008  0.00  0.00    +0.008 A 
ATOM      8  C   UNL     1       1.195   1.795   0.000  0.00  0.00    -0.016 A 
ATOM      9  C   UNL     1       1.150   3.204   0.008  0.00  0.00    +0.006 A 
ATOM     10  C   UNL     1       2.347   3.956  -0.000  0.00  0.00    +0.046 A 
ATOM     11  C   UNL     1       3.562   3.287  -0.016  0.00  0.00    +0.014 A 
ATOM     12  C   UNL     1       3.594   1.897  -0.023  0.00  0.00    +0.001 A 
ATOM     13  C   UNL     1       2.447   1.155  -0.015  0.00  0.00    +0.008 A 
ATOM     14  C   UNL     1       2.259   5.423   0.009  0.00  0.00    +0.258 C 
ATOM     15  O   UNL     1       3.276   6.090   0.002  0.00  0.00    -0.269 OA
ENDROOT
BRANCH   1  20
ATOM     16  C   UNL     1       0.957   9.505   1.239  0.00  0.00    +0.002 A 
ATOM     17  C   UNL     1       0.923  10.204   0.046  0.00  0.00    +0.004 A 
ATOM     18  C   UNL     1       0.933   9.524  -1.157  0.00  0.00    +0.047 A 
ATOM     19  C   UNL     1       0.979   8.139  -1.171  0.00  0.00    +0.139 A 
ATOM     20  C   UNL     1       1.013   7.435   0.030  0.00  0.00    +0.086 A 
ATOM     21  C   UNL     1       0.997   8.124   1.234  0.00  0.00    +0.027 A 
BRANCH  19  22
ATOM     22  O   UNL     1       0.990   7.469  -2.354  0.00  0.00    -0.505 OA
ATOM     23  H   UNL     1       0.110   7.246  -2.688  0.00  0.00    +0.292 HD
ENDBRANCH  19  22
ENDBRANCH   1  20
TORSDOF 2
