REMARK  Name = ZINC37065607
REMARK  5 active torsions:
REMARK  status: ('A' for Active; 'I' for Inactive)
REMARK    1  A    between atoms: C_1  and  C_2
REMARK    2  A    between atoms: C_7  and  O_8
REMARK    3  A    between atoms: O_8  and  C_9
REMARK    4  A    between atoms: C_9  and  C_10
REMARK    5  A    between atoms: C_15  and  N_16
REMARK                            x       y       z     vdW  Elec       q    Type
REMARK                         _______ _______ _______ _____ _____    ______ ____
ROOT
ATOM      1  C   UNL     1       0.047   0.092   4.775  0.00  0.00    +0.014 A 
ATOM      2  C   UNL     1       0.021   1.463   4.603  0.00  0.00    +0.058 A 
ATOM      3  C   UNL     1       0.020   2.303   5.705  0.00  0.00    +0.163 A 
ATOM      4  C   UNL     1       0.043   1.767   6.987  0.00  0.00    +0.164 A 
ATOM      5  C   UNL     1       0.070   0.392   7.160  0.00  0.00    +0.072 A 
ATOM      6  C   UNL     1       0.067  -0.448   6.054  0.00  0.00    +0.035 A 
ATOM      7  O   UNL     1       0.034   2.576   8.081  0.00  0.00    -0.485 OA
ATOM      8  C   UNL     1       0.383   3.948   7.870  0.00  0.00    +0.270 C 
ATOM      9  C   UNL     1      -0.381   4.454   6.639  0.00  0.00    +0.270 C 
ATOM     10  O   UNL     1      -0.001   3.652   5.515  0.00  0.00    -0.485 OA
ENDROOT
BRANCH   6  11
ATOM     11  N   UNL     1       0.088  -1.836   6.228  0.00  0.00    -0.358 N 
ATOM     12  H   UNL     1       0.090  -2.422   5.455  0.00  0.00    +0.142 HD
ATOM     13  H   UNL     1       0.102  -2.212   7.122  0.00  0.00    +0.142 HD
ENDBRANCH   6  11
BRANCH   1  14
ATOM     14  C   UNL     1       0.048  -0.819   3.574  0.00  0.00    +0.266 C 
BRANCH  14  15
ATOM     15  O   UNL     1       0.025  -0.033   2.381  0.00  0.00    -0.487 OA
BRANCH  15  22
ATOM     16  C   UNL     1      -0.018   1.503   0.010  0.00  0.00    +0.047 C 
ATOM     17  C   UNL     1       0.002  -0.004   0.002  0.00  0.00    -0.007 A 
ATOM     18  C   UNL     1       0.006  -0.689  -1.198  0.00  0.00    +0.027 A 
ATOM     19  C   UNL     1       0.024  -2.072  -1.206  0.00  0.00    +0.041 A 
ATOM     20  C   UNL     1       0.040  -2.773  -0.013  0.00  0.00    +0.023 A 
ATOM     21  C   UNL     1       0.036  -2.092   1.189  0.00  0.00    +0.047 A 
ATOM     22  C   UNL     1       0.023  -0.704   1.199  0.00  0.00    +0.124 A 
ATOM     23 CL   UNL     1       0.028  -2.930  -2.715  0.00  0.00    -0.084 Cl
ENDBRANCH  15  22
ENDBRANCH  14  15
ENDBRANCH   1  14
TORSDOF 4
