REMARK  Name = ZINC25532609
REMARK  8 active torsions:
REMARK  status: ('A' for Active; 'I' for Inactive)
REMARK    1  A    between atoms: C_1  and  N_2
REMARK    2  A    between atoms: N_2  and  C_3
REMARK    3  A    between atoms: N_2  and  C_14
REMARK    4  A    between atoms: C_3  and  C_4
REMARK    5  A    between atoms: C_9  and  C_10
REMARK    6  A    between atoms: C_14  and  C_15
REMARK    7  A    between atoms: N_20  and  S_23
REMARK    8  A    between atoms: S_23  and  C_26
REMARK                            x       y       z     vdW  Elec       q    Type
REMARK                         _______ _______ _______ _____ _____    ______ ____
ROOT
ATOM      1  C   UNL     1      -0.843   4.125  -1.867  0.00  0.00    +0.199 C 
ATOM      2  O   UNL     1      -0.644   3.692  -2.983  0.00  0.00    -0.278 OA
ATOM      3  N   UNL     1      -1.093   3.278  -0.850  0.00  0.00    -0.300 N 
ATOM      4  C   UNL     1      -1.128   1.826  -1.077  0.00  0.00    +0.125 C 
ATOM      5  C   UNL     1      -0.138   1.156  -0.117  0.00  0.00    +0.128 C 
ATOM      6  N   UNL     1      -0.376   1.666   1.240  0.00  0.00    -0.174 NA
ATOM      7  C   UNL     1      -0.344   3.118   1.467  0.00  0.00    +0.128 C 
ATOM      8  C   UNL     1      -1.335   3.788   0.507  0.00  0.00    +0.125 C 
ENDROOT
BRANCH   6   9
ATOM      9  S   UNL     1      -0.679   0.624   2.491  0.00  0.00    +0.061 S 
ATOM     10  O   UNL     1      -1.392   1.364   3.472  0.00  0.00    -0.153 OA
ATOM     11  O   UNL     1      -1.194  -0.567   1.912  0.00  0.00    -0.153 OA
BRANCH   9  12
ATOM     12  C   UNL     1       0.875   0.204   3.208  0.00  0.00    +0.108 A 
ATOM     13  C   UNL     1       1.577  -0.893   2.743  0.00  0.00    +0.029 A 
ATOM     14  C   UNL     1       2.798  -1.221   3.301  0.00  0.00    +0.005 A 
ATOM     15  C   UNL     1       3.314  -0.459   4.332  0.00  0.00    +0.038 A 
ATOM     16  C   UNL     1       2.610   0.636   4.803  0.00  0.00    +0.125 A 
ATOM     17  C   UNL     1       1.389   0.967   4.239  0.00  0.00    +0.066 A 
ATOM     18  F   UNL     1       3.113   1.382   5.811  0.00  0.00    -0.205 F 
ENDBRANCH   9  12
ENDBRANCH   6   9
BRANCH   1  19
ATOM     19  C   UNL     1      -0.809   5.611  -1.619  0.00  0.00    +0.019 C 
BRANCH  19  21
ATOM     20  C   UNL     1      -1.617   6.142  -3.840  0.00  0.00    -0.095 C 
ATOM     21  N   UNL     1      -0.519   6.311  -2.878  0.00  0.00    +0.386 N 
ATOM     22  H   UNL     1       0.385   5.862  -3.314  0.00  0.00    -0.081 HD
BRANCH  21  23
ATOM     23  C   UNL     1      -0.245   7.734  -2.638  0.00  0.00    -0.042 C 
BRANCH  23  24
ATOM     24  C   UNL     1       0.418   8.330  -3.853  0.00  0.00    -0.052 A 
ATOM     25  C   UNL     1      -0.320   9.093  -4.739  0.00  0.00    +0.002 A 
ATOM     26  C   UNL     1       0.290   9.644  -5.851  0.00  0.00    +0.000 A 
ATOM     27  C   UNL     1       1.635   9.423  -6.082  0.00  0.00    +0.001 A 
ATOM     28  C   UNL     1       2.371   8.656  -5.199  0.00  0.00    +0.012 A 
ATOM     29  C   UNL     1       1.763   8.110  -4.084  0.00  0.00    +0.056 A 
BRANCH  29  30
ATOM     30  C   UNL     1       2.566   7.273  -3.122  0.00  0.00    +0.418 C 
ATOM     31  F   UNL     1       3.890   7.194  -3.565  0.00  0.00    -0.166 F 
ATOM     32  F   UNL     1       2.533   7.861  -1.853  0.00  0.00    -0.166 F 
ATOM     33  F   UNL     1       2.020   5.987  -3.054  0.00  0.00    -0.166 F 
ENDBRANCH  29  30
ENDBRANCH  23  24
ENDBRANCH  21  23
ENDBRANCH  19  21
ENDBRANCH   1  19
TORSDOF 7
