REMARK  Name = ZINC06009481
REMARK  6 active torsions:
REMARK  status: ('A' for Active; 'I' for Inactive)
REMARK    1  A    between atoms: C_1  and  O_2
REMARK    2  A    between atoms: O_2  and  C_3
REMARK    3  A    between atoms: C_7  and  C_10
REMARK    4  A    between atoms: C_8  and  O_9
REMARK    5  A    between atoms: C_23  and  O_24
REMARK    6  A    between atoms: O_24  and  C_25
REMARK                            x       y       z     vdW  Elec       q    Type
REMARK                         _______ _______ _______ _____ _____    ______ ____
ROOT
ATOM      1  C   UNL     1       5.654   3.549   1.119  0.00  0.00    +0.168 A 
ATOM      2  N   UNL     1       5.842   2.198   1.147  0.00  0.00    -0.220 NA
ATOM      3  C   UNL     1       4.838   1.371   0.787  0.00  0.00    +0.119 A 
ATOM      4  S   UNL     1       5.055  -0.327   0.816  0.00  0.00    -0.030 SA
ATOM      5  C   UNL     1       3.614   1.927   0.389  0.00  0.00    +0.052 A 
ATOM      6  C   UNL     1       3.474   3.300   0.378  0.00  0.00    +0.229 A 
ATOM      7  N   UNL     1       4.506   4.073   0.747  0.00  0.00    -0.192 NA
ATOM      8  O   UNL     1       2.315   3.878   0.002  0.00  0.00    -0.434 OA
ATOM      9  C   UNL     1       1.163   3.164   0.009  0.00  0.00    +0.175 A 
ATOM     10  C   UNL     1       1.179   1.781   0.000  0.00  0.00    +0.003 A 
ATOM     11  C   UNL     1      -0.013   1.076   0.008  0.00  0.00    +0.008 A 
ATOM     12  C   UNL     1      -1.220   1.747   0.017  0.00  0.00    +0.004 A 
ATOM     13  C   UNL     1      -1.244   3.129   0.032  0.00  0.00    +0.049 A 
ATOM     14  C   UNL     1      -0.057   3.841   0.025  0.00  0.00    +0.162 A 
ATOM     15  C   UNL     1       2.482   1.028  -0.018  0.00  0.00    +0.082 C 
ENDROOT
BRANCH   1  20
ATOM     16  C   UNL     1       7.637   6.661   1.867  0.00  0.00    +0.162 A 
ATOM     17  C   UNL     1       8.847   6.114   2.260  0.00  0.00    +0.049 A 
ATOM     18  C   UNL     1       9.019   4.739   2.282  0.00  0.00    +0.004 A 
ATOM     19  C   UNL     1       7.986   3.903   1.919  0.00  0.00    +0.015 A 
ATOM     20  C   UNL     1       6.760   4.441   1.514  0.00  0.00    +0.064 A 
ATOM     21  C   UNL     1       6.587   5.830   1.492  0.00  0.00    +0.169 A 
BRANCH  16  23
ATOM     22  C   UNL     1       8.597   8.804   2.245  0.00  0.00    +0.277 C 
ATOM     23  O   UNL     1       7.476   8.011   1.848  0.00  0.00    -0.491 OA
ENDBRANCH  16  23
BRANCH  21  24
ATOM     24  O   UNL     1       5.399   6.363   1.107  0.00  0.00    -0.503 OA
ATOM     25  H   UNL     1       4.570   5.703   0.811  0.00  0.00    +0.292 HD
ENDBRANCH  21  24
ENDBRANCH   1  20
BRANCH  14  26
ATOM     26  O   UNL     1      -0.080   5.200   0.034  0.00  0.00    -0.491 OA
ATOM     27  C   UNL     1      -1.363   5.828   0.050  0.00  0.00    +0.277 C 
ENDBRANCH  14  26
TORSDOF 4
