REMARK  Name = ZINC53658941
REMARK  6 active torsions:
REMARK  status: ('A' for Active; 'I' for Inactive)
REMARK    1  A    between atoms: C_1  and  C_2
REMARK    2  A    between atoms: C_2  and  C_25
REMARK    3  A    between atoms: N_5  and  C_9
REMARK    4  A    between atoms: C_9  and  C_10
REMARK    5  A    between atoms: N_12  and  C_13
REMARK    6  A    between atoms: C_13  and  C_14
REMARK                            x       y       z     vdW  Elec       q    Type
REMARK                         _______ _______ _______ _____ _____    ______ ____
ROOT
ATOM      1  C   UNL     1      -2.907  -1.854   1.360  0.00  0.00    +0.213 C 
ENDROOT
BRANCH   1   6
ATOM      2  C   UNL     1      -0.931   1.718  -0.964  0.00  0.00    +0.047 C 
ATOM      3  C   UNL     1      -0.749   0.202  -0.856  0.00  0.00    +0.141 C 
ATOM      4  C   UNL     1      -2.067  -0.471  -0.527  0.00  0.00    +0.252 C 
ATOM      5  O   UNL     1      -3.079  -0.465  -1.195  0.00  0.00    -0.272 OA
ATOM      6  N   UNL     1      -1.879  -1.078   0.661  0.00  0.00    -0.215 N 
ATOM      7  C   UNL     1      -0.639  -0.884   1.124  0.00  0.00    +0.310 C 
ATOM      8  O   UNL     1      -0.233  -1.335   2.178  0.00  0.00    -0.252 OA
ATOM      9  N   UNL     1       0.108  -0.135   0.293  0.00  0.00    -0.281 N 
ATOM     10  H   UNL     1       1.032   0.130   0.425  0.00  0.00    +0.152 HD
BRANCH   3  11
ATOM     11  C   UNL     1      -0.170  -0.353  -2.131  0.00  0.00    +0.022 A 
ATOM     12  C   UNL     1       1.130  -0.517  -2.478  0.00  0.00    +0.014 A 
ATOM     13  C   UNL     1       1.431  -1.054  -3.715  0.00  0.00    +0.008 A 
ATOM     14  C   UNL     1       0.418  -1.401  -4.546  0.00  0.00    +0.045 A 
ATOM     15  S   UNL     1      -1.018  -0.974  -3.575  0.00  0.00    -0.099 S 
ENDBRANCH   3  11
ENDBRANCH   1   6
BRANCH   1  16
ATOM     16  C   UNL     1      -2.826  -3.296   0.931  0.00  0.00    +0.231 C 
ATOM     17  O   UNL     1      -1.993  -3.642   0.120  0.00  0.00    -0.274 OA
ATOM     18  N   UNL     1      -3.680  -4.202   1.447  0.00  0.00    -0.313 N 
ATOM     19  H   UNL     1      -4.347  -3.926   2.095  0.00  0.00    +0.149 HD
BRANCH  18  20
ATOM     20  C   UNL     1      -3.602  -5.604   1.029  0.00  0.00    +0.112 C 
BRANCH  20  21
ATOM     21  C   UNL     1      -4.756  -6.388   1.656  0.00  0.00    +0.036 C 
ATOM     22  C   UNL     1      -6.082  -5.835   1.137  0.00  0.00    +0.010 C 
ATOM     23  C   UNL     1      -7.209  -6.765   1.601  0.00  0.00    +0.005 C 
ATOM     24  C   UNL     1      -7.091  -8.082   0.837  0.00  0.00    +0.035 C 
ATOM     25  C   UNL     1      -5.689  -8.625   0.930  0.00  0.00    -0.044 A 
ATOM     26  C   UNL     1      -4.617  -7.846   1.302  0.00  0.00    -0.040 A 
ATOM     27  C   UNL     1      -3.348  -8.407   1.361  0.00  0.00    +0.004 A 
ATOM     28  C   UNL     1      -3.155  -9.738   1.053  0.00  0.00    +0.000 A 
ATOM     29  C   UNL     1      -4.233 -10.520   0.683  0.00  0.00    +0.000 A 
ATOM     30  C   UNL     1      -5.493  -9.965   0.624  0.00  0.00    +0.004 A 
ENDBRANCH  20  21
ENDBRANCH  18  20
ENDBRANCH   1  16
TORSDOF 5
