REMARK  Name = ZINC66250996
REMARK  11 active torsions:
REMARK  status: ('A' for Active; 'I' for Inactive)
REMARK    1  A    between atoms: C_1  and  C_2
REMARK    2  A    between atoms: C_3  and  S_8
REMARK    3  A    between atoms: C_4  and  C_7
REMARK    4  A    between atoms: S_8  and  N_11
REMARK    5  A    between atoms: N_11  and  C_12
REMARK    6  A    between atoms: C_14  and  C_24
REMARK    7  A    between atoms: N_16  and  C_17
REMARK    8  A    between atoms: C_17  and  C_18
REMARK    9  A    between atoms: C_24  and  C_25
REMARK   10  A    between atoms: C_24  and  C_26
REMARK   11  A    between atoms: C_24  and  C_27
REMARK                            x       y       z     vdW  Elec       q    Type
REMARK                         _______ _______ _______ _____ _____    ______ ____
ROOT
ATOM      1  C   UNL     1       2.624  -1.747  -4.739  0.00  0.00    +0.137 A 
ATOM      2  C   UNL     1       1.966  -2.928  -4.575  0.00  0.00    +0.070 A 
ATOM      3  C   UNL     1       2.921  -3.920  -4.338  0.00  0.00    +0.070 A 
ATOM      4  N   UNL     1       4.105  -3.365  -4.357  0.00  0.00    -0.174 NA
ATOM      5  N   UNL     1       3.947  -1.996  -4.613  0.00  0.00    -0.245 N 
ENDROOT
BRANCH   3   6
ATOM      6  C   UNL     1       2.635  -5.380  -4.099  0.00  0.00    +0.006 C 
ATOM      7  C   UNL     1       1.582  -5.864  -5.098  0.00  0.00    +0.017 C 
ATOM      8  C   UNL     1       3.921  -6.188  -4.283  0.00  0.00    +0.017 C 
ATOM      9  C   UNL     1       2.111  -5.572  -2.674  0.00  0.00    +0.017 C 
ENDBRANCH   3   6
BRANCH   1  10
ATOM     10  N   UNL     1       2.041  -0.509  -4.996  0.00  0.00    -0.199 N 
ATOM     11  H   UNL     1       2.517   0.307  -4.773  0.00  0.00    +0.175 HD
BRANCH  10  12
ATOM     12  S   UNL     1       0.536  -0.429  -5.682  0.00  0.00    +0.079 S 
ATOM     13  O   UNL     1       0.239   0.951  -5.850  0.00  0.00    -0.150 OA
ATOM     14  O   UNL     1      -0.299  -1.302  -4.934  0.00  0.00    -0.150 OA
BRANCH  12  17
ATOM     15  C   UNL     1      -0.236  -3.489  -6.750  0.00  0.00    +0.071 C 
ATOM     16  C   UNL     1       0.313  -2.428  -7.668  0.00  0.00    +0.107 A 
ATOM     17  C   UNL     1       0.663  -1.117  -7.299  0.00  0.00    +0.173 A 
ATOM     18  C   UNL     1       1.112  -0.478  -8.397  0.00  0.00    +0.161 A 
ATOM     19  O   UNL     1       1.055  -1.335  -9.428  0.00  0.00    -0.358 OA
ATOM     20  N   UNL     1       0.551  -2.566  -8.942  0.00  0.00    -0.081 NA
ATOM     21  C   UNL     1       1.593   0.949  -8.457  0.00  0.00    +0.091 C 
ENDBRANCH  12  17
ENDBRANCH  10  12
ENDBRANCH   1  10
BRANCH   5  22
ATOM     22  C   UNL     1       5.025  -1.010  -4.722  0.00  0.00    +0.180 C 
BRANCH  22  23
ATOM     23  C   UNL     1       5.308  -0.423  -3.363  0.00  0.00    -0.026 A 
ATOM     24  C   UNL     1       4.626   0.702  -2.940  0.00  0.00    +0.005 A 
ATOM     25  C   UNL     1       4.886   1.240  -1.694  0.00  0.00    +0.000 A 
ATOM     26  C   UNL     1       5.827   0.652  -0.870  0.00  0.00    +0.000 A 
ATOM     27  C   UNL     1       6.509  -0.474  -1.292  0.00  0.00    +0.000 A 
ATOM     28  C   UNL     1       6.246  -1.014  -2.537  0.00  0.00    +0.005 A 
ENDBRANCH  22  23
ENDBRANCH   5  22
TORSDOF 6
