REMARK  Name = ZINC35314718
REMARK  9 active torsions:
REMARK  status: ('A' for Active; 'I' for Inactive)
REMARK    1  A    between atoms: C_1  and  C_2
REMARK    2  A    between atoms: C_7  and  N_8
REMARK    3  A    between atoms: C_9  and  C_11
REMARK    4  A    between atoms: N_22  and  C_32
REMARK    5  A    between atoms: C_23  and  C_25
REMARK    6  A    between atoms: N_27  and  C_28
REMARK    7  A    between atoms: C_28  and  C_29
REMARK    8  A    between atoms: C_28  and  C_30
REMARK    9  A    between atoms: C_28  and  C_31
REMARK                            x       y       z     vdW  Elec       q    Type
REMARK                         _______ _______ _______ _____ _____    ______ ____
ROOT
ATOM      1  C   UNL     1      -0.168   0.052   4.882  0.00  0.00    +0.123 C 
ATOM      2  C   UNL     1      -1.505   0.859   4.952  0.00  0.00    +0.155 C 
ATOM      3  C   UNL     1      -2.637  -0.128   4.641  0.00  0.00    +0.004 C 
ATOM      4  C   UNL     1      -2.774  -0.926   5.707  0.00  0.00    +0.009 C 
ATOM      5  C   UNL     1      -1.713  -0.457   6.637  0.00  0.00    +0.127 C 
ATOM      6  C   UNL     1      -0.324  -0.922   6.063  0.00  0.00    +0.128 C 
ATOM      7  C   UNL     1       0.593  -0.661   7.224  0.00  0.00    +0.224 C 
ATOM      8  O   UNL     1       1.786  -0.457   7.145  0.00  0.00    -0.275 OA
ATOM      9  N   UNL     1      -0.124  -0.690   8.377  0.00  0.00    -0.283 N 
ATOM     10  C   UNL     1      -1.596  -0.866   8.072  0.00  0.00    +0.199 C 
ATOM     11  O   UNL     1      -1.643   0.994   6.413  0.00  0.00    -0.358 OA
ENDROOT
BRANCH   1  13
ATOM     12  N   UNL     1       0.025  -0.015   2.417  0.00  0.00    -0.285 N 
ATOM     13  C   UNL     1      -0.056  -0.694   3.578  0.00  0.00    +0.224 C 
ATOM     14  O   UNL     1      -0.040  -1.907   3.573  0.00  0.00    -0.275 OA
ATOM     15  H   UNL     1       0.078   0.954   2.425  0.00  0.00    +0.155 HD
BRANCH  12  22
ATOM     16  C   UNL     1      -1.264   1.184   0.181  0.00  0.00    +0.045 C 
ATOM     17  C   UNL     1      -0.584  -0.158   0.084  0.00  0.00    -0.029 A 
ATOM     18  C   UNL     1      -0.568  -0.840  -1.117  0.00  0.00    +0.005 A 
ATOM     19  C   UNL     1       0.055  -2.071  -1.206  0.00  0.00    +0.000 A 
ATOM     20  C   UNL     1       0.666  -2.622  -0.095  0.00  0.00    +0.002 A 
ATOM     21  C   UNL     1       0.655  -1.945   1.108  0.00  0.00    +0.023 A 
ATOM     22  C   UNL     1       0.034  -0.706   1.201  0.00  0.00    +0.036 A 
ENDBRANCH  12  22
ENDBRANCH   1  13
BRANCH  10  23
ATOM     23  C   UNL     1      -2.041  -2.295   8.252  0.00  0.00    +0.237 C 
ATOM     24  O   UNL     1      -1.216  -3.180   8.333  0.00  0.00    -0.274 OA
ATOM     25  N   UNL     1      -3.354  -2.588   8.323  0.00  0.00    -0.309 N 
ATOM     26  H   UNL     1      -4.013  -1.879   8.259  0.00  0.00    +0.149 HD
BRANCH  25  27
ATOM     27  C   UNL     1      -3.786  -3.977   8.498  0.00  0.00    +0.026 C 
ATOM     28  C   UNL     1      -3.213  -4.529   9.805  0.00  0.00    +0.031 C 
ATOM     29  C   UNL     1      -5.314  -4.034   8.547  0.00  0.00    +0.031 C 
ATOM     30  C   UNL     1      -3.282  -4.819   7.324  0.00  0.00    +0.031 C 
ENDBRANCH  25  27
ENDBRANCH  10  23
BRANCH   9  31
ATOM     31  C   UNL     1       0.455  -0.595   9.719  0.00  0.00    +0.077 C 
ATOM     32  C   UNL     1       1.943  -0.252   9.824  0.00  0.00    +0.024 C 
ATOM     33  C   UNL     1       1.462  -1.671  10.132  0.00  0.00    +0.024 C 
ENDBRANCH   9  31
TORSDOF 5
