REMARK  Name = ZINC49123944
REMARK  4 active torsions:
REMARK  status: ('A' for Active; 'I' for Inactive)
REMARK    1  A    between atoms: C_1  and  C_2
REMARK    2  A    between atoms: C_7  and  C_11
REMARK    3  A    between atoms: N_13  and  C_14
REMARK    4  A    between atoms: C_14  and  C_19
REMARK                            x       y       z     vdW  Elec       q    Type
REMARK                         _______ _______ _______ _____ _____    ______ ____
ROOT
ATOM      1  C   UNL     1      -0.018   1.503   0.010  0.00  0.00    +0.044 C 
ATOM      2  C   UNL     1       0.002  -0.004   0.002  0.00  0.00    -0.046 A 
ATOM      3  C   UNL     1       0.006  -0.703  -1.218  0.00  0.00    +0.021 A 
ATOM      4  C   UNL     1       0.024  -2.051  -1.230  0.00  0.00    +0.093 A 
ATOM      5  N   UNL     1       0.039  -2.759  -0.060  0.00  0.00    -0.306 N 
ATOM      6  C   UNL     1       0.057  -4.095   0.203  0.00  0.00    +0.125 A 
ATOM      7  C   UNL     1       0.065  -4.237   1.561  0.00  0.00    +0.144 A 
ATOM      8  N   UNL     1       0.052  -3.008   2.111  0.00  0.00    -0.223 NA
ATOM      9  C   UNL     1       0.036  -2.104   1.146  0.00  0.00    +0.139 A 
ATOM     10  C   UNL     1       0.022  -0.693   1.173  0.00  0.00    +0.050 A 
ENDROOT
BRANCH   7  11
ATOM     11  C   UNL     1       0.085  -5.515   2.298  0.00  0.00    +0.264 C 
ATOM     12  O   UNL     1       0.096  -6.568   1.689  0.00  0.00    -0.268 OA
ATOM     13  N   UNL     1       0.092  -5.516   3.646  0.00  0.00    -0.305 N 
ATOM     14  H   UNL     1       0.083  -4.676   4.131  0.00  0.00    +0.150 HD
BRANCH  13  15
ATOM     15  C   UNL     1       0.112  -6.785   4.377  0.00  0.00    +0.032 C 
ATOM     16  C   UNL     1      -1.166  -7.588   4.074  0.00  0.00    +0.025 C 
ATOM     17  C   UNL     1      -1.894  -7.782   5.421  0.00  0.00    +0.002 C 
ATOM     18  C   UNL     1      -1.376  -6.619   6.303  0.00  0.00    +0.002 C 
ATOM     19  C   UNL     1       0.115  -6.519   5.897  0.00  0.00    +0.025 C 
ATOM     20  C   UNL     1       1.347  -7.597   3.984  0.00  0.00    +0.031 C 
ENDBRANCH  13  15
ENDBRANCH   7  11
TORSDOF 2
