REMARK  Name = ZINC41645136
REMARK  6 active torsions:
REMARK  status: ('A' for Active; 'I' for Inactive)
REMARK    1  A    between atoms: C_1  and  C_2
REMARK    2  A    between atoms: C_2  and  C_4
REMARK    3  A    between atoms: C_2  and  N_10
REMARK    4  A    between atoms: C_11  and  N_15
REMARK    5  A    between atoms: C_16  and  C_18
REMARK    6  A    between atoms: C_18  and  C_29
REMARK                            x       y       z     vdW  Elec       q    Type
REMARK                         _______ _______ _______ _____ _____    ______ ____
ROOT
ATOM      1  N   UNL     1       2.513  -1.715   0.070  0.00  0.00    -0.269 N 
ATOM      2  C   UNL     1       3.620  -2.469   0.219  0.00  0.00    +0.243 C 
ATOM      3  O   UNL     1       4.021  -2.744   1.331  0.00  0.00    -0.273 OA
ATOM      4  H   UNL     1       2.192  -1.496  -0.819  0.00  0.00    +0.156 HD
ENDROOT
BRANCH   2   5
ATOM      5  C   UNL     1       4.359  -2.971  -0.994  0.00  0.00    +0.170 C 
ATOM      6  C   UNL     1       5.736  -3.435  -0.593  0.00  0.00    +0.242 C 
ATOM      7  O   UNL     1       5.926  -3.743   0.565  0.00  0.00    -0.273 OA
ATOM      8  N   UNL     1       6.751  -3.523  -1.445  0.00  0.00    -0.283 N 
ATOM      9  C   UNL     1       6.759  -3.107  -2.773  0.00  0.00    +0.047 A 
ATOM     10  C   UNL     1       7.758  -3.571  -3.624  0.00  0.00    +0.024 A 
ATOM     11  C   UNL     1       7.782  -3.182  -4.948  0.00  0.00    +0.002 A 
ATOM     12  C   UNL     1       6.814  -2.327  -5.445  0.00  0.00    +0.001 A 
ATOM     13  C   UNL     1       5.818  -1.855  -4.611  0.00  0.00    +0.016 A 
ATOM     14  C   UNL     1       5.792  -2.240  -3.280  0.00  0.00    +0.031 A 
ATOM     15  S   UNL     1       4.535  -1.624  -2.204  0.00  0.00    -0.098 S 
ATOM     16  C   UNL     1       3.585  -4.131  -1.625  0.00  0.00    +0.043 C 
ATOM     17  H   UNL     1       7.571  -3.917  -1.107  0.00  0.00    +0.155 HD
ENDBRANCH   2   5
BRANCH   1  19
ATOM     18  N   UNL     1       0.711  -0.489   1.189  0.00  0.00    -0.243 N 
ATOM     19  C   UNL     1       1.829  -1.251   1.193  0.00  0.00    +0.124 A 
ATOM     20  C   UNL     1       2.164  -1.481   2.491  0.00  0.00    +0.065 A 
ATOM     21  C   UNL     1       1.220  -0.840   3.298  0.00  0.00    +0.136 A 
ATOM     22  N   UNL     1       0.354  -0.242   2.521  0.00  0.00    -0.177 NA
BRANCH  18  24
ATOM     23  C   UNL     1      -0.019   1.526   0.010  0.00  0.00    +0.038 C 
ATOM     24  C   UNL     1       0.002  -0.004   0.002  0.00  0.00    +0.136 C 
BRANCH  24  25
ATOM     25  C   UNL     1      -1.412  -0.526   0.013  0.00  0.00    -0.023 A 
ATOM     26  C   UNL     1      -2.259  -0.204   1.056  0.00  0.00    +0.006 A 
ATOM     27  C   UNL     1      -3.556  -0.683   1.066  0.00  0.00    +0.000 A 
ATOM     28  C   UNL     1      -4.006  -1.482   0.032  0.00  0.00    +0.000 A 
ATOM     29  C   UNL     1      -3.159  -1.803  -1.012  0.00  0.00    +0.000 A 
ATOM     30  C   UNL     1      -1.863  -1.321  -1.024  0.00  0.00    +0.006 A 
ENDBRANCH  24  25
ENDBRANCH  18  24
ENDBRANCH   1  19
TORSDOF 4
