REMARK  Name = ZINC00242157
REMARK  4 active torsions:
REMARK  status: ('A' for Active; 'I' for Inactive)
REMARK    1  A    between atoms: C_1  and  C_2
REMARK    2  A    between atoms: C_7  and  C_15
REMARK    3  A    between atoms: C_9  and  C_13
REMARK    4  A    between atoms: C_10  and  N_12
REMARK                            x       y       z     vdW  Elec       q    Type
REMARK                         _______ _______ _______ _____ _____    ______ ____
ROOT
ATOM      1  C   UNL     1      -5.021   2.256   4.947  0.00  0.00    +0.008 C 
ATOM      2  C   UNL     1      -4.217   2.591   3.689  0.00  0.00    +0.001 C 
ATOM      3  C   UNL     1      -5.128   2.518   2.463  0.00  0.00    +0.078 C 
ATOM      4  C   UNL     1      -4.343   2.882   1.224  0.00  0.00    +0.115 C 
ATOM      5  C   UNL     1      -3.327   3.762   1.290  0.00  0.00    +0.046 C 
ATOM      6  C   UNL     1      -2.557   4.141   0.048  0.00  0.00    +0.101 C 
ATOM      7  C   UNL     1      -3.347   3.776  -1.177  0.00  0.00    +0.098 C 
ATOM      8  C   UNL     1      -4.364   2.888  -1.102  0.00  0.00    +0.198 C 
ATOM      9  O   UNL     1      -4.695   2.304   0.061  0.00  0.00    -0.445 OA
ATOM     10  C   UNL     1      -2.949   4.354   2.511  0.00  0.00    +0.164 C 
ATOM     11  O   UNL     1      -2.035   5.154   2.528  0.00  0.00    -0.292 OA
ATOM     12  C   UNL     1      -3.656   4.013   3.794  0.00  0.00    +0.083 C 
ENDROOT
BRANCH   6  13
ATOM     13  C   UNL     1      -1.242   3.405   0.032  0.00  0.00    -0.032 A 
ATOM     14  C   UNL     1      -0.054   4.113   0.025  0.00  0.00    +0.007 A 
ATOM     15  C   UNL     1       1.153   3.441   0.010  0.00  0.00    +0.041 A 
ATOM     16  C   UNL     1       1.175   2.057   0.002  0.00  0.00    +0.158 A 
ATOM     17  C   UNL     1      -0.016   1.347   0.009  0.00  0.00    +0.159 A 
ATOM     18  C   UNL     1      -1.224   2.023   0.019  0.00  0.00    +0.046 A 
ATOM     19  F   UNL     1       0.002  -0.004   0.002  0.00  0.00    -0.202 F 
ATOM     20  F   UNL     1       2.354   1.399  -0.013  0.00  0.00    -0.202 F 
ENDBRANCH   6  13
BRANCH   8  21
ATOM     21  N   UNL     1      -5.072   2.577  -2.236  0.00  0.00    -0.328 N 
ATOM     22  H   UNL     1      -5.803   1.940  -2.192  0.00  0.00    +0.145 HD
ATOM     23  H   UNL     1      -4.841   2.993  -3.081  0.00  0.00    +0.145 HD
ENDBRANCH   8  21
BRANCH   7  24
ATOM     24  C   UNL     1      -3.021   4.374  -2.438  0.00  0.00    +0.101 C 
ATOM     25  N   UNL     1      -2.763   4.848  -3.437  0.00  0.00    -0.191 NA
ENDBRANCH   7  24
TORSDOF 3
