REMARK  Name = ZINC66394732
REMARK  7 active torsions:
REMARK  status: ('A' for Active; 'I' for Inactive)
REMARK    1  A    between atoms: C_3  and  C_9
REMARK    2  A    between atoms: C_9  and  C_11
REMARK    3  A    between atoms: C_9  and  N_13
REMARK    4  A    between atoms: C_14  and  C_16
REMARK    5  A    between atoms: C_16  and  O_17
REMARK    6  A    between atoms: O_17  and  C_18
REMARK    7  A    between atoms: C_21  and  N_24
REMARK                            x       y       z     vdW  Elec       q    Type
REMARK                         _______ _______ _______ _____ _____    ______ ____
ROOT
ATOM      1  N   UNL     1       3.454   3.508   0.570  0.00  0.00    -0.293 N 
ATOM      2  C   UNL     1       4.485   4.173   1.129  0.00  0.00    +0.252 C 
ATOM      3  O   UNL     1       5.591   3.677   1.142  0.00  0.00    -0.272 OA
ATOM      4  H   UNL     1       2.570   3.905   0.560  0.00  0.00    +0.150 HD
ENDROOT
BRANCH   1   5
ATOM      5  C   UNL     1       3.671   2.186  -0.023  0.00  0.00    +0.208 C 
BRANCH   5   8
ATOM      6  C   UNL     1      -0.017   1.378   0.010  0.00  0.00    +0.002 A 
ATOM      7  C   UNL     1       1.171   2.086   0.002  0.00  0.00    +0.008 A 
ATOM      8  C   UNL     1       2.378   1.413  -0.013  0.00  0.00    +0.006 A 
ATOM      9  C   UNL     1       2.398   0.030  -0.021  0.00  0.00    +0.065 A 
ATOM     10  C   UNL     1       1.209  -0.679  -0.013  0.00  0.00    +0.060 A 
ATOM     11  C   UNL     1       0.002  -0.004   0.002  0.00  0.00    +0.021 A 
ATOM     12 CL   UNL     1       1.234  -2.415  -0.023  0.00  0.00    -0.082 Cl
ATOM     13 CL   UNL     1       3.914  -0.816  -0.041  0.00  0.00    -0.082 Cl
ENDBRANCH   5   8
BRANCH   5  14
ATOM     14  C   UNL     1       4.141   2.341  -1.409  0.00  0.00    +0.090 C 
ATOM     15  N   UNL     1       4.503   2.460  -2.479  0.00  0.00    -0.194 NA
ENDBRANCH   5  14
ENDBRANCH   1   5
BRANCH   2  16
ATOM     16  C   UNL     1       4.262   5.533   1.739  0.00  0.00    +0.324 C 
BRANCH  16  17
ATOM     17  O   UNL     1       5.495   6.029   2.263  0.00  0.00    -0.483 OA
BRANCH  17  18
ATOM     18  C   UNL     1       5.468   7.253   2.852  0.00  0.00    +0.121 A 
ATOM     19  C   UNL     1       4.278   7.961   2.929  0.00  0.00    +0.048 A 
ATOM     20  C   UNL     1       4.253   9.205   3.528  0.00  0.00    +0.036 A 
ATOM     21  C   UNL     1       5.413   9.745   4.051  0.00  0.00    +0.126 A 
ATOM     22  C   UNL     1       6.601   9.042   3.975  0.00  0.00    +0.036 A 
ATOM     23  C   UNL     1       6.630   7.795   3.381  0.00  0.00    +0.048 A 
BRANCH  21  24
ATOM     24  N   UNL     1       5.383  11.079   4.692  0.00  0.00    +0.056 N 
ATOM     25  O   UNL     1       4.345  11.695   4.759  0.00  0.00    -0.126 OA
ATOM     26  O   UNL     1       6.398  11.552   5.150  0.00  0.00    -0.126 OA
ENDBRANCH  21  24
ENDBRANCH  17  18
ENDBRANCH  16  17
ENDBRANCH   2  16
TORSDOF 7
