REMARK  Name = ZINC58966288
REMARK  9 active torsions:
REMARK  status: ('A' for Active; 'I' for Inactive)
REMARK    1  A    between atoms: C_1  and  C_2
REMARK    2  A    between atoms: C_2  and  C_3
REMARK    3  A    between atoms: C_8  and  N_9
REMARK    4  A    between atoms: C_10  and  C_12
REMARK    5  A    between atoms: C_12  and  C_14
REMARK    6  A    between atoms: C_12  and  S_15
REMARK    7  A    between atoms: S_15  and  C_16
REMARK    8  A    between atoms: C_18  and  C_26
REMARK    9  A    between atoms: C_20  and  C_22
REMARK                            x       y       z     vdW  Elec       q    Type
REMARK                         _______ _______ _______ _____ _____    ______ ____
ROOT
ATOM      1  S   UNL     1       6.524  -1.111   1.097  0.00  0.00    -0.074 S 
ENDROOT
BRANCH   1   2
ATOM      2  C   UNL     1       7.244  -0.837   2.681  0.00  0.00    +0.190 A 
ATOM      3  N   UNL     1       8.429  -1.363   2.951  0.00  0.00    -0.219 NA
ATOM      4  C   UNL     1       9.000  -1.173   4.141  0.00  0.00    +0.111 A 
ATOM      5  C   UNL     1       8.326  -0.407   5.102  0.00  0.00    +0.064 A 
ATOM      6  C   UNL     1       7.092   0.121   4.775  0.00  0.00    +0.149 A 
ATOM      7  N   UNL     1       6.588  -0.104   3.571  0.00  0.00    -0.218 NA
BRANCH   4   8
ATOM      8  C   UNL     1      10.320  -1.760   4.441  0.00  0.00    +0.153 A 
ATOM      9  C   UNL     1      11.071  -2.514   3.593  0.00  0.00    +0.051 A 
ATOM     10  C   UNL     1      12.245  -2.859   4.288  0.00  0.00    +0.042 A 
ATOM     11  C   UNL     1      12.155  -2.306   5.515  0.00  0.00    +0.196 A 
ATOM     12  O   UNL     1      10.995  -1.638   5.601  0.00  0.00    -0.461 OA
ENDBRANCH   4   8
BRANCH   6  13
ATOM     13  C   UNL     1       6.330   0.951   5.776  0.00  0.00    +0.434 C 
ATOM     14  F   UNL     1       6.682   2.297   5.630  0.00  0.00    -0.164 F 
ATOM     15  F   UNL     1       4.956   0.801   5.556  0.00  0.00    -0.164 F 
ATOM     16  F   UNL     1       6.644   0.524   7.071  0.00  0.00    -0.164 F 
ENDBRANCH   6  13
ENDBRANCH   1   2
BRANCH   1  17
ATOM     17  C   UNL     1       4.947  -0.219   1.171  0.00  0.00    +0.137 C 
ATOM     18  C   UNL     1       5.215   1.281   1.310  0.00  0.00    +0.029 C 
BRANCH  17  20
ATOM     19  N   UNL     1       2.833  -0.268  -0.113  0.00  0.00    -0.284 N 
ATOM     20  C   UNL     1       4.165  -0.474  -0.091  0.00  0.00    +0.230 C 
ATOM     21  O   UNL     1       4.734  -0.865  -1.088  0.00  0.00    -0.274 OA
ATOM     22  H   UNL     1       2.388   0.106   0.663  0.00  0.00    +0.155 HD
BRANCH  19  28
ATOM     23  C   UNL     1       0.800  -1.084  -1.129  0.00  0.00    -0.026 A 
ATOM     24  C   UNL     1       0.070  -1.399  -2.259  0.00  0.00    +0.005 A 
ATOM     25  C   UNL     1       0.627  -1.234  -3.513  0.00  0.00    +0.000 A 
ATOM     26  C   UNL     1       1.917  -0.751  -3.641  0.00  0.00    +0.002 A 
ATOM     27  C   UNL     1       2.652  -0.433  -2.516  0.00  0.00    +0.023 A 
ATOM     28  C   UNL     1       2.093  -0.594  -1.255  0.00  0.00    +0.037 A 
BRANCH  23  30
ATOM     29  C   UNL     1      -0.422   0.058   0.702  0.00  0.00    +0.009 C 
ATOM     30  C   UNL     1       0.191  -1.265   0.238  0.00  0.00    +0.033 C 
ENDBRANCH  23  30
ENDBRANCH  19  28
ENDBRANCH  17  20
ENDBRANCH   1  17
TORSDOF 7
