REMARK  Name = ZINC56055420
REMARK  6 active torsions:
REMARK  status: ('A' for Active; 'I' for Inactive)
REMARK    1  A    between atoms: C_1  and  C_2
REMARK    2  A    between atoms: C_2  and  O_3
REMARK    3  A    between atoms: O_3  and  C_4
REMARK    4  A    between atoms: C_4  and  C_6
REMARK    5  A    between atoms: C_8  and  C_14
REMARK    6  A    between atoms: C_22  and  C_24
REMARK                            x       y       z     vdW  Elec       q    Type
REMARK                         _______ _______ _______ _____ _____    ______ ____
ROOT
ATOM      1  C   UNL     1       1.832  -2.076   2.894  0.00  0.00    +0.148 C 
ATOM      2  C   UNL     1       1.789  -3.484   2.749  0.00  0.00    +0.049 C 
ATOM      3  C   UNL     1       2.325  -4.311   3.904  0.00  0.00    +0.141 C 
ATOM      4  N   UNL     1       2.838  -3.558   5.063  0.00  0.00    -0.314 N 
ATOM      5  C   UNL     1       2.798  -2.213   5.024  0.00  0.00    +0.155 C 
ATOM      6  S   UNL     1       3.393  -1.340   6.371  0.00  0.00    -0.017 S 
ATOM      7  N   UNL     1       2.323  -1.529   3.985  0.00  0.00    -0.186 NA
ATOM      8  C   UNL     1       1.293  -4.066   1.633  0.00  0.00    +0.160 C 
ATOM      9  O   UNL     1       0.969  -3.309   0.567  0.00  0.00    -0.293 OA
ATOM     10  C   UNL     1       1.104  -5.560   1.583  0.00  0.00    +0.091 C 
ATOM     11  H   UNL     1       3.195  -4.021   5.837  0.00  0.00    +0.149 HD
ENDROOT
BRANCH   3  12
ATOM     12  C   UNL     1       3.443  -5.176   3.382  0.00  0.00    +0.014 A 
ATOM     13  C   UNL     1       4.600  -4.594   2.897  0.00  0.00    +0.048 A 
ATOM     14  C   UNL     1       5.626  -5.389   2.417  0.00  0.00    +0.020 A 
ATOM     15  C   UNL     1       5.494  -6.765   2.422  0.00  0.00    +0.003 A 
ATOM     16  C   UNL     1       4.338  -7.348   2.906  0.00  0.00    +0.020 A 
ATOM     17  C   UNL     1       3.314  -6.553   3.392  0.00  0.00    +0.048 A 
ATOM     18 CL   UNL     1       1.865  -7.285   4.006  0.00  0.00    -0.083 Cl
ATOM     19 CL   UNL     1       4.766  -2.866   2.890  0.00  0.00    -0.083 Cl
ENDBRANCH   3  12
BRANCH   1  20
ATOM     20  C   UNL     1       1.323  -1.207   1.800  0.00  0.00    +0.356 C 
ATOM     21  O   UNL     1       2.055  -0.891   0.885  0.00  0.00    -0.243 OA
BRANCH  20  22
ATOM     22  O   UNL     1       0.049  -0.771   1.824  0.00  0.00    -0.461 OA
BRANCH  22  24
ATOM     23  C   UNL     1      -1.838   0.453   0.941  0.00  0.00    +0.048 C 
ATOM     24  C   UNL     1      -0.373   0.060   0.741  0.00  0.00    +0.229 C 
ENDBRANCH  22  24
ENDBRANCH  20  22
ENDBRANCH   1  20
TORSDOF 4
