REMARK  Name = ZINC33161981
REMARK  5 active torsions:
REMARK  status: ('A' for Active; 'I' for Inactive)
REMARK    1  A    between atoms: C_1  and  C_2
REMARK    2  A    between atoms: C_2  and  O_3
REMARK    3  A    between atoms: O_3  and  C_4
REMARK    4  A    between atoms: C_9  and  C_10
REMARK    5  A    between atoms: C_18  and  C_20
REMARK                            x       y       z     vdW  Elec       q    Type
REMARK                         _______ _______ _______ _____ _____    ______ ____
ROOT
ATOM      1  C   UNL     1       0.006   4.252   0.025  0.00  0.00    +0.032 C 
ATOM      2  C   UNL     1       0.066   5.605   0.135  0.00  0.00    +0.082 A 
ATOM      3  C   UNL     1      -1.024   6.582   0.265  0.00  0.00    +0.288 A 
ATOM      4  O   UNL     1      -2.188   6.226   0.287  0.00  0.00    -0.265 OA
ATOM      5  N   UNL     1      -0.692   7.877   0.362  0.00  0.00    -0.169 N 
ATOM      6  C   UNL     1       0.628   8.225   0.324  0.00  0.00    +0.200 A 
ATOM      7  S   UNL     1       1.493   6.681   0.151  0.00  0.00    -0.044 S 
ATOM      8  N   UNL     1       0.744   9.519   0.425  0.00  0.00    -0.200 NA
ATOM      9  C   UNL     1      -0.476  10.066   0.532  0.00  0.00    +0.183 A 
ATOM     10  N   UNL     1      -1.377   9.115   0.499  0.00  0.00    -0.141 NA
ENDROOT
BRANCH   1  16
ATOM     11  C   UNL     1       1.246   2.132  -0.386  0.00  0.00    +0.128 A 
ATOM     12  C   UNL     1       2.413   1.388  -0.318  0.00  0.00    +0.046 A 
ATOM     13  C   UNL     1       3.564   1.949   0.202  0.00  0.00    +0.004 A 
ATOM     14  C   UNL     1       3.560   3.254   0.669  0.00  0.00    +0.001 A 
ATOM     15  C   UNL     1       2.409   4.008   0.615  0.00  0.00    +0.011 A 
ATOM     16  C   UNL     1       1.237   3.455   0.086  0.00  0.00    +0.018 A 
BRANCH  11  17
ATOM     17  O   UNL     1       0.117   1.583  -0.901  0.00  0.00    -0.492 OA
BRANCH  17  19
ATOM     18  C   UNL     1      -1.157  -0.209  -1.904  0.00  0.00    +0.048 C 
ATOM     19  C   UNL     1       0.203   0.233  -1.361  0.00  0.00    +0.226 C 
ENDBRANCH  17  19
ENDBRANCH  11  17
ENDBRANCH   1  16
BRANCH   9  20
ATOM     20  C   UNL     1      -0.760  11.516   0.667  0.00  0.00    +0.021 A 
ATOM     21  C   UNL     1      -2.075  11.965   0.765  0.00  0.00    +0.011 A 
ATOM     22  C   UNL     1      -2.333  13.314   0.895  0.00  0.00    +0.001 A 
ATOM     23  C   UNL     1      -1.290  14.222   0.918  0.00  0.00    +0.000 A 
ATOM     24  C   UNL     1       0.018  13.782   0.815  0.00  0.00    +0.001 A 
ATOM     25  C   UNL     1       0.288  12.434   0.690  0.00  0.00    +0.011 A 
ENDBRANCH   9  20
TORSDOF 4
