REMARK  Name = ZINC46797818
REMARK  6 active torsions:
REMARK  status: ('A' for Active; 'I' for Inactive)
REMARK    1  A    between atoms: C_1  and  C_2
REMARK    2  A    between atoms: C_8  and  C_10
REMARK    3  A    between atoms: C_10  and  N_11
REMARK    4  A    between atoms: N_11  and  C_12
REMARK    5  A    between atoms: C_13  and  C_15
REMARK    6  A    between atoms: C_16  and  C_25
REMARK                            x       y       z     vdW  Elec       q    Type
REMARK                         _______ _______ _______ _____ _____    ______ ____
ROOT
ATOM      1  N   UNL     1      -5.149  -3.928   0.085  0.00  0.00    -0.289 N 
ATOM      2  C   UNL     1      -6.057  -3.619  -1.022  0.00  0.00    +0.133 C 
ATOM      3  C   UNL     1      -5.628  -4.034   1.341  0.00  0.00    +0.282 C 
ATOM      4  O   UNL     1      -4.862  -4.194   2.272  0.00  0.00    -0.267 OA
ENDROOT
BRANCH   3   5
ATOM      5  C   UNL     1      -7.075  -3.956   1.584  0.00  0.00    +0.194 A 
ATOM      6  C   UNL     1      -7.661  -3.924   2.808  0.00  0.00    +0.008 A 
ATOM      7  C   UNL     1      -9.102  -3.847   2.566  0.00  0.00    +0.025 A 
ATOM      8  C   UNL     1     -10.226  -3.786   3.393  0.00  0.00    +0.032 A 
ATOM      9  C   UNL     1     -11.473  -3.719   2.837  0.00  0.00    +0.042 A 
ATOM     10  C   UNL     1     -11.628  -3.711   1.456  0.00  0.00    +0.023 A 
ATOM     11  C   UNL     1     -10.531  -3.770   0.624  0.00  0.00    +0.048 A 
ATOM     12  C   UNL     1      -9.253  -3.838   1.167  0.00  0.00    +0.136 A 
ATOM     13  O   UNL     1      -8.022  -3.899   0.624  0.00  0.00    -0.450 OA
ATOM     14 CL   UNL     1     -12.872  -3.644   3.862  0.00  0.00    -0.084 Cl
ATOM     15  C   UNL     1      -6.968  -3.962   4.146  0.00  0.00    +0.048 C 
ENDBRANCH   3   5
BRANCH   1  16
ATOM     16  C   UNL     1      -3.719  -4.122  -0.172  0.00  0.00    +0.203 C 
BRANCH  16  24
ATOM     17  C   UNL     1      -0.834   2.136   0.447  0.00  0.00    +0.089 C 
ATOM     18  C   UNL     1      -0.641   0.668   0.166  0.00  0.00    +0.136 A 
ATOM     19  C   UNL     1      -1.608  -0.267   0.157  0.00  0.00    +0.091 A 
ATOM     20  C   UNL     1      -1.012  -1.511  -0.149  0.00  0.00    +0.168 A 
ATOM     21  N   UNL     1       0.271  -1.311  -0.316  0.00  0.00    -0.063 NA
ATOM     22  O   UNL     1       0.524   0.069  -0.125  0.00  0.00    -0.358 OA
ATOM     23  N   UNL     1      -1.673  -2.734  -0.255  0.00  0.00    -0.266 N 
ATOM     24  C   UNL     1      -3.005  -2.800  -0.058  0.00  0.00    +0.236 C 
ATOM     25  O   UNL     1      -3.628  -1.795   0.212  0.00  0.00    -0.274 OA
ATOM     26  H   UNL     1      -1.175  -3.538  -0.471  0.00  0.00    +0.156 HD
ENDBRANCH  16  24
ENDBRANCH   1  16
TORSDOF 3
