REMARK  Name = ZINC65444072
REMARK  4 active torsions:
REMARK  status: ('A' for Active; 'I' for Inactive)
REMARK    1  A    between atoms: C_1  and  C_2
REMARK    2  A    between atoms: C_2  and  C_4
REMARK    3  A    between atoms: C_2  and  N_14
REMARK    4  A    between atoms: N_17  and  C_18
REMARK                            x       y       z     vdW  Elec       q    Type
REMARK                         _______ _______ _______ _____ _____    ______ ____
ROOT
ATOM      1  N   UNL     1       0.688  -0.476  -1.203  0.00  0.00    -0.293 N 
ATOM      2  C   UNL     1       0.006  -0.608  -2.358  0.00  0.00    +0.300 C 
ATOM      3  O   UNL     1      -1.178  -0.335  -2.400  0.00  0.00    -0.253 OA
ATOM      4  N   UNL     1       0.637  -1.043  -3.467  0.00  0.00    -0.298 N 
ATOM      5  H   UNL     1       1.632  -0.695  -1.170  0.00  0.00    +0.151 HD
ATOM      6  H   UNL     1       1.582  -1.261  -3.434  0.00  0.00    +0.150 HD
ENDROOT
BRANCH   4   7
ATOM      7  C   UNL     1      -0.104  -1.186  -4.723  0.00  0.00    +0.059 C 
ATOM      8  C   UNL     1      -0.069   0.134  -5.542  0.00  0.00    +0.002 C 
ATOM      9  C   UNL     1       0.103  -0.313  -7.014  0.00  0.00    -0.077 C 
ATOM     10  N   UNL     1       0.059  -1.776  -6.997  0.00  0.00    +0.383 N 
ATOM     11  C   UNL     1       0.605  -2.169  -5.671  0.00  0.00    -0.048 C 
ATOM     12  C   UNL     1       0.227  -3.625  -5.435  0.00  0.00    -0.014 C 
ATOM     13  C   UNL     1       0.929  -4.464  -6.514  0.00  0.00    -0.003 C 
ATOM     14  C   UNL     1       0.565  -3.958  -7.909  0.00  0.00    -0.019 C 
ATOM     15  C   UNL     1       0.834  -2.449  -8.029  0.00  0.00    -0.078 C 
ATOM     16  H   UNL     1      -0.901  -2.080  -7.051  0.00  0.00    -0.081 HD
ENDBRANCH   4   7
BRANCH   1  18
ATOM     17  C   UNL     1      -0.019   1.526   0.010  0.00  0.00    +0.033 C 
ATOM     18  C   UNL     1       0.002  -0.004   0.002  0.00  0.00    +0.102 C 
BRANCH  18  19
ATOM     19  C   UNL     1       0.731  -0.503   1.223  0.00  0.00    -0.027 A 
ATOM     20  C   UNL     1       2.114  -0.514   1.249  0.00  0.00    +0.007 A 
ATOM     21  C   UNL     1       2.787  -0.970   2.363  0.00  0.00    +0.024 A 
ATOM     22  C   UNL     1       2.076  -1.423   3.473  0.00  0.00    +0.037 A 
ATOM     23  C   UNL     1       0.688  -1.406   3.435  0.00  0.00    -0.017 A 
ATOM     24  C   UNL     1       0.018  -0.946   2.324  0.00  0.00    +0.011 A 
ATOM     25  C   UNL     1       0.220  -1.949   4.766  0.00  0.00    +0.133 C 
ATOM     26  C   UNL     1       1.502  -2.254   5.511  0.00  0.00    +0.222 C 
ATOM     27  O   UNL     1       1.593  -2.711   6.630  0.00  0.00    -0.275 OA
ATOM     28  N   UNL     1       2.519  -1.923   4.698  0.00  0.00    -0.285 N 
ATOM     29  H   UNL     1       3.455  -2.021   4.936  0.00  0.00    +0.155 HD
ENDBRANCH  18  19
ENDBRANCH   1  18
TORSDOF 3
