REMARK  Name = ZINC61327142
REMARK  4 active torsions:
REMARK  status: ('A' for Active; 'I' for Inactive)
REMARK    1  A    between atoms: C_1  and  C_2
REMARK    2  A    between atoms: C_5  and  N_11
REMARK    3  A    between atoms: C_6  and  N_8
REMARK    4  A    between atoms: N_11  and  C_12
REMARK                            x       y       z     vdW  Elec       q    Type
REMARK                         _______ _______ _______ _____ _____    ______ ____
ROOT
ATOM      1  N   UNL     1       0.555  -4.108  -0.213  0.00  0.00    -0.335 N 
ATOM      2  H   UNL     1       0.640  -4.648   0.589  0.00  0.00    +0.147 HD
ENDROOT
BRANCH   1   3
ATOM      3  C   UNL     1       0.707  -4.727  -1.532  0.00  0.00    +0.101 C 
ATOM      4  C   UNL     1       0.380  -6.218  -1.440  0.00  0.00    +0.027 C 
ATOM      5  C   UNL     1       1.432  -6.934  -0.589  0.00  0.00    +0.007 C 
ATOM      6  C   UNL     1       2.754  -6.974  -1.371  0.00  0.00    +0.043 C 
ATOM      7  C   UNL     1       3.020  -5.607  -1.913  0.00  0.00    -0.005 A 
ATOM      8  C   UNL     1       2.147  -4.565  -2.010  0.00  0.00    -0.017 A 
ATOM      9  C   UNL     1       2.641  -3.381  -2.556  0.00  0.00    +0.013 A 
ATOM     10  C   UNL     1       3.930  -3.307  -2.961  0.00  0.00    +0.046 A 
ATOM     11  S   UNL     1       4.528  -4.956  -2.580  0.00  0.00    -0.101 S 
ENDBRANCH   1   3
BRANCH   1  16
ATOM     12  C   UNL     1      -0.532   1.441   0.209  0.00  0.00    +0.044 C 
ATOM     13  C   UNL     1      -0.243  -0.034   0.097  0.00  0.00    -0.048 A 
ATOM     14  C   UNL     1      -0.219  -0.639  -1.146  0.00  0.00    +0.005 A 
ATOM     15  C   UNL     1       0.045  -1.990  -1.252  0.00  0.00    +0.025 A 
ATOM     16  C   UNL     1       0.287  -2.741  -0.109  0.00  0.00    +0.058 A 
ATOM     17  C   UNL     1       0.262  -2.130   1.138  0.00  0.00    +0.147 A 
ATOM     18  C   UNL     1       0.002  -0.777   1.237  0.00  0.00    +0.038 A 
BRANCH  17  19
ATOM     19  N   UNL     1       0.519  -2.926   2.359  0.00  0.00    +0.058 N 
ATOM     20  O   UNL     1       0.096  -4.056   2.444  0.00  0.00    -0.126 OA
ATOM     21  O   UNL     1       1.151  -2.447   3.271  0.00  0.00    -0.126 OA
ENDBRANCH  17  19
ENDBRANCH   1  16
TORSDOF 3
