REMARK  Name = ZINC36212580
REMARK  8 active torsions:
REMARK  status: ('A' for Active; 'I' for Inactive)
REMARK    1  A    between atoms: C_1  and  C_2
REMARK    2  A    between atoms: C_2  and  C_3
REMARK    3  A    between atoms: C_2  and  N_4
REMARK    4  A    between atoms: C_5  and  C_7
REMARK    5  A    between atoms: C_7  and  C_9
REMARK    6  A    between atoms: C_7  and  N_22
REMARK    7  A    between atoms: C_15  and  C_17
REMARK    8  A    between atoms: C_23  and  C_25
REMARK                            x       y       z     vdW  Elec       q    Type
REMARK                         _______ _______ _______ _____ _____    ______ ____
ROOT
ATOM      1  C   UNL     1      -3.822  -4.222  -1.036  0.00  0.00    +0.162 C 
ENDROOT
BRANCH   1   2
ATOM      2  C   UNL     1      -4.264  -2.882  -1.629  0.00  0.00    +0.021 C 
ATOM      3  C   UNL     1      -3.925  -2.848  -3.121  0.00  0.00    +0.025 C 
ATOM      4  C   UNL     1      -4.337  -1.492  -3.703  0.00  0.00    +0.108 C 
ATOM      5  N   UNL     1      -5.756  -1.260  -3.401  0.00  0.00    -0.301 N 
ATOM      6  C   UNL     1      -6.207  -1.359  -2.006  0.00  0.00    +0.108 C 
ATOM      7  C   UNL     1      -5.774  -2.716  -1.443  0.00  0.00    +0.025 C 
ATOM      8  C   UNL     1      -6.627  -0.961  -4.385  0.00  0.00    +0.219 C 
ATOM      9  O   UNL     1      -7.810  -0.857  -4.136  0.00  0.00    -0.275 OA
BRANCH   8  10
ATOM     10  C   UNL     1      -6.132  -0.755  -5.793  0.00  0.00    +0.075 C 
ATOM     11  C   UNL     1      -5.646   0.697  -5.976  0.00  0.00    +0.013 C 
ATOM     12  C   UNL     1      -6.078   1.064  -7.417  0.00  0.00    +0.001 C 
ATOM     13  C   UNL     1      -7.457   0.372  -7.547  0.00  0.00    +0.001 C 
ATOM     14  C   UNL     1      -7.284  -0.962  -6.792  0.00  0.00    +0.013 C 
ENDBRANCH   8  10
ENDBRANCH   1   2
BRANCH   1  16
ATOM     15  N   UNL     1      -1.548  -3.427  -0.478  0.00  0.00    -0.311 N 
ATOM     16  C   UNL     1      -2.321  -4.333  -1.108  0.00  0.00    +0.234 C 
ATOM     17  O   UNL     1      -1.809  -5.237  -1.734  0.00  0.00    -0.274 OA
ATOM     18  H   UNL     1      -1.957  -2.704   0.023  0.00  0.00    +0.149 HD
BRANCH  15  20
ATOM     19  C   UNL     1       0.536  -2.155  -0.330  0.00  0.00    +0.027 C 
ATOM     20  C   UNL     1      -0.088  -3.535  -0.548  0.00  0.00    +0.067 C 
ATOM     21  C   UNL     1       0.405  -4.494   0.537  0.00  0.00    +0.027 C 
ENDBRANCH  15  20
ENDBRANCH   1  16
BRANCH   1  22
ATOM     22  N   UNL     1      -4.430  -5.317  -1.797  0.00  0.00    -0.300 N 
ATOM     23  C   UNL     1      -4.620  -6.518  -1.216  0.00  0.00    +0.245 C 
ATOM     24  O   UNL     1      -4.287  -6.693  -0.060  0.00  0.00    -0.270 OA
ATOM     25  H   UNL     1      -4.696  -5.177  -2.720  0.00  0.00    +0.150 HD
BRANCH  23  26
ATOM     26  C   UNL     1      -5.233  -7.622  -1.984  0.00  0.00    +0.037 A 
ATOM     27  C   UNL     1      -5.611  -7.426  -3.313  0.00  0.00    +0.013 A 
ATOM     28  C   UNL     1      -6.182  -8.461  -4.024  0.00  0.00    +0.001 A 
ATOM     29  C   UNL     1      -6.381  -9.691  -3.423  0.00  0.00    +0.000 A 
ATOM     30  C   UNL     1      -6.009  -9.892  -2.105  0.00  0.00    +0.001 A 
ATOM     31  C   UNL     1      -5.431  -8.867  -1.385  0.00  0.00    +0.013 A 
ENDBRANCH  23  26
ENDBRANCH   1  22
TORSDOF 6
