REMARK  Name = ZINC40088478
REMARK  9 active torsions:
REMARK  status: ('A' for Active; 'I' for Inactive)
REMARK    1  A    between atoms: C_1  and  C_2
REMARK    2  A    between atoms: C_2  and  C_3
REMARK    3  A    between atoms: C_2  and  C_4
REMARK    4  A    between atoms: C_2  and  C_5
REMARK    5  A    between atoms: C_7  and  N_18
REMARK    6  A    between atoms: N_8  and  C_10
REMARK    7  A    between atoms: C_19  and  C_21
REMARK    8  A    between atoms: N_29  and  C_30
REMARK    9  A    between atoms: N_29  and  C_31
REMARK                            x       y       z     vdW  Elec       q    Type
REMARK                         _______ _______ _______ _____ _____    ______ ____
ROOT
ATOM      1  C   UNL     1       0.292  -3.082  -3.582  0.00  0.00    +0.070 A 
ATOM      2  C   UNL     1       1.620  -2.789  -3.258  0.00  0.00    +0.069 A 
ATOM      3  C   UNL     1       2.248  -2.390  -4.398  0.00  0.00    +0.124 A 
ATOM      4  N   UNL     1       1.342  -2.433  -5.400  0.00  0.00    -0.246 N 
ATOM      5  N   UNL     1       0.126  -2.875  -4.863  0.00  0.00    -0.174 NA
ENDROOT
BRANCH   4   6
ATOM      6  C   UNL     1       1.589  -2.085  -6.802  0.00  0.00    +0.132 C 
ATOM      7  C   UNL     1       1.294  -3.304  -7.691  0.00  0.00    +0.051 C 
ATOM      8  C   UNL     1       1.257  -2.827  -9.171  0.00  0.00    +0.168 C 
ATOM      9  S   UNL     1       0.357  -1.230  -8.988  0.00  0.00    -0.029 S 
ATOM     10  O   UNL     1       1.013  -0.238  -9.764  0.00  0.00    -0.174 OA
ATOM     11  O   UNL     1      -1.033  -1.459  -9.176  0.00  0.00    -0.174 OA
ATOM     12  C   UNL     1       0.673  -0.904  -7.207  0.00  0.00    +0.192 C 
ENDBRANCH   4   6
BRANCH   1  14
ATOM     13  C   UNL     1      -1.236  -2.391  -1.755  0.00  0.00    +0.017 C 
ATOM     14  C   UNL     1      -0.765  -3.562  -2.621  0.00  0.00    +0.006 C 
ATOM     15  C   UNL     1      -0.181  -4.656  -1.725  0.00  0.00    +0.017 C 
ATOM     16  C   UNL     1      -1.951  -4.125  -3.406  0.00  0.00    +0.017 C 
ENDBRANCH   1  14
BRANCH   3  17
ATOM     17  N   UNL     1       3.585  -2.007  -4.511  0.00  0.00    -0.270 N 
ATOM     18  C   UNL     1       4.381  -2.010  -3.424  0.00  0.00    +0.221 C 
ATOM     19  O   UNL     1       3.936  -2.348  -2.347  0.00  0.00    -0.275 OA
ATOM     20  H   UNL     1       3.941  -1.737  -5.372  0.00  0.00    +0.156 HD
BRANCH  18  21
ATOM     21  C   UNL     1       5.825  -1.596  -3.546  0.00  0.00    +0.078 C 
ATOM     22  C   UNL     1       6.539  -2.522  -4.533  0.00  0.00    +0.032 C 
ATOM     23  C   UNL     1       7.998  -2.076  -4.681  0.00  0.00    +0.110 C 
ATOM     24  N   UNL     1       8.614  -2.024  -3.349  0.00  0.00    -0.285 N 
ATOM     25  C   UNL     1       7.958  -1.234  -2.297  0.00  0.00    +0.110 C 
ATOM     26  C   UNL     1       6.500  -1.689  -2.176  0.00  0.00    +0.032 C 
ATOM     27  C   UNL     1       9.759  -2.688  -3.095  0.00  0.00    +0.304 C 
ATOM     28  O   UNL     1       9.904  -3.825  -3.499  0.00  0.00    -0.252 OA
ATOM     29  N   UNL     1      10.742  -2.091  -2.393  0.00  0.00    -0.292 N 
ATOM     30  C   UNL     1      11.962  -2.834  -2.064  0.00  0.00    +0.133 C 
ATOM     31  C   UNL     1      10.593  -0.700  -1.959  0.00  0.00    +0.133 C 
ENDBRANCH  18  21
ENDBRANCH   3  17
TORSDOF 4
