REMARK  Name = ZINC46077460
REMARK  8 active torsions:
REMARK  status: ('A' for Active; 'I' for Inactive)
REMARK    1  A    between atoms: C_1  and  C_2
REMARK    2  A    between atoms: C_2  and  O_3
REMARK    3  A    between atoms: O_3  and  C_4
REMARK    4  A    between atoms: C_7  and  N_10
REMARK    5  A    between atoms: N_10  and  C_11
REMARK    6  A    between atoms: N_10  and  S_12
REMARK    7  A    between atoms: S_12  and  C_15
REMARK    8  A    between atoms: C_26  and  C_31
REMARK                            x       y       z     vdW  Elec       q    Type
REMARK                         _______ _______ _______ _____ _____    ______ ____
ROOT
ATOM      1  C   UNL     1       3.656  -6.960  -1.862  0.00  0.00    +0.110 A 
ATOM      2  C   UNL     1       4.643  -6.011  -1.650  0.00  0.00    +0.032 A 
ATOM      3  C   UNL     1       5.740  -6.310  -0.868  0.00  0.00    +0.049 A 
ATOM      4  C   UNL     1       5.865  -7.567  -0.294  0.00  0.00    +0.141 A 
ATOM      5  C   UNL     1       4.882  -8.536  -0.523  0.00  0.00    +0.081 A 
ATOM      6  C   UNL     1       3.765  -8.213  -1.300  0.00  0.00    +0.045 A 
ATOM      7  C   UNL     1       5.026  -9.894   0.020  0.00  0.00    +0.252 C 
ATOM      8  O   UNL     1       4.661 -10.819  -0.679  0.00  0.00    -0.270 OA
ATOM      9  N   UNL     1       5.524 -10.186   1.213  0.00  0.00    -0.278 N 
ATOM     10  C   UNL     1       5.974  -9.271   2.164  0.00  0.00    +0.077 A 
ATOM     11  C   UNL     1       5.694  -9.505   3.507  0.00  0.00    +0.030 A 
ATOM     12  C   UNL     1       6.149  -8.632   4.475  0.00  0.00    -0.048 A 
ATOM     13  C   UNL     1       6.889  -7.521   4.114  0.00  0.00    +0.007 A 
ATOM     14  C   UNL     1       7.162  -7.276   2.782  0.00  0.00    +0.048 A 
ATOM     15  C   UNL     1       6.696  -8.142   1.802  0.00  0.00    +0.150 A 
ATOM     16  O   UNL     1       6.926  -7.841   0.500  0.00  0.00    -0.453 OA
ATOM     17  C   UNL     1       5.839  -8.890   5.927  0.00  0.00    +0.044 C 
ATOM     18  H   UNL     1       5.580 -11.126   1.447  0.00  0.00    +0.155 HD
ENDROOT
BRANCH   1  19
ATOM     19  S   UNL     1       2.252  -6.560  -2.849  0.00  0.00    +0.074 S 
ATOM     20  O   UNL     1       1.737  -7.790  -3.340  0.00  0.00    -0.150 OA
ATOM     21  O   UNL     1       2.650  -5.502  -3.711  0.00  0.00    -0.150 OA
BRANCH  19  22
ATOM     22  N   UNL     1       1.102  -5.937  -1.834  0.00  0.00    -0.206 N 
ATOM     23  C   UNL     1       0.207  -6.836  -1.101  0.00  0.00    +0.157 C 
BRANCH  22  27
ATOM     24  C   UNL     1       0.753  -1.810  -1.365  0.00  0.00    +0.121 A 
ATOM     25  C   UNL     1       1.039  -2.610  -0.269  0.00  0.00    +0.047 A 
ATOM     26  C   UNL     1       1.155  -3.978  -0.423  0.00  0.00    +0.028 A 
ATOM     27  C   UNL     1       0.985  -4.551  -1.677  0.00  0.00    +0.051 A 
ATOM     28  C   UNL     1       0.698  -3.749  -2.773  0.00  0.00    +0.028 A 
ATOM     29  C   UNL     1       0.578  -2.382  -2.616  0.00  0.00    +0.047 A 
BRANCH  24  30
ATOM     30  O   UNL     1       0.640  -0.463  -1.211  0.00  0.00    -0.492 OA
BRANCH  30  32
ATOM     31  C   UNL     1       0.667   1.579   0.080  0.00  0.00    +0.048 C 
ATOM     32  C   UNL     1       0.833   0.059   0.105  0.00  0.00    +0.225 C 
ENDBRANCH  30  32
ENDBRANCH  24  30
ENDBRANCH  22  27
ENDBRANCH  19  22
ENDBRANCH   1  19
TORSDOF 5
