REMARK  Name = ZINC44910472
REMARK  7 active torsions:
REMARK  status: ('A' for Active; 'I' for Inactive)
REMARK    1  A    between atoms: C_1  and  C_2
REMARK    2  A    between atoms: C_5  and  C_8
REMARK    3  A    between atoms: C_8  and  N_9
REMARK    4  A    between atoms: C_12  and  C_15
REMARK    5  A    between atoms: N_20  and  S_23
REMARK    6  A    between atoms: S_23  and  C_26
REMARK    7  A    between atoms: C_29  and  C_32
REMARK                            x       y       z     vdW  Elec       q    Type
REMARK                         _______ _______ _______ _____ _____    ______ ____
ROOT
ATOM      1  C   UNL     1       5.116  -6.697   0.896  0.00  0.00    +0.219 C 
ATOM      2  O   UNL     1       5.984  -5.851   0.839  0.00  0.00    -0.275 OA
ATOM      3  N   UNL     1       5.443  -8.003   0.844  0.00  0.00    -0.299 N 
ATOM      4  C   UNL     1       4.398  -9.035   0.786  0.00  0.00    +0.125 C 
ATOM      5  C   UNL     1       4.648  -9.917  -0.444  0.00  0.00    +0.128 C 
ATOM      6  N   UNL     1       6.057 -10.335  -0.443  0.00  0.00    -0.174 NA
ATOM      7  C   UNL     1       7.102  -9.303  -0.385  0.00  0.00    +0.128 C 
ATOM      8  C   UNL     1       6.852  -8.421   0.839  0.00  0.00    +0.125 C 
ENDROOT
BRANCH   1  12
ATOM      9  N   UNL     1       1.629  -4.280   0.584  0.00  0.00    +0.382 N 
ATOM     10  C   UNL     1       2.113  -4.565   1.940  0.00  0.00    -0.078 C 
ATOM     11  C   UNL     1       3.573  -5.021   1.880  0.00  0.00    -0.006 C 
ATOM     12  C   UNL     1       3.671  -6.287   1.024  0.00  0.00    +0.072 C 
ATOM     13  C   UNL     1       3.096  -5.998  -0.365  0.00  0.00    -0.006 C 
ATOM     14  C   UNL     1       1.654  -5.506  -0.222  0.00  0.00    -0.078 C 
ATOM     15  H   UNL     1       2.224  -3.586   0.156  0.00  0.00    -0.081 HD
BRANCH   9  16
ATOM     16  C   UNL     1       0.254  -3.769   0.653  0.00  0.00    -0.043 C 
BRANCH  16  21
ATOM     17  C   UNL     1       0.218   1.304   3.421  0.00  0.00    +0.044 C 
ATOM     18  C   UNL     1       0.228  -0.019   2.700  0.00  0.00    -0.050 A 
ATOM     19  C   UNL     1       0.392  -0.057   1.327  0.00  0.00    +0.003 A 
ATOM     20  C   UNL     1       0.400  -1.270   0.665  0.00  0.00    +0.002 A 
ATOM     21  C   UNL     1       0.245  -2.446   1.375  0.00  0.00    -0.064 A 
ATOM     22  C   UNL     1       0.082  -2.408   2.748  0.00  0.00    +0.002 A 
ATOM     23  C   UNL     1       0.078  -1.195   3.410  0.00  0.00    +0.003 A 
ENDBRANCH  16  21
ENDBRANCH   9  16
ENDBRANCH   1  12
BRANCH   6  24
ATOM     24  S   UNL     1       6.459 -11.940  -0.507  0.00  0.00    +0.061 S 
ATOM     25  O   UNL     1       7.759 -12.056   0.057  0.00  0.00    -0.153 OA
ATOM     26  O   UNL     1       5.343 -12.659  -0.001  0.00  0.00    -0.153 OA
BRANCH  24  27
ATOM     27  C   UNL     1       6.608 -12.373  -2.208  0.00  0.00    +0.105 A 
ATOM     28  C   UNL     1       5.504 -12.828  -2.905  0.00  0.00    +0.029 A 
ATOM     29  C   UNL     1       5.620 -13.168  -4.239  0.00  0.00    +0.005 A 
ATOM     30  C   UNL     1       6.841 -13.052  -4.878  0.00  0.00    -0.050 A 
ATOM     31  C   UNL     1       7.945 -12.597  -4.182  0.00  0.00    +0.005 A 
ATOM     32  C   UNL     1       7.827 -12.253  -2.848  0.00  0.00    +0.029 A 
ATOM     33  C   UNL     1       6.968 -13.424  -6.333  0.00  0.00    +0.044 C 
ENDBRANCH  24  27
ENDBRANCH   6  24
TORSDOF 5
