REMARK  Name = ZINC66684798
REMARK  7 active torsions:
REMARK  status: ('A' for Active; 'I' for Inactive)
REMARK    1  A    between atoms: C_1  and  C_2
REMARK    2  A    between atoms: C_4  and  N_25
REMARK    3  A    between atoms: N_6  and  C_7
REMARK    4  A    between atoms: C_7  and  C_8
REMARK    5  A    between atoms: N_10  and  C_11
REMARK    6  A    between atoms: C_11  and  C_12
REMARK    7  A    between atoms: C_12  and  C_19
REMARK                            x       y       z     vdW  Elec       q    Type
REMARK                         _______ _______ _______ _____ _____    ______ ____
ROOT
ATOM      1  C   UNL     1      -2.792   1.440   2.385  0.00  0.00    +0.233 C 
ATOM      2  O   UNL     1      -2.862   0.304   1.966  0.00  0.00    -0.274 OA
ATOM      3  N   UNL     1      -2.847   1.674   3.711  0.00  0.00    -0.313 N 
ATOM      4  H   UNL     1      -2.791   2.582   4.047  0.00  0.00    +0.149 HD
ENDROOT
BRANCH   1   5
ATOM      5  C   UNL     1      -2.643   2.591   1.423  0.00  0.00    +0.218 C 
BRANCH   5  11
ATOM      6  C   UNL     1      -5.120   1.963  -0.329  0.00  0.00    +0.086 C 
ATOM      7  C   UNL     1      -3.676   1.799  -0.727  0.00  0.00    +0.110 A 
ATOM      8  N   UNL     1      -3.250   1.369  -1.883  0.00  0.00    -0.210 NA
ATOM      9  C   UNL     1      -1.909   1.354  -1.883  0.00  0.00    +0.233 A 
ATOM     10  C   UNL     1      -1.488   1.791  -0.680  0.00  0.00    +0.141 A 
ATOM     11  N   UNL     1      -2.608   2.079   0.051  0.00  0.00    -0.323 N 
BRANCH   9  12
ATOM     12  N   UNL     1      -1.043   0.931  -3.006  0.00  0.00    +0.077 N 
ATOM     13  O   UNL     1      -1.539   0.555  -4.043  0.00  0.00    -0.125 OA
ATOM     14  O   UNL     1       0.160   0.960  -2.887  0.00  0.00    -0.125 OA
ENDBRANCH   9  12
ENDBRANCH   5  11
ENDBRANCH   1   5
BRANCH   3  15
ATOM     15  C   UNL     1      -2.992   0.555   4.646  0.00  0.00    +0.115 C 
BRANCH  15  16
ATOM     16  C   UNL     1      -2.879   1.073   6.082  0.00  0.00    +0.011 C 
ATOM     17  C   UNL     1      -2.172   0.052   6.933  0.00  0.00    +0.013 C 
ATOM     18  C   UNL     1      -2.321  -1.379   6.382  0.00  0.00    +0.001 C 
ATOM     19  C   UNL     1      -3.745  -1.680   5.876  0.00  0.00    +0.000 C 
ATOM     20  C   UNL     1      -4.808  -1.131   6.789  0.00  0.00    +0.000 C 
ATOM     21  C   UNL     1      -5.227   0.260   6.272  0.00  0.00    +0.001 C 
ATOM     22  C   UNL     1      -4.290   1.302   6.662  0.00  0.00    +0.013 C 
BRANCH  16  23
ATOM     23  C   UNL     1      -2.109   2.368   6.094  0.00  0.00    -0.040 A 
ATOM     24  C   UNL     1      -2.659   3.493   6.679  0.00  0.00    +0.004 A 
ATOM     25  C   UNL     1      -1.953   4.682   6.690  0.00  0.00    +0.000 A 
ATOM     26  C   UNL     1      -0.697   4.745   6.116  0.00  0.00    +0.000 A 
ATOM     27  C   UNL     1      -0.147   3.619   5.531  0.00  0.00    +0.000 A 
ATOM     28  C   UNL     1      -0.851   2.430   5.524  0.00  0.00    +0.004 A 
ENDBRANCH  16  23
ENDBRANCH  15  16
ENDBRANCH   3  15
TORSDOF 6
