REMARK  Name = ZINC38519686
REMARK  7 active torsions:
REMARK  status: ('A' for Active; 'I' for Inactive)
REMARK    1  A    between atoms: C_1  and  C_2
REMARK    2  A    between atoms: C_2  and  C_3
REMARK    3  A    between atoms: C_2  and  O_4
REMARK    4  A    between atoms: O_4  and  C_5
REMARK    5  A    between atoms: C_8  and  C_11
REMARK    6  A    between atoms: N_17  and  C_19
REMARK    7  A    between atoms: C_24  and  C_26
REMARK                            x       y       z     vdW  Elec       q    Type
REMARK                         _______ _______ _______ _____ _____    ______ ____
ROOT
ATOM      1  C   UNL     1      -2.291  -0.982   5.875  0.00  0.00    +0.249 C 
ATOM      2  O   UNL     1      -3.491  -0.785   5.860  0.00  0.00    -0.270 OA
ATOM      3  N   UNL     1      -1.679  -1.321   7.027  0.00  0.00    -0.265 N 
ATOM      4  C   UNL     1      -2.425  -1.446   8.206  0.00  0.00    +0.153 A 
ATOM      5  C   UNL     1      -1.922  -1.783   9.460  0.00  0.00    +0.042 A 
ATOM      6  C   UNL     1      -2.967  -1.793  10.345  0.00  0.00    +0.129 A 
ATOM      7  N   UNL     1      -4.085  -1.483   9.662  0.00  0.00    -0.251 N 
ATOM      8  N   UNL     1      -3.723  -1.261   8.323  0.00  0.00    -0.154 NA
ATOM      9  C   UNL     1      -5.438  -1.390  10.217  0.00  0.00    +0.174 C 
ATOM     10  N   UNL     1      -2.783  -2.076  11.698  0.00  0.00    -0.270 N 
ATOM     11  C   UNL     1      -1.520  -2.147  12.167  0.00  0.00    +0.219 C 
ATOM     12  O   UNL     1      -1.332  -2.574  13.287  0.00  0.00    -0.275 OA
ATOM     13  C   UNL     1      -0.338  -1.713  11.346  0.00  0.00    +0.109 C 
ATOM     14  C   UNL     1      -0.509  -2.105   9.875  0.00  0.00    +0.064 C 
ATOM     15  H   UNL     1      -0.722  -1.477   7.040  0.00  0.00    +0.157 HD
ATOM     16  H   UNL     1      -3.542  -2.217  12.285  0.00  0.00    +0.156 HD
ENDROOT
BRANCH   1  20
ATOM     17  C   UNL     1      -0.030  -0.600   2.302  0.00  0.00    +0.121 A 
ATOM     18  C   UNL     1      -1.401  -0.375   2.281  0.00  0.00    +0.046 A 
ATOM     19  C   UNL     1      -2.138  -0.498   3.438  0.00  0.00    +0.016 A 
ATOM     20  C   UNL     1      -1.505  -0.849   4.633  0.00  0.00    +0.037 A 
ATOM     21  C   UNL     1      -0.126  -1.075   4.650  0.00  0.00    +0.016 A 
ATOM     22  C   UNL     1       0.603  -0.954   3.488  0.00  0.00    +0.046 A 
BRANCH  17  23
ATOM     23  O   UNL     1       0.693  -0.477   1.160  0.00  0.00    -0.489 OA
BRANCH  23  25
ATOM     24  C   UNL     1      -0.292   1.273  -0.184  0.00  0.00    +0.051 C 
ATOM     25  C   UNL     1      -0.034  -0.229  -0.045  0.00  0.00    +0.167 C 
ATOM     26  C   UNL     1       0.781  -0.719  -1.243  0.00  0.00    +0.051 C 
ENDBRANCH  23  25
ENDBRANCH  17  23
ENDBRANCH   1  20
BRANCH  14  27
ATOM     27  C   UNL     1      -0.256  -3.581   9.710  0.00  0.00    -0.039 A 
ATOM     28  C   UNL     1      -1.026  -4.496  10.403  0.00  0.00    +0.004 A 
ATOM     29  C   UNL     1      -0.793  -5.851  10.252  0.00  0.00    +0.000 A 
ATOM     30  C   UNL     1       0.210  -6.290   9.408  0.00  0.00    +0.000 A 
ATOM     31  C   UNL     1       0.979  -5.374   8.714  0.00  0.00    +0.000 A 
ATOM     32  C   UNL     1       0.744  -4.020   8.862  0.00  0.00    +0.004 A 
ENDBRANCH  14  27
TORSDOF 4
