REMARK  Name = ZINC39359152
REMARK  7 active torsions:
REMARK  status: ('A' for Active; 'I' for Inactive)
REMARK    1  A    between atoms: C_1  and  O_2
REMARK    2  A    between atoms: O_2  and  C_3
REMARK    3  A    between atoms: C_6  and  O_32
REMARK    4  A    between atoms: C_7  and  C_9
REMARK    5  A    between atoms: C_12  and  O_31
REMARK    6  A    between atoms: C_23  and  C_26
REMARK    7  A    between atoms: O_32  and  C_33
REMARK                            x       y       z     vdW  Elec       q    Type
REMARK                         _______ _______ _______ _____ _____    ______ ____
ROOT
ATOM      1  C   UNL     1       1.323  -4.108  -2.285  0.00  0.00    +0.092 C 
ATOM      2  C   UNL     1      -0.066  -4.671  -2.273  0.00  0.00    +0.049 C 
ATOM      3  C   UNL     1      -0.879  -5.141  -3.195  0.00  0.00    +0.235 C 
ATOM      4  N   UNL     1      -1.998  -5.656  -2.616  0.00  0.00    -0.114 NA
ATOM      5  N   UNL     1      -2.038  -5.537  -1.384  0.00  0.00    -0.157 NA
ATOM      6  C   UNL     1      -0.842  -4.808  -0.960  0.00  0.00    +0.245 C 
ATOM      7  N   UNL     1       0.042  -5.607  -0.108  0.00  0.00    -0.321 N 
ATOM      8  C   UNL     1       1.387  -5.335  -0.090  0.00  0.00    +0.014 C 
ATOM      9  C   UNL     1       2.041  -4.668  -1.066  0.00  0.00    +0.024 C 
ATOM     10  C   UNL     1       3.429  -4.456  -1.007  0.00  0.00    +0.162 C 
ATOM     11  O   UNL     1       3.975  -3.846  -1.906  0.00  0.00    -0.292 OA
ATOM     12  C   UNL     1       4.256  -4.964   0.141  0.00  0.00    +0.088 C 
ATOM     13  C   UNL     1       3.575  -6.206   0.727  0.00  0.00    +0.039 C 
ATOM     14  C   UNL     1       2.143  -5.828   1.128  0.00  0.00    +0.060 C 
ATOM     15  H   UNL     1      -0.320  -6.322   0.438  0.00  0.00    +0.148 HD
ENDROOT
BRANCH   1  20
ATOM     16  C   UNL     1       0.606  -0.608  -1.056  0.00  0.00    +0.121 A 
ATOM     17  C   UNL     1       1.173   0.161  -2.062  0.00  0.00    +0.049 A 
ATOM     18  C   UNL     1       1.786  -0.452  -3.138  0.00  0.00    +0.049 A 
ATOM     19  C   UNL     1       1.835  -1.836  -3.211  0.00  0.00    +0.124 A 
ATOM     20  C   UNL     1       1.269  -2.604  -2.205  0.00  0.00    +0.010 A 
ATOM     21  C   UNL     1       0.661  -1.991  -1.127  0.00  0.00    +0.053 A 
BRANCH  16  23
ATOM     22  C   UNL     1      -0.017   1.425   0.010  0.00  0.00    +0.277 C 
ATOM     23  O   UNL     1       0.002  -0.004   0.002  0.00  0.00    -0.495 OA
ENDBRANCH  16  23
BRANCH  19  24
ATOM     24  O   UNL     1       2.439  -2.439  -4.270  0.00  0.00    -0.495 OA
ATOM     25  C   UNL     1       3.000  -1.586  -5.269  0.00  0.00    +0.277 C 
ENDBRANCH  19  24
ENDBRANCH   1  20
BRANCH  13  26
ATOM     26  C   UNL     1       4.335  -6.677   1.940  0.00  0.00    -0.006 A 
ATOM     27  C   UNL     1       4.942  -7.869   2.157  0.00  0.00    +0.011 A 
ATOM     28  C   UNL     1       5.589  -8.083   3.360  0.00  0.00    +0.008 A 
ATOM     29  C   UNL     1       5.596  -7.094   4.287  0.00  0.00    +0.045 A 
ATOM     30  S   UNL     1       4.675  -5.806   3.461  0.00  0.00    -0.101 S 
ENDBRANCH  13  26
BRANCH   3  31
ATOM     31  O   UNL     1      -0.637  -5.114  -4.532  0.00  0.00    -0.491 OA
ATOM     32  H   UNL     1      -1.342  -5.503  -5.067  0.00  0.00    +0.294 HD
ENDBRANCH   3  31
TORSDOF 5
