REMARK  Name = ZINC60657240
REMARK  3 active torsions:
REMARK  status: ('A' for Active; 'I' for Inactive)
REMARK    1  A    between atoms: C_3  and  O_9
REMARK    2  A    between atoms: O_9  and  C_10
REMARK    3  A    between atoms: C_10  and  C_12
REMARK                            x       y       z     vdW  Elec       q    Type
REMARK                         _______ _______ _______ _____ _____    ______ ____
ROOT
ATOM      1  C   UNL     1       4.719   4.242  -0.241  0.00  0.00    +0.073 C 
ATOM      2  C   UNL     1       4.667   5.612  -0.334  0.00  0.00    +0.091 C 
ATOM      3  N   UNL     1       5.795   6.362  -0.451  0.00  0.00    -0.288 N 
ATOM      4  C   UNL     1       5.582   7.803  -0.617  0.00  0.00    +0.136 C 
ATOM      5  C   UNL     1       6.658   8.595   0.131  0.00  0.00    +0.212 C 
ATOM      6  S   UNL     1       8.268   8.058  -0.529  0.00  0.00    +0.073 S 
ATOM      7  O   UNL     1       9.313   8.413   0.366  0.00  0.00    -0.151 OA
ATOM      8  O   UNL     1       8.360   8.358  -1.915  0.00  0.00    -0.151 OA
ATOM      9  N   UNL     1       8.175   6.409  -0.450  0.00  0.00    -0.118 NA
ATOM     10  C   UNL     1       7.027   5.770  -0.423  0.00  0.00    +0.147 C 
ATOM     11  C   UNL     1       7.133   4.347  -0.355  0.00  0.00    +0.046 C 
ATOM     12  C   UNL     1       6.026   3.581  -0.260  0.00  0.00    +0.019 C 
ENDROOT
BRANCH   1  13
ATOM     13  C   UNL     1       3.484   3.453  -0.117  0.00  0.00    +0.346 C 
ATOM     14  O   UNL     1       2.404   4.012  -0.102  0.00  0.00    -0.244 OA
BRANCH  13  15
ATOM     15  O   UNL     1       3.548   2.110  -0.021  0.00  0.00    -0.419 OA
BRANCH  15  18
ATOM     16  C   UNL     1       0.644   0.272   1.175  0.00  0.00    +0.042 A 
ATOM     17  C   UNL     1       1.831   0.980   1.176  0.00  0.00    +0.052 A 
ATOM     18  C   UNL     1       2.381   1.413  -0.021  0.00  0.00    +0.167 A 
ATOM     19  C   UNL     1       1.736   1.135  -1.220  0.00  0.00    +0.168 A 
ATOM     20  C   UNL     1       0.549   0.426  -1.218  0.00  0.00    +0.080 A 
ATOM     21  C   UNL     1       0.003  -0.005  -0.021  0.00  0.00    +0.126 A 
ATOM     22  F   UNL     1      -1.157  -0.698  -0.019  0.00  0.00    -0.205 F 
ATOM     23  F   UNL     1       2.270   1.557  -2.388  0.00  0.00    -0.202 F 
ENDBRANCH  15  18
ENDBRANCH  13  15
ENDBRANCH   1  13
TORSDOF 3
