REMARK  Name = ZINC23385302
REMARK  8 active torsions:
REMARK  status: ('A' for Active; 'I' for Inactive)
REMARK    1  A    between atoms: C_1  and  O_2
REMARK    2  A    between atoms: O_2  and  C_3
REMARK    3  A    between atoms: C_9  and  O_33
REMARK    4  A    between atoms: C_10  and  C_13
REMARK    5  A    between atoms: C_13  and  N_14
REMARK    6  A    between atoms: N_17  and  C_20
REMARK    7  A    between atoms: C_23  and  C_29
REMARK    8  A    between atoms: C_25  and  N_26
REMARK                            x       y       z     vdW  Elec       q    Type
REMARK                         _______ _______ _______ _____ _____    ______ ____
ROOT
ATOM      1  N   UNL     1      -0.816   1.553  -1.135  0.00  0.00    -0.295 NA
ATOM      2  C   UNL     1      -2.096   0.851  -1.305  0.00  0.00    +0.103 C 
ATOM      3  C   UNL     1      -2.842   1.439  -2.505  0.00  0.00    +0.120 C 
ATOM      4  N   UNL     1      -2.008   1.309  -3.709  0.00  0.00    -0.326 N 
ATOM      5  C   UNL     1      -0.729   2.011  -3.538  0.00  0.00    +0.120 C 
ATOM      6  C   UNL     1       0.017   1.423  -2.338  0.00  0.00    +0.103 C 
ENDROOT
BRANCH   4   7
ATOM      7  C   UNL     1      -2.686   1.771  -4.839  0.00  0.00    +0.060 A 
ATOM      8  C   UNL     1      -3.130   3.086  -4.896  0.00  0.00    +0.026 A 
ATOM      9  C   UNL     1      -3.800   3.540  -6.015  0.00  0.00    +0.014 A 
ATOM     10  C   UNL     1      -4.028   2.686  -7.079  0.00  0.00    +0.057 A 
ATOM     11  C   UNL     1      -3.587   1.377  -7.027  0.00  0.00    +0.047 A 
ATOM     12  C   UNL     1      -2.911   0.919  -5.912  0.00  0.00    +0.148 A 
BRANCH  10  13
ATOM     13  C   UNL     1      -4.759   3.185  -8.299  0.00  0.00    +0.417 C 
ATOM     14  F   UNL     1      -5.102   4.529  -8.120  0.00  0.00    -0.166 F 
ATOM     15  F   UNL     1      -3.932   3.060  -9.421  0.00  0.00    -0.166 F 
ATOM     16  F   UNL     1      -5.920   2.429  -8.489  0.00  0.00    -0.166 F 
ENDBRANCH  10  13
BRANCH  12  17
ATOM     17  N   UNL     1      -2.434  -0.481  -5.859  0.00  0.00    +0.058 N 
ATOM     18  O   UNL     1      -2.549  -1.201  -6.835  0.00  0.00    -0.126 OA
ATOM     19  O   UNL     1      -1.926  -0.913  -4.840  0.00  0.00    -0.126 OA
ENDBRANCH  12  17
ENDBRANCH   4   7
BRANCH   1  20
ATOM     20  C   UNL     1      -0.104   1.067   0.054  0.00  0.00    +0.124 C 
BRANCH  20  28
ATOM     21  C   UNL     1       0.545   4.736   2.115  0.00  0.00    +0.121 A 
ATOM     22  C   UNL     1      -0.186   5.061   3.261  0.00  0.00    +0.046 A 
ATOM     23  C   UNL     1      -1.136   4.217   3.747  0.00  0.00    +0.012 A 
ATOM     24  C   UNL     1      -1.378   2.993   3.101  0.00  0.00    -0.017 A 
ATOM     25  C   UNL     1      -2.341   2.092   3.587  0.00  0.00    +0.012 A 
ATOM     26  C   UNL     1      -2.552   0.915   2.939  0.00  0.00    +0.046 A 
ATOM     27  C   UNL     1      -1.823   0.585   1.792  0.00  0.00    +0.122 A 
ATOM     28  C   UNL     1      -0.880   1.437   1.292  0.00  0.00    +0.016 A 
ATOM     29  C   UNL     1      -0.634   2.659   1.941  0.00  0.00    -0.007 A 
ATOM     30  C   UNL     1       0.332   3.557   1.458  0.00  0.00    +0.054 A 
BRANCH  21  32
ATOM     31  C   UNL     1       1.658   6.820   2.376  0.00  0.00    +0.277 C 
ATOM     32  O   UNL     1       1.480   5.604   1.647  0.00  0.00    -0.495 OA
ENDBRANCH  21  32
BRANCH  27  33
ATOM     33  O   UNL     1      -2.057  -0.598   1.166  0.00  0.00    -0.506 OA
ATOM     34  H   UNL     1      -1.488  -0.864   0.263  0.00  0.00    +0.292 HD
ENDBRANCH  27  33
ENDBRANCH  20  28
ENDBRANCH   1  20
TORSDOF 7
