REMARK  Name = ZINC23000369
REMARK  7 active torsions:
REMARK  status: ('A' for Active; 'I' for Inactive)
REMARK    1  A    between atoms: C_3  and  N_24
REMARK    2  A    between atoms: C_5  and  S_7
REMARK    3  A    between atoms: S_7  and  N_10
REMARK    4  A    between atoms: N_10  and  C_11
REMARK    5  A    between atoms: C_11  and  C_12
REMARK    6  A    between atoms: N_15  and  C_18
REMARK    7  A    between atoms: C_18  and  C_19
REMARK                            x       y       z     vdW  Elec       q    Type
REMARK                         _______ _______ _______ _____ _____    ______ ____
ROOT
ATOM      1  N   UNL     1      -0.096   6.099  -1.549  0.00  0.00    -0.190 NA
ATOM      2  H   UNL     1       0.821   6.511  -1.995  0.00  0.00    +0.148 HD
ENDROOT
BRANCH   1   3
ATOM      3  S   UNL     1      -0.074   5.602   0.031  0.00  0.00    +0.058 S 
ATOM      4  O   UNL     1      -1.319   5.989   0.596  0.00  0.00    -0.153 OA
ATOM      5  O   UNL     1       1.171   6.022   0.572  0.00  0.00    -0.153 OA
BRANCH   3  10
ATOM      6  C   UNL     1       1.175   1.783   0.000  0.00  0.00    +0.004 A 
ATOM      7  C   UNL     1      -0.013   1.076   0.008  0.00  0.00    +0.033 A 
ATOM      8  C   UNL     1      -1.219   1.750   0.017  0.00  0.00    +0.128 A 
ATOM      9  C   UNL     1      -1.238   3.133   0.030  0.00  0.00    +0.061 A 
ATOM     10  C   UNL     1      -0.050   3.840   0.022  0.00  0.00    +0.107 A 
ATOM     11  C   UNL     1       1.157   3.165   0.008  0.00  0.00    +0.028 A 
BRANCH   8  12
ATOM     12  N   UNL     1      -2.490   0.993   0.019  0.00  0.00    +0.056 N 
ATOM     13  O   UNL     1      -2.474  -0.225   0.013  0.00  0.00    -0.126 OA
ATOM     14  O   UNL     1      -3.554   1.588   0.028  0.00  0.00    -0.126 OA
ENDBRANCH   8  12
ENDBRANCH   3  10
ENDBRANCH   1   3
BRANCH   1  15
ATOM     15  C   UNL     1      -1.250   5.792  -2.397  0.00  0.00    +0.109 C 
BRANCH  15  16
ATOM     16  C   UNL     1      -1.200   6.657  -3.658  0.00  0.00    +0.001 C 
ATOM     17  C   UNL     1      -1.369   8.130  -3.275  0.00  0.00    -0.014 C 
ATOM     18  C   UNL     1      -1.380   8.984  -4.545  0.00  0.00    -0.078 C 
ATOM     19  N   UNL     1      -2.483   8.557  -5.415  0.00  0.00    +0.383 N 
ATOM     20  C   UNL     1      -2.317   7.159  -5.834  0.00  0.00    -0.078 C 
ATOM     21  C   UNL     1      -2.334   6.250  -4.603  0.00  0.00    -0.014 C 
ATOM     22  H   UNL     1      -3.414   8.624  -4.833  0.00  0.00    -0.081 HD
BRANCH  19  23
ATOM     23  C   UNL     1      -2.610   9.444  -6.579  0.00  0.00    -0.036 C 
BRANCH  23  24
ATOM     24  C   UNL     1      -3.021  10.819  -6.119  0.00  0.00    -0.027 A 
ATOM     25  C   UNL     1      -2.240  11.867  -5.758  0.00  0.00    +0.009 A 
ATOM     26  C   UNL     1      -2.843  13.049  -5.370  0.00  0.00    +0.008 A 
ATOM     27  C   UNL     1      -4.197  13.122  -5.352  0.00  0.00    +0.045 A 
ATOM     28  S   UNL     1      -4.661  11.488  -5.903  0.00  0.00    -0.103 S 
ENDBRANCH  23  24
ENDBRANCH  19  23
ENDBRANCH  15  16
ENDBRANCH   1  15
TORSDOF 7
