REMARK  Name = ZINC39678637
REMARK  8 active torsions:
REMARK  status: ('A' for Active; 'I' for Inactive)
REMARK    1  A    between atoms: C_1  and  C_2
REMARK    2  A    between atoms: C_2  and  C_3
REMARK    3  A    between atoms: C_2  and  O_4
REMARK    4  A    between atoms: O_4  and  C_5
REMARK    5  A    between atoms: C_5  and  C_7
REMARK    6  A    between atoms: C_7  and  N_8
REMARK    7  A    between atoms: C_9  and  C_11
REMARK    8  A    between atoms: C_22  and  C_24
REMARK                            x       y       z     vdW  Elec       q    Type
REMARK                         _______ _______ _______ _____ _____    ______ ____
ROOT
ATOM      1  C   UNL     1      -1.066  -1.955   6.873  0.00  0.00    +0.100 C 
ATOM      2  C   UNL     1      -2.173  -2.931   6.414  0.00  0.00    +0.121 C 
ATOM      3  N   UNL     1      -1.762  -4.247   6.957  0.00  0.00    -0.296 N 
ATOM      4  C   UNL     1      -1.222  -3.937   8.303  0.00  0.00    +0.115 C 
ATOM      5  C   UNL     1      -0.447  -2.618   8.116  0.00  0.00    -0.004 C 
ATOM      6  C   UNL     1      -0.626  -1.721   9.337  0.00  0.00    -0.010 C 
ATOM      7  C   UNL     1       0.049  -2.374  10.547  0.00  0.00    -0.082 C 
ATOM      8  N   UNL     1       1.476  -2.572  10.266  0.00  0.00    +0.379 N 
ATOM      9  C   UNL     1       1.640  -3.509   9.148  0.00  0.00    -0.082 C 
ATOM     10  C   UNL     1       1.033  -2.904   7.879  0.00  0.00    -0.010 C 
ATOM     11  C   UNL     1      -1.857  -5.452   6.363  0.00  0.00    +0.249 C 
ATOM     12  O   UNL     1      -1.473  -6.449   6.944  0.00  0.00    -0.270 OA
ATOM     13  H   UNL     1       1.896  -1.687  10.025  0.00  0.00    -0.086 HD
ATOM     14  H   UNL     1       1.930  -2.945  11.085  0.00  0.00    -0.086 HD
ENDROOT
BRANCH  11  15
ATOM     15  C   UNL     1      -2.429  -5.563   5.006  0.00  0.00    +0.073 A 
ATOM     16  C   UNL     1      -1.599  -5.475   3.885  0.00  0.00    +0.054 A 
ATOM     17  C   UNL     1      -2.141  -5.580   2.619  0.00  0.00    +0.021 A 
ATOM     18  C   UNL     1      -3.502  -5.772   2.459  0.00  0.00    +0.003 A 
ATOM     19  C   UNL     1      -4.330  -5.860   3.564  0.00  0.00    +0.021 A 
ATOM     20  C   UNL     1      -3.802  -5.763   4.836  0.00  0.00    +0.054 A 
ATOM     21 CL   UNL     1      -4.842  -5.882   6.221  0.00  0.00    -0.083 Cl
ATOM     22 CL   UNL     1       0.108  -5.232   4.083  0.00  0.00    -0.083 Cl
ENDBRANCH  11  15
BRANCH   1  24
ATOM     23  N   UNL     1       0.718  -0.672   5.739  0.00  0.00    -0.305 N 
ATOM     24  C   UNL     1      -0.029  -1.793   5.793  0.00  0.00    +0.219 C 
ATOM     25  O   UNL     1       0.135  -2.671   4.972  0.00  0.00    -0.275 OA
ATOM     26  H   UNL     1       0.588   0.030   6.395  0.00  0.00    +0.149 HD
BRANCH  23  27
ATOM     27  C   UNL     1       1.727  -0.514   4.688  0.00  0.00    +0.224 C 
BRANCH  27  28
ATOM     28  C   UNL     1       2.417   0.816   4.851  0.00  0.00    +0.325 C 
ATOM     29  O   UNL     1       2.099   1.555   5.751  0.00  0.00    -0.249 OA
BRANCH  28  30
ATOM     30  O   UNL     1       3.385   1.178   3.994  0.00  0.00    -0.461 OA
BRANCH  30  32
ATOM     31  C   UNL     1       5.200   2.291   5.138  0.00  0.00    +0.052 C 
ATOM     32  C   UNL     1       3.997   2.452   4.208  0.00  0.00    +0.170 C 
ATOM     33  C   UNL     1       4.461   3.026   2.868  0.00  0.00    +0.052 C 
ENDBRANCH  30  32
ENDBRANCH  28  30
ENDBRANCH  27  28
ENDBRANCH  23  27
ENDBRANCH   1  24
TORSDOF 6
