REMARK  Name = ZINC65409882
REMARK  5 active torsions:
REMARK  status: ('A' for Active; 'I' for Inactive)
REMARK    1  A    between atoms: C_4  and  N_7
REMARK    2  A    between atoms: N_16  and  C_17
REMARK    3  A    between atoms: C_17  and  C_18
REMARK    4  A    between atoms: C_18  and  C_19
REMARK    5  A    between atoms: C_19  and  C_20
REMARK                            x       y       z     vdW  Elec       q    Type
REMARK                         _______ _______ _______ _____ _____    ______ ____
ROOT
ATOM      1  N   UNL     1       3.620  -0.649  -0.036  0.00  0.00    -0.297 N 
ATOM      2  C   UNL     1       3.773  -2.104   0.053  0.00  0.00    +0.117 C 
ATOM      3  C   UNL     1       5.289  -2.356  -0.007  0.00  0.00    +0.077 C 
ATOM      4  C   UNL     1       5.899  -0.979  -0.130  0.00  0.00    +0.069 A 
ATOM      5  C   UNL     1       4.874  -0.043  -0.146  0.00  0.00    +0.074 A 
ATOM      6  C   UNL     1       5.222   1.304  -0.260  0.00  0.00    +0.139 A 
ATOM      7  N   UNL     1       6.498   1.635  -0.351  0.00  0.00    -0.221 NA
ATOM      8  C   UNL     1       7.446   0.711  -0.336  0.00  0.00    +0.215 A 
ATOM      9  N   UNL     1       7.155  -0.577  -0.220  0.00  0.00    -0.218 NA
ATOM     10  N   UNL     1       8.773   1.099  -0.434  0.00  0.00    -0.313 N 
ATOM     11  H   UNL     1       9.476   0.431  -0.424  0.00  0.00    +0.149 HD
ENDROOT
BRANCH   1  15
ATOM     12  C   UNL     1      -0.017   1.378   0.010  0.00  0.00    +0.000 A 
ATOM     13  C   UNL     1       0.757   1.376  -1.136  0.00  0.00    +0.002 A 
ATOM     14  C   UNL     1       1.964   0.705  -1.155  0.00  0.00    +0.023 A 
ATOM     15  C   UNL     1       2.400   0.031  -0.021  0.00  0.00    +0.034 A 
ATOM     16  C   UNL     1       1.620   0.035   1.129  0.00  0.00    +0.023 A 
ATOM     17  C   UNL     1       0.414   0.708   1.141  0.00  0.00    +0.002 A 
ENDBRANCH   1  15
BRANCH  10  18
ATOM     18  C   UNL     1       9.114   2.519  -0.553  0.00  0.00    +0.105 C 
BRANCH  18  19
ATOM     19  C   UNL     1      10.634   2.673  -0.645  0.00  0.00    +0.025 C 
BRANCH  19  20
ATOM     20  C   UNL     1      10.990   4.155  -0.770  0.00  0.00    +0.066 C 
BRANCH  20  21
ATOM     21  C   UNL     1      12.486   4.307  -0.860  0.00  0.00    +0.104 A 
ATOM     22  N   UNL     1      13.273   4.326  -1.917  0.00  0.00    -0.145 NA
ATOM     23  N   UNL     1      14.523   4.463  -1.822  0.00  0.00    -0.126 NA
ATOM     24  C   UNL     1      15.124   4.597  -0.647  0.00  0.00    +0.179 A 
ATOM     25  S   UNL     1      13.702   4.520   0.438  0.00  0.00    -0.036 S 
ATOM     26  N   UNL     1      16.469   4.756  -0.345  0.00  0.00    -0.336 N 
ATOM     27  H   UNL     1      17.126   4.782  -1.058  0.00  0.00    +0.144 HD
ATOM     28  H   UNL     1      16.752   4.841   0.578  0.00  0.00    +0.144 HD
ENDBRANCH  20  21
ENDBRANCH  19  20
ENDBRANCH  18  19
ENDBRANCH  10  18
TORSDOF 5
