REMARK  Name = ZINC41545870
REMARK  6 active torsions:
REMARK  status: ('A' for Active; 'I' for Inactive)
REMARK    1  A    between atoms: C_1  and  C_2
REMARK    2  A    between atoms: C_2  and  C_4
REMARK    3  A    between atoms: C_2  and  N_10
REMARK    4  A    between atoms: N_7  and  C_9
REMARK    5  A    between atoms: C_11  and  C_13
REMARK    6  A    between atoms: C_13  and  C_24
REMARK                            x       y       z     vdW  Elec       q    Type
REMARK                         _______ _______ _______ _____ _____    ______ ____
ROOT
ATOM      1  C   UNL     1       0.712  -1.094  -3.598  0.00  0.00    +0.257 C 
ATOM      2  C   UNL     1      -0.021  -0.598  -4.819  0.00  0.00    +0.270 C 
ATOM      3  O   UNL     1      -0.873  -1.287  -5.340  0.00  0.00    -0.271 OA
ATOM      4  N   UNL     1       0.274   0.615  -5.330  0.00  0.00    -0.279 N 
ATOM      5  C   UNL     1       1.346   1.341  -4.793  0.00  0.00    +0.076 A 
ATOM      6  C   UNL     1       1.536   2.671  -5.131  0.00  0.00    +0.027 A 
ATOM      7  C   UNL     1       2.590   3.377  -4.582  0.00  0.00    +0.002 A 
ATOM      8  C   UNL     1       3.454   2.760  -3.696  0.00  0.00    +0.004 A 
ATOM      9  C   UNL     1       3.272   1.431  -3.358  0.00  0.00    +0.047 A 
ATOM     10  C   UNL     1       2.223   0.717  -3.908  0.00  0.00    +0.144 A 
ATOM     11  O   UNL     1       2.052  -0.599  -3.608  0.00  0.00    -0.466 OA
ATOM     12  C   UNL     1       0.734  -2.624  -3.605  0.00  0.00    +0.076 C 
ATOM     13  H   UNL     1      -0.249   0.981  -6.061  0.00  0.00    +0.155 HD
ENDROOT
BRANCH   1  15
ATOM     14  N   UNL     1       0.688  -0.476  -1.203  0.00  0.00    -0.305 N 
ATOM     15  C   UNL     1       0.006  -0.608  -2.358  0.00  0.00    +0.266 C 
ATOM     16  O   UNL     1      -1.175  -0.336  -2.400  0.00  0.00    -0.271 OA
ATOM     17  H   UNL     1       1.632  -0.695  -1.170  0.00  0.00    +0.149 HD
BRANCH  14  19
ATOM     18  C   UNL     1      -0.019   1.526   0.010  0.00  0.00    +0.033 C 
ATOM     19  C   UNL     1       0.002  -0.004   0.002  0.00  0.00    +0.103 C 
BRANCH  19  20
ATOM     20  C   UNL     1       0.731  -0.503   1.223  0.00  0.00    +0.010 A 
ATOM     21  C   UNL     1       2.119  -0.569   1.383  0.00  0.00    +0.139 A 
ATOM     22  N   UNL     1       2.370  -1.054   2.572  0.00  0.00    -0.180 NA
ATOM     23  N   UNL     1       1.149  -1.313   3.206  0.00  0.00    -0.274 N 
ATOM     24  C   UNL     1       0.158  -0.962   2.360  0.00  0.00    +0.113 A 
ATOM     25  C   UNL     1       0.977  -1.864   4.553  0.00  0.00    +0.172 C 
ENDBRANCH  19  20
ENDBRANCH  14  19
ENDBRANCH   1  15
TORSDOF 3
