REMARK  Name = ZINC64743309
REMARK  5 active torsions:
REMARK  status: ('A' for Active; 'I' for Inactive)
REMARK    1  A    between atoms: C_6  and  C_7
REMARK    2  A    between atoms: C_7  and  S_8
REMARK    3  A    between atoms: S_8  and  C_9
REMARK    4  A    between atoms: C_15  and  C_23
REMARK    5  A    between atoms: N_25  and  C_26
REMARK                            x       y       z     vdW  Elec       q    Type
REMARK                         _______ _______ _______ _____ _____    ______ ____
ROOT
ATOM      1  C   UNL     1      -3.371  -1.987  -1.576  0.00  0.00    +0.182 C 
ATOM      2  N   UNL     1      -3.780  -2.230  -0.343  0.00  0.00    -0.154 NA
ATOM      3  C   UNL     1      -4.934  -2.849  -0.087  0.00  0.00    +0.249 C 
ATOM      4  O   UNL     1      -5.289  -3.092   1.050  0.00  0.00    -0.273 OA
ATOM      5  C   UNL     1      -5.779  -3.235  -1.283  0.00  0.00    +0.153 C 
ATOM      6  C   UNL     1      -6.066  -4.735  -1.204  0.00  0.00    +0.103 C 
ATOM      7  C   UNL     1      -7.059  -5.102  -2.310  0.00  0.00    +0.110 C 
ATOM      8  C   UNL     1      -6.623  -4.542  -3.633  0.00  0.00    +0.219 C 
ATOM      9  O   UNL     1      -7.089  -5.019  -4.645  0.00  0.00    -0.275 OA
ATOM     10  N   UNL     1      -5.740  -3.537  -3.744  0.00  0.00    -0.273 N 
ATOM     11  C   UNL     1      -5.150  -2.995  -2.643  0.00  0.00    +0.117 C 
ATOM     12  N   UNL     1      -4.008  -2.370  -2.689  0.00  0.00    -0.212 NA
ATOM     13  H   UNL     1      -5.527  -3.180  -4.621  0.00  0.00    +0.156 HD
ENDROOT
BRANCH   6  14
ATOM     14  C   UNL     1      -6.657  -5.067   0.142  0.00  0.00    +0.222 C 
ATOM     15  O   UNL     1      -7.651  -4.487   0.527  0.00  0.00    -0.275 OA
ATOM     16  N   UNL     1      -6.082  -6.007   0.917  0.00  0.00    -0.283 N 
ATOM     17  H   UNL     1      -5.243  -6.412   0.647  0.00  0.00    +0.155 HD
BRANCH  16  18
ATOM     18  C   UNL     1      -6.696  -6.400   2.113  0.00  0.00    +0.072 A 
ATOM     19  C   UNL     1      -8.081  -6.432   2.206  0.00  0.00    +0.064 A 
ATOM     20  C   UNL     1      -8.684  -6.821   3.389  0.00  0.00    +0.125 A 
ATOM     21  C   UNL     1      -7.908  -7.178   4.479  0.00  0.00    +0.041 A 
ATOM     22  C   UNL     1      -6.529  -7.146   4.389  0.00  0.00    +0.043 A 
ATOM     23  C   UNL     1      -5.920  -6.764   3.208  0.00  0.00    +0.145 A 
ATOM     24  F   UNL     1      -4.572  -6.739   3.119  0.00  0.00    -0.204 F 
ATOM     25  F   UNL     1     -10.032  -6.852   3.481  0.00  0.00    -0.205 F 
ENDBRANCH  16  18
ENDBRANCH   6  14
BRANCH   1  26
ATOM     26  S   UNL     1      -1.871  -1.082  -1.770  0.00  0.00    -0.084 S 
BRANCH  26  27
ATOM     27  C   UNL     1      -1.331  -0.758  -0.070  0.00  0.00    +0.112 C 
BRANCH  27  33
ATOM     28  C   UNL     1      -0.068   1.402  -0.100  0.00  0.00    +0.006 A 
ATOM     29  C   UNL     1       1.115   2.117  -0.121  0.00  0.00    +0.020 A 
ATOM     30  C   UNL     1       2.326   1.449  -0.133  0.00  0.00    +0.041 A 
ATOM     31  C   UNL     1       2.353   0.066  -0.124  0.00  0.00    +0.020 A 
ATOM     32  C   UNL     1       1.170  -0.648  -0.104  0.00  0.00    +0.006 A 
ATOM     33  C   UNL     1      -0.041   0.020  -0.092  0.00  0.00    -0.037 A 
ATOM     34 CL   UNL     1       3.813   2.346  -0.159  0.00  0.00    -0.084 Cl
ENDBRANCH  27  33
ENDBRANCH  26  27
ENDBRANCH   1  26
TORSDOF 5
