REMARK  Name = ZINC47881171
REMARK  8 active torsions:
REMARK  status: ('A' for Active; 'I' for Inactive)
REMARK    1  A    between atoms: C_1  and  C_2
REMARK    2  A    between atoms: C_5  and  C_7
REMARK    3  A    between atoms: C_12  and  N_13
REMARK    4  A    between atoms: N_16  and  C_17
REMARK    5  A    between atoms: N_16  and  C_29
REMARK    6  A    between atoms: C_17  and  C_18
REMARK    7  A    between atoms: C_21  and  C_23
REMARK    8  A    between atoms: C_26  and  C_28
REMARK                            x       y       z     vdW  Elec       q    Type
REMARK                         _______ _______ _______ _____ _____    ______ ____
ROOT
ATOM      1  N   UNL     1       0.278  -6.981  -0.424  0.00  0.00    -0.269 N 
ATOM      2  C   UNL     1       0.450  -5.865  -1.160  0.00  0.00    +0.307 C 
ATOM      3  O   UNL     1       0.568  -4.787  -0.610  0.00  0.00    -0.252 OA
ATOM      4  N   UNL     1       0.490  -5.943  -2.504  0.00  0.00    -0.275 N 
ATOM      5  H   UNL     1       0.275  -7.850  -0.855  0.00  0.00    +0.156 HD
ENDROOT
BRANCH   1  11
ATOM      6  C   UNL     1       0.274  -8.017   1.768  0.00  0.00    +0.060 A 
ATOM      7  C   UNL     1       0.103  -7.909   3.149  0.00  0.00    +0.015 A 
ATOM      8  C   UNL     1      -0.236  -6.694   3.707  0.00  0.00    +0.001 A 
ATOM      9  C   UNL     1      -0.408  -5.580   2.904  0.00  0.00    +0.002 A 
ATOM     10  C   UNL     1      -0.243  -5.673   1.535  0.00  0.00    +0.024 A 
ATOM     11  C   UNL     1       0.104  -6.886   0.958  0.00  0.00    +0.047 A 
BRANCH   6  16
ATOM     12  C   UNL     1       1.580 -12.814   1.143  0.00  0.00    +0.111 C 
ATOM     13  C   UNL     1       1.199 -11.378   0.890  0.00  0.00    +0.215 A 
ATOM     14  N   UNL     1       1.072 -10.809  -0.275  0.00  0.00    -0.112 NA
ATOM     15  N   UNL     1       0.736  -9.577  -0.118  0.00  0.00    -0.107 NA
ATOM     16  C   UNL     1       0.637  -9.315   1.164  0.00  0.00    +0.250 A 
ATOM     17  O   UNL     1       0.923 -10.454   1.827  0.00  0.00    -0.420 OA
ENDBRANCH   6  16
ENDBRANCH   1  11
BRANCH   4  18
ATOM     18  C   UNL     1       0.579  -4.721  -3.308  0.00  0.00    +0.078 C 
ATOM     19  C   UNL     1       0.992  -3.434  -2.591  0.00  0.00    +0.024 C 
ATOM     20  C   UNL     1      -0.456  -3.626  -3.045  0.00  0.00    +0.024 C 
ENDBRANCH   4  18
BRANCH   4  21
ATOM     21  C   UNL     1       0.444  -7.251  -3.163  0.00  0.00    +0.183 C 
BRANCH  21  22
ATOM     22  C   UNL     1      -0.990  -7.626  -3.436  0.00  0.00    +0.123 A 
ATOM     23  C   UNL     1      -1.679  -7.338  -4.554  0.00  0.00    +0.046 A 
ATOM     24  C   UNL     1      -2.976  -7.875  -4.386  0.00  0.00    +0.045 A 
ATOM     25  C   UNL     1      -3.002  -8.458  -3.174  0.00  0.00    +0.109 A 
ATOM     26  O   UNL     1      -1.794  -8.310  -2.606  0.00  0.00    -0.463 OA
BRANCH  25  27
ATOM     27  C   UNL     1      -4.184  -9.164  -2.561  0.00  0.00    +0.058 C 
ATOM     28  C   UNL     1      -4.074  -9.582  -1.093  0.00  0.00    +0.015 C 
ATOM     29  C   UNL     1      -4.014 -10.640  -2.196  0.00  0.00    -0.003 C 
ATOM     30  C   UNL     1      -5.230 -11.554  -2.365  0.00  0.00    +0.008 C 
ENDBRANCH  25  27
ENDBRANCH  21  22
ENDBRANCH   4  21
TORSDOF 6
