REMARK  Name = ZINC28480340
REMARK  7 active torsions:
REMARK  status: ('A' for Active; 'I' for Inactive)
REMARK    1  A    between atoms: C_1  and  O_2
REMARK    2  A    between atoms: O_2  and  C_3
REMARK    3  A    between atoms: C_3  and  C_5
REMARK    4  A    between atoms: C_6  and  N_10
REMARK    5  A    between atoms: C_11  and  C_13
REMARK    6  A    between atoms: C_16  and  S_19
REMARK    7  A    between atoms: S_19  and  C_22
REMARK                            x       y       z     vdW  Elec       q    Type
REMARK                         _______ _______ _______ _____ _____    ______ ____
ROOT
ATOM      1  N   UNL     1      -0.445   4.334   0.041  0.00  0.00    -0.280 N 
ATOM      2  C   UNL     1      -0.711   5.652  -0.047  0.00  0.00    +0.248 C 
ATOM      3  O   UNL     1      -1.862   6.042  -0.041  0.00  0.00    -0.270 OA
ATOM      4  H   UNL     1       0.597   3.986   0.102  0.00  0.00    +0.155 HD
ENDROOT
BRANCH   2   5
ATOM      5  C   UNL     1       0.398   6.624  -0.151  0.00  0.00    +0.037 A 
ATOM      6  C   UNL     1       1.721   6.181  -0.152  0.00  0.00    +0.015 A 
ATOM      7  C   UNL     1       2.751   7.093  -0.254  0.00  0.00    +0.028 A 
ATOM      8  C   UNL     1       2.475   8.446  -0.344  0.00  0.00    +0.098 A 
ATOM      9  C   UNL     1       1.165   8.893  -0.338  0.00  0.00    +0.028 A 
ATOM     10  C   UNL     1       0.126   7.991  -0.242  0.00  0.00    +0.015 A 
BRANCH   8  11
ATOM     11  S   UNL     1       3.797   9.604  -0.467  0.00  0.00    +0.091 S 
ATOM     12  O   UNL     1       4.867   8.873  -1.050  0.00  0.00    -0.161 OA
ATOM     13  O   UNL     1       3.235  10.725  -1.136  0.00  0.00    -0.161 OA
BRANCH  11  14
ATOM     14  C   UNL     1       4.197  10.038   1.248  0.00  0.00    +0.526 C 
ATOM     15  F   UNL     1       4.582   8.886   1.943  0.00  0.00    -0.150 F 
ATOM     16  F   UNL     1       5.247  10.963   1.263  0.00  0.00    -0.150 F 
ATOM     17  F   UNL     1       3.073  10.599   1.863  0.00  0.00    -0.150 F 
ENDBRANCH  11  14
ENDBRANCH   8  11
ENDBRANCH   2   5
BRANCH   1  19
ATOM     18  C   UNL     1      -1.361   2.150  -0.525  0.00  0.00    +0.117 A 
ATOM     19  C   UNL     1      -1.490   3.412   0.055  0.00  0.00    +0.055 A 
ATOM     20  C   UNL     1      -2.705   3.704   0.639  0.00  0.00    +0.032 A 
ATOM     21  C   UNL     1      -3.686   2.767   0.632  0.00  0.00    +0.048 A 
ATOM     22  S   UNL     1      -2.961   1.432  -0.202  0.00  0.00    -0.088 S 
BRANCH  18  23
ATOM     23  C   UNL     1      -0.248   1.584  -1.190  0.00  0.00    +0.347 C 
ATOM     24  O   UNL     1       0.775   2.231  -1.324  0.00  0.00    -0.244 OA
BRANCH  23  26
ATOM     25  C   UNL     1       0.838  -0.176  -2.347  0.00  0.00    +0.280 C 
ATOM     26  O   UNL     1      -0.321   0.329  -1.682  0.00  0.00    -0.464 OA
ENDBRANCH  23  26
ENDBRANCH  18  23
ENDBRANCH   1  19
TORSDOF 6
