REMARK  Name = ZINC01374734
REMARK  12 active torsions:
REMARK  status: ('A' for Active; 'I' for Inactive)
REMARK    1  A    between atoms: C_1  and  C_2
REMARK    2  A    between atoms: C_2  and  C_3
REMARK    3  A    between atoms: C_3  and  C_5
REMARK    4  A    between atoms: C_3  and  N_18
REMARK    5  A    between atoms: N_9  and  C_10
REMARK    6  A    between atoms: C_10  and  C_11
REMARK    7  A    between atoms: N_18  and  C_19
REMARK    8  A    between atoms: N_18  and  C_27
REMARK    9  A    between atoms: C_19  and  C_20
REMARK   10  A    between atoms: C_27  and  C_28
REMARK   11  A    between atoms: C_33  and  O_40
REMARK   12  A    between atoms: O_40  and  C_41
REMARK                            x       y       z     vdW  Elec       q    Type
REMARK                         _______ _______ _______ _____ _____    ______ ____
ROOT
ATOM      1  N   UNL     1       2.143   0.571  -0.981  0.00  0.00    -0.284 NA
ENDROOT
BRANCH   1   2
ATOM      2  C   UNL     1       1.626  -0.792  -0.798  0.00  0.00    +0.127 C 
BRANCH   2   3
ATOM      3  C   UNL     1       1.058  -0.932   0.591  0.00  0.00    +0.169 A 
ATOM      4  N   UNL     1       0.777   0.041   1.423  0.00  0.00    -0.112 NA
ATOM      5  N   UNL     1       0.312  -0.482   2.505  0.00  0.00    -0.023 NA
ATOM      6  N   UNL     1       0.289  -1.763   2.385  0.00  0.00    -0.044 NA
ATOM      7  N   UNL     1       0.737  -2.079   1.216  0.00  0.00    -0.223 N 
BRANCH   7   8
ATOM      8  C   UNL     1       0.873  -3.433   0.674  0.00  0.00    +0.182 C 
BRANCH   8   9
ATOM      9  C   UNL     1       2.236  -3.978   1.018  0.00  0.00    -0.026 A 
ATOM     10  C   UNL     1       3.299  -3.770   0.160  0.00  0.00    +0.008 A 
ATOM     11  C   UNL     1       4.549  -4.268   0.474  0.00  0.00    +0.038 A 
ATOM     12  C   UNL     1       4.736  -4.976   1.649  0.00  0.00    +0.123 A 
ATOM     13  C   UNL     1       3.670  -5.183   2.509  0.00  0.00    +0.038 A 
ATOM     14  C   UNL     1       2.422  -4.679   2.194  0.00  0.00    +0.008 A 
ATOM     15  F   UNL     1       5.958  -5.463   1.958  0.00  0.00    -0.205 F 
ENDBRANCH   8   9
ENDBRANCH   7   8
ENDBRANCH   2   3
BRANCH   2  17
ATOM     16  C   UNL     1       1.101  -0.911  -3.237  0.00  0.00    +0.006 C 
ATOM     17  C   UNL     1       0.527  -1.063  -1.827  0.00  0.00    +0.023 C 
ENDBRANCH   2  17
ENDBRANCH   1   2
BRANCH   1  18
ATOM     18  C   UNL     1       3.164   0.609  -2.037  0.00  0.00    +0.120 C 
BRANCH  18  19
ATOM     19  C   UNL     1       3.951   1.889  -1.928  0.00  0.00    -0.033 A 
ATOM     20  C   UNL     1       3.632   2.967  -2.734  0.00  0.00    +0.008 A 
ATOM     21  C   UNL     1       4.353   4.141  -2.635  0.00  0.00    +0.038 A 
ATOM     22  C   UNL     1       5.395   4.239  -1.728  0.00  0.00    +0.123 A 
ATOM     23  C   UNL     1       5.714   3.160  -0.922  0.00  0.00    +0.038 A 
ATOM     24  C   UNL     1       4.988   1.988  -1.019  0.00  0.00    +0.008 A 
ATOM     25  F   UNL     1       6.101   5.387  -1.631  0.00  0.00    -0.205 F 
ENDBRANCH  18  19
ENDBRANCH   1  18
BRANCH   1  26
ATOM     26  C   UNL     1       1.054   1.514  -1.267  0.00  0.00    +0.126 C 
BRANCH  26  27
ATOM     27  C   UNL     1       0.355   1.879   0.018  0.00  0.00    +0.031 A 
ATOM     28  C   UNL     1       0.931   2.761   0.873  0.00  0.00    +0.020 A 
ATOM     29  C   UNL     1       0.228   3.095   2.111  0.00  0.00    -0.001 A 
ATOM     30  C   UNL     1       0.773   3.999   3.031  0.00  0.00    +0.013 A 
ATOM     31  C   UNL     1       0.095   4.292   4.177  0.00  0.00    +0.046 A 
ATOM     32  C   UNL     1      -1.139   3.698   4.441  0.00  0.00    +0.122 A 
ATOM     33  C   UNL     1      -1.695   2.803   3.544  0.00  0.00    +0.072 A 
ATOM     34  C   UNL     1      -1.018   2.493   2.372  0.00  0.00    +0.053 A 
ATOM     35  N   UNL     1      -1.550   1.604   1.460  0.00  0.00    -0.322 N 
ATOM     36  H   UNL     1      -2.408   1.190   1.641  0.00  0.00    +0.169 HD
ATOM     37  C   UNL     1      -0.897   1.308   0.323  0.00  0.00    +0.254 A 
ATOM     38  O   UNL     1      -1.399   0.521  -0.462  0.00  0.00    -0.268 OA
BRANCH  32  39
ATOM     39  O   UNL     1      -1.801   4.001   5.587  0.00  0.00    -0.495 OA
ATOM     40  C   UNL     1      -1.174   4.932   6.471  0.00  0.00    +0.277 C 
ENDBRANCH  32  39
ENDBRANCH  26  27
ENDBRANCH   1  26
TORSDOF 10
