REMARK  Name = ZINC00044764
REMARK  6 active torsions:
REMARK  status: ('A' for Active; 'I' for Inactive)
REMARK    1  A    between atoms: C_1  and  C_2
REMARK    2  A    between atoms: C_7  and  C_8
REMARK    3  A    between atoms: C_10  and  C_23
REMARK    4  A    between atoms: C_11  and  N_22
REMARK    5  A    between atoms: C_18  and  C_20
REMARK    6  A    between atoms: C_18  and  C_21
REMARK                            x       y       z     vdW  Elec       q    Type
REMARK                         _______ _______ _______ _____ _____    ______ ____
ROOT
ATOM      1  C   UNL     1       0.094   5.307  -0.451  0.00  0.00    +0.101 C 
ATOM      2  C   UNL     1      -0.574   5.627  -1.760  0.00  0.00    +0.098 C 
ATOM      3  C   UNL     1      -1.828   6.139  -1.782  0.00  0.00    +0.198 C 
ATOM      4  O   UNL     1      -2.509   6.370  -0.648  0.00  0.00    -0.445 OA
ATOM      5  C   UNL     1      -1.844   6.520   0.513  0.00  0.00    +0.115 C 
ATOM      6  C   UNL     1      -0.602   6.030   0.677  0.00  0.00    +0.046 C 
ATOM      7  C   UNL     1       0.086   6.171   1.898  0.00  0.00    +0.164 C 
ATOM      8  O   UNL     1       1.212   5.729   2.002  0.00  0.00    -0.292 OA
ATOM      9  C   UNL     1      -0.550   6.861   3.074  0.00  0.00    +0.086 C 
ATOM     10  C   UNL     1      -2.071   6.699   2.982  0.00  0.00    -0.021 C 
ATOM     11  C   UNL     1      -2.536   7.257   1.635  0.00  0.00    +0.081 C 
ATOM     12  C   UNL     1      -2.437   5.217   3.078  0.00  0.00    +0.012 C 
ATOM     13  C   UNL     1      -2.740   7.474   4.118  0.00  0.00    +0.012 C 
ENDROOT
BRANCH   1  20
ATOM     14  C   UNL     1       2.528   3.756  -0.319  0.00  0.00    +0.044 C 
ATOM     15  C   UNL     1       1.193   3.079  -0.145  0.00  0.00    -0.046 A 
ATOM     16  C   UNL     1       1.133   1.716   0.079  0.00  0.00    +0.003 A 
ATOM     17  C   UNL     1      -0.091   1.095   0.239  0.00  0.00    +0.000 A 
ATOM     18  C   UNL     1      -1.256   1.836   0.170  0.00  0.00    +0.000 A 
ATOM     19  C   UNL     1      -1.196   3.200  -0.049  0.00  0.00    +0.005 A 
ATOM     20  C   UNL     1       0.029   3.821  -0.208  0.00  0.00    -0.032 A 
ENDBRANCH   1  20
BRANCH   3  21
ATOM     21  N   UNL     1      -2.415   6.428  -2.989  0.00  0.00    -0.328 N 
ATOM     22  H   UNL     1      -3.312   6.795  -3.016  0.00  0.00    +0.145 HD
ATOM     23  H   UNL     1      -1.932   6.265  -3.814  0.00  0.00    +0.145 HD
ENDBRANCH   3  21
BRANCH   2  24
ATOM     24  C   UNL     1       0.120   5.390  -2.990  0.00  0.00    +0.101 C 
ATOM     25  N   UNL     1       0.671   5.202  -3.965  0.00  0.00    -0.191 NA
ENDBRANCH   2  24
TORSDOF 3
