REMARK  Name = ZINC00909088
REMARK  8 active torsions:
REMARK  status: ('A' for Active; 'I' for Inactive)
REMARK    1  A    between atoms: C_1  and  O_2
REMARK    2  A    between atoms: O_2  and  C_3
REMARK    3  A    between atoms: C_6  and  C_9
REMARK    4  A    between atoms: C_9  and  C_11
REMARK    5  A    between atoms: C_13  and  C_25
REMARK    6  A    between atoms: C_16  and  O_24
REMARK    7  A    between atoms: C_18  and  C_19
REMARK    8  A    between atoms: C_28  and  O_31
REMARK                            x       y       z     vdW  Elec       q    Type
REMARK                         _______ _______ _______ _____ _____    ______ ____
ROOT
ATOM      1  C   UNL     1      -4.873  -4.200   0.008  0.00  0.00    +0.149 C 
ATOM      2  C   UNL     1      -6.199  -4.780   0.524  0.00  0.00    +0.120 C 
ATOM      3  N   UNL     1      -6.142  -6.239   0.339  0.00  0.00    -0.293 N 
ATOM      4  C   UNL     1      -5.620  -6.736  -0.830  0.00  0.00    +0.256 C 
ATOM      5  N   UNL     1      -4.968  -5.999  -1.663  0.00  0.00    -0.306 N 
ATOM      6  C   UNL     1      -4.723  -4.575  -1.468  0.00  0.00    +0.284 C 
ATOM      7  O   UNL     1      -5.661  -3.825  -2.242  0.00  0.00    -0.194 OA
ATOM      8  H   UNL     1      -6.465  -6.838   1.031  0.00  0.00    +0.151 HD
ATOM      9  H   UNL     1      -4.619  -6.417  -2.467  0.00  0.00    +0.167 HD
ENDROOT
BRANCH   2  10
ATOM     10  C   UNL     1      -7.349  -4.208  -0.264  0.00  0.00    -0.026 A 
ATOM     11  C   UNL     1      -7.659  -4.724  -1.508  0.00  0.00    +0.009 A 
ATOM     12  C   UNL     1      -8.713  -4.201  -2.232  0.00  0.00    +0.046 A 
ATOM     13  C   UNL     1      -9.461  -3.156  -1.709  0.00  0.00    +0.117 A 
ATOM     14  C   UNL     1      -9.149  -2.640  -0.460  0.00  0.00    +0.046 A 
ATOM     15  C   UNL     1      -8.097  -3.171   0.262  0.00  0.00    +0.009 A 
BRANCH  13  16
ATOM     16  O   UNL     1     -10.498  -2.640  -2.420  0.00  0.00    -0.507 OA
ATOM     17  H   UNL     1     -11.346  -3.071  -2.248  0.00  0.00    +0.292 HD
ENDBRANCH  13  16
ENDBRANCH   2  10
BRANCH   6  18
ATOM     18  C   UNL     1      -3.304  -4.238  -1.932  0.00  0.00    +0.441 C 
ATOM     19  F   UNL     1      -2.381  -4.981  -1.188  0.00  0.00    -0.166 F 
ATOM     20  F   UNL     1      -3.171  -4.551  -3.289  0.00  0.00    -0.166 F 
ATOM     21  F   UNL     1      -3.064  -2.873  -1.743  0.00  0.00    -0.166 F 
ENDBRANCH   6  18
BRANCH   1  22
ATOM     22  C   UNL     1      -4.885  -2.700   0.152  0.00  0.00    +0.173 C 
ATOM     23  O   UNL     1      -5.282  -2.006  -0.760  0.00  0.00    -0.292 OA
BRANCH  22  27
ATOM     24  C   UNL     1      -3.533  -0.908   3.744  0.00  0.00    +0.120 A 
ATOM     25  C   UNL     1      -3.881  -0.110   2.659  0.00  0.00    +0.046 A 
ATOM     26  C   UNL     1      -4.319  -0.685   1.494  0.00  0.00    +0.015 A 
ATOM     27  C   UNL     1      -4.416  -2.079   1.398  0.00  0.00    +0.018 A 
ATOM     28  C   UNL     1      -4.065  -2.878   2.493  0.00  0.00    +0.015 A 
ATOM     29  C   UNL     1      -3.623  -2.293   3.651  0.00  0.00    +0.046 A 
BRANCH  24  31
ATOM     30  C   UNL     1      -3.032   1.093   4.921  0.00  0.00    +0.277 C 
ATOM     31  O   UNL     1      -3.100  -0.334   4.894  0.00  0.00    -0.495 OA
ENDBRANCH  24  31
ENDBRANCH  22  27
ENDBRANCH   1  22
BRANCH   4  32
ATOM     32  O   UNL     1      -5.797  -8.044  -1.117  0.00  0.00    -0.483 OA
ATOM     33  H   UNL     1      -5.403  -8.320  -1.956  0.00  0.00    +0.295 HD
ENDBRANCH   4  32
TORSDOF 7
