REMARK  Name = ZINC13121902
REMARK  3 active torsions:
REMARK  status: ('A' for Active; 'I' for Inactive)
REMARK    1  A    between atoms: C_4  and  C_7
REMARK    2  A    between atoms: C_10  and  C_26
REMARK    3  A    between atoms: C_18  and  C_20
REMARK                            x       y       z     vdW  Elec       q    Type
REMARK                         _______ _______ _______ _____ _____    ______ ____
ROOT
ATOM      1  C   UNL     1       3.711  -0.707  -0.038  0.00  0.00    +0.106 C 
ATOM      2  C   UNL     1       4.048  -1.192   1.377  0.00  0.00    +0.058 C 
ATOM      3  C   UNL     1       5.412  -1.893   1.373  0.00  0.00    +0.143 C 
ATOM      4  N   UNL     1       5.439  -2.867   0.282  0.00  0.00    -0.224 N 
ATOM      5  C   UNL     1       4.594  -2.850  -0.777  0.00  0.00    +0.216 A 
ATOM      6  N   UNL     1       4.893  -3.857  -1.553  0.00  0.00    -0.180 NA
ATOM      7  C   UNL     1       5.921  -4.538  -1.025  0.00  0.00    +0.243 A 
ATOM      8  N   UNL     1       6.284  -3.962   0.099  0.00  0.00    -0.131 NA
ATOM      9  N   UNL     1       6.511  -5.676  -1.581  0.00  0.00    -0.247 N 
ATOM     10  C   UNL     1       6.048  -6.176  -2.744  0.00  0.00    +0.286 C 
ATOM     11  O   UNL     1       5.117  -5.635  -3.311  0.00  0.00    -0.266 OA
ATOM     12  N   UNL     1       3.612  -1.879  -0.929  0.00  0.00    -0.307 N 
ATOM     13  H   UNL     1       7.253  -6.107  -1.129  0.00  0.00    +0.158 HD
ATOM     14  H   UNL     1       2.899  -1.967  -1.582  0.00  0.00    +0.149 HD
ENDROOT
BRANCH   3  15
ATOM     15  C   UNL     1       5.622  -2.598   2.688  0.00  0.00    -0.023 A 
ATOM     16  C   UNL     1       4.745  -3.589   3.088  0.00  0.00    +0.008 A 
ATOM     17  C   UNL     1       4.937  -4.237   4.293  0.00  0.00    +0.038 A 
ATOM     18  C   UNL     1       6.007  -3.893   5.101  0.00  0.00    +0.123 A 
ATOM     19  C   UNL     1       6.885  -2.900   4.700  0.00  0.00    +0.038 A 
ATOM     20  C   UNL     1       6.694  -2.257   3.491  0.00  0.00    +0.008 A 
ATOM     21  F   UNL     1       6.195  -4.525   6.280  0.00  0.00    -0.205 F 
ENDBRANCH   3  15
BRANCH   1  25
ATOM     22  C   UNL     1      -0.017   1.378   0.010  0.00  0.00    +0.000 A 
ATOM     23  C   UNL     1       1.171   2.086   0.002  0.00  0.00    +0.000 A 
ATOM     24  C   UNL     1       2.377   1.411  -0.013  0.00  0.00    +0.005 A 
ATOM     25  C   UNL     1       2.396   0.029  -0.020  0.00  0.00    -0.027 A 
ATOM     26  C   UNL     1       1.208  -0.679  -0.012  0.00  0.00    +0.005 A 
ATOM     27  C   UNL     1       0.002  -0.004   0.002  0.00  0.00    +0.000 A 
ENDBRANCH   1  25
BRANCH  10  28
ATOM     28  C   UNL     1       6.667  -7.370  -3.327  0.00  0.00    +0.189 A 
ATOM     29  C   UNL     1       6.302  -7.973  -4.496  0.00  0.00    +0.054 A 
ATOM     30  C   UNL     1       7.156  -9.074  -4.667  0.00  0.00    +0.042 A 
ATOM     31  C   UNL     1       7.995  -9.094  -3.607  0.00  0.00    +0.196 A 
ATOM     32  O   UNL     1       7.701  -8.062  -2.805  0.00  0.00    -0.458 OA
ENDBRANCH  10  28
TORSDOF 3
