REMARK  Name = ZINC48845347
REMARK  3 active torsions:
REMARK  status: ('A' for Active; 'I' for Inactive)
REMARK    1  A    between atoms: C_2  and  C_3
REMARK    2  A    between atoms: C_3  and  N_4
REMARK    3  A    between atoms: C_11  and  C_14
REMARK                            x       y       z     vdW  Elec       q    Type
REMARK                         _______ _______ _______ _____ _____    ______ ____
ROOT
ATOM      1  N   UNL     1       0.548   4.165   0.015  0.00  0.00    -0.288 N 
ATOM      2  C   UNL     1       1.585   3.303   0.005  0.00  0.00    +0.303 C 
ATOM      3  O   UNL     1       1.383   2.108   0.096  0.00  0.00    -0.253 OA
ATOM      4  N   UNL     1       2.845   3.767  -0.107  0.00  0.00    -0.281 N 
ATOM      5  C   UNL     1       3.983   2.843  -0.241  0.00  0.00    +0.137 C 
ATOM      6  C   UNL     1       5.046   3.232   0.794  0.00  0.00    +0.179 C 
ATOM      7  O   UNL     1       5.340   4.625   0.666  0.00  0.00    -0.369 OA
ATOM      8  C   UNL     1       4.229   5.485   0.929  0.00  0.00    +0.166 C 
ATOM      9  C   UNL     1       3.124   5.212  -0.104  0.00  0.00    +0.145 C 
ATOM     10  H   UNL     1       0.712   5.121   0.015  0.00  0.00    +0.151 HD
ENDROOT
BRANCH   8  11
ATOM     11  C   UNL     1       4.669   6.922   0.827  0.00  0.00    -0.017 A 
ATOM     12  C   UNL     1       5.541   7.308  -0.175  0.00  0.00    +0.007 A 
ATOM     13  C   UNL     1       5.946   8.626  -0.270  0.00  0.00    +0.020 A 
ATOM     14  C   UNL     1       5.478   9.560   0.638  0.00  0.00    +0.041 A 
ATOM     15  C   UNL     1       4.605   9.173   1.639  0.00  0.00    +0.020 A 
ATOM     16  C   UNL     1       4.197   7.856   1.730  0.00  0.00    +0.007 A 
ATOM     17 CL   UNL     1       5.985  11.216   0.520  0.00  0.00    -0.084 Cl
ENDBRANCH   8  11
BRANCH   1  18
ATOM     18  C   UNL     1      -0.826   3.657   0.026  0.00  0.00    +0.195 C 
BRANCH  18  20
ATOM     19  C   UNL     1      -2.517   5.692   0.043  0.00  0.00    +0.005 C 
ATOM     20  C   UNL     1      -1.767   4.789   0.035  0.00  0.00    -0.087 C 
ENDBRANCH  18  20
ENDBRANCH   1  18
TORSDOF 3
