REMARK  Name = ZINC20909816
REMARK  6 active torsions:
REMARK  status: ('A' for Active; 'I' for Inactive)
REMARK    1  A    between atoms: C_1  and  C_2
REMARK    2  A    between atoms: C_6  and  C_29
REMARK    3  A    between atoms: C_7  and  C_11
REMARK    4  A    between atoms: C_17  and  C_20
REMARK    5  A    between atoms: C_20  and  C_21
REMARK    6  A    between atoms: C_21  and  C_22
REMARK                            x       y       z     vdW  Elec       q    Type
REMARK                         _______ _______ _______ _____ _____    ______ ____
ROOT
ATOM      1  C   UNL     1       1.581   3.270   0.004  0.00  0.00    +0.282 C 
ATOM      2  O   UNL     1       2.740   3.616   0.137  0.00  0.00    -0.267 OA
ATOM      3  N   UNL     1       0.607   4.197  -0.082  0.00  0.00    -0.295 N 
ATOM      4  C   UNL     1      -0.808   3.799  -0.078  0.00  0.00    +0.108 C 
ATOM      5  C   UNL     1      -1.533   4.583   1.026  0.00  0.00    +0.019 C 
ATOM      6  C   UNL     1      -1.302   6.081   0.816  0.00  0.00    +0.006 C 
ATOM      7  C   UNL     1       0.194   6.387   0.911  0.00  0.00    +0.007 C 
ATOM      8  C   UNL     1       0.939   5.624  -0.189  0.00  0.00    +0.111 C 
ENDROOT
BRANCH   1  15
ATOM      9  C   UNL     1      -1.669  -3.348  -0.726  0.00  0.00    +0.044 C 
ATOM     10  C   UNL     1      -0.611  -2.306  -0.472  0.00  0.00    -0.047 A 
ATOM     11  C   UNL     1       0.677  -2.702  -0.138  0.00  0.00    +0.004 A 
ATOM     12  C   UNL     1       1.649  -1.770   0.096  0.00  0.00    +0.012 A 
ATOM     13  C   UNL     1       1.343  -0.411  -0.002  0.00  0.00    +0.024 A 
ATOM     14  C   UNL     1       2.110   0.822   0.175  0.00  0.00    +0.008 A 
ATOM     15  C   UNL     1       1.244   1.841  -0.061  0.00  0.00    +0.194 A 
ATOM     16  O   UNL     1       0.026   1.343  -0.363  0.00  0.00    -0.450 OA
ATOM     17  C   UNL     1       0.039  -0.004  -0.341  0.00  0.00    +0.136 A 
ATOM     18  C   UNL     1      -0.933  -0.970  -0.574  0.00  0.00    +0.050 A 
ATOM     19  C   UNL     1       3.567   0.938   0.543  0.00  0.00    +0.048 C 
ENDBRANCH   1  15
BRANCH   7  20
ATOM     20  C   UNL     1       0.420   7.890   0.733  0.00  0.00    +0.014 C 
BRANCH  20  21
ATOM     21  C   UNL     1       1.901   8.212   0.948  0.00  0.00    +0.096 C 
BRANCH  21  22
ATOM     22  C   UNL     1       2.123   9.692   0.772  0.00  0.00    +0.216 C 
ATOM     23  O   UNL     1       1.190  10.418   0.502  0.00  0.00    -0.276 OA
ATOM     24  N   UNL     1       3.360  10.209   0.916  0.00  0.00    -0.301 N 
ATOM     25  C   UNL     1       4.574   9.448   1.248  0.00  0.00    +0.108 C 
ATOM     26  C   UNL     1       5.738  10.457   1.330  0.00  0.00    +0.020 C 
ATOM     27  C   UNL     1       5.013  11.800   1.606  0.00  0.00    +0.020 C 
ATOM     28  C   UNL     1       3.718  11.632   0.773  0.00  0.00    +0.108 C 
ENDBRANCH  21  22
ENDBRANCH  20  21
ENDBRANCH   7  20
TORSDOF 4
