REMARK  Name = ZINC00704990
REMARK  4 active torsions:
REMARK  status: ('A' for Active; 'I' for Inactive)
REMARK    1  A    between atoms: C_1  and  C_2
REMARK    2  A    between atoms: C_5  and  S_8
REMARK    3  A    between atoms: S_8  and  N_11
REMARK    4  A    between atoms: N_15  and  C_18
REMARK                            x       y       z     vdW  Elec       q    Type
REMARK                         _______ _______ _______ _____ _____    ______ ____
ROOT
ATOM      1  N   UNL     1       1.636  -5.003  -0.034  0.00  0.00    -0.097 NA
ATOM      2  C   UNL     1       1.943  -6.270  -0.043  0.00  0.00    +0.203 C 
ATOM      3  N   UNL     1       0.968  -7.255  -0.062  0.00  0.00    -0.300 N 
ATOM      4  C   UNL     1       1.168  -8.386  -0.986  0.00  0.00    +0.214 C 
ATOM      5  N   UNL     1       2.571  -8.818  -0.870  0.00  0.00    -0.298 N 
ATOM      6  C   UNL     1       3.623  -7.791  -0.955  0.00  0.00    +0.214 C 
ATOM      7  N   UNL     1       3.262  -6.699  -0.039  0.00  0.00    -0.300 N 
ATOM      8  H   UNL     1       0.186  -7.202   0.510  0.00  0.00    +0.150 HD
ATOM      9  H   UNL     1       3.922  -6.296   0.546  0.00  0.00    +0.150 HD
ENDROOT
BRANCH   5  10
ATOM     10  C   UNL     1       2.895 -10.165  -0.685  0.00  0.00    +0.032 A 
ATOM     11  C   UNL     1       1.889 -11.103  -0.496  0.00  0.00    +0.024 A 
ATOM     12  C   UNL     1       2.212 -12.433  -0.314  0.00  0.00    +0.022 A 
ATOM     13  C   UNL     1       3.537 -12.832  -0.319  0.00  0.00    +0.041 A 
ATOM     14  C   UNL     1       4.542 -11.899  -0.508  0.00  0.00    +0.022 A 
ATOM     15  C   UNL     1       4.224 -10.568  -0.696  0.00  0.00    +0.024 A 
ATOM     16 CL   UNL     1       3.940 -14.505  -0.089  0.00  0.00    -0.084 Cl
ENDBRANCH   5  10
BRANCH   1  17
ATOM     17  S   UNL     1       0.047  -4.536  -0.039  0.00  0.00    +0.102 S 
ATOM     18  O   UNL     1      -0.504  -4.960   1.200  0.00  0.00    -0.146 OA
ATOM     19  O   UNL     1      -0.491  -4.940  -1.290  0.00  0.00    -0.146 OA
BRANCH  17  24
ATOM     20  C   UNL     1      -0.043   1.497   0.009  0.00  0.00    +0.044 C 
ATOM     21  C   UNL     1      -0.021  -0.010  -0.003  0.00  0.00    -0.050 A 
ATOM     22  C   UNL     1      -0.003  -0.692  -1.206  0.00  0.00    +0.005 A 
ATOM     23  C   UNL     1       0.018  -2.074  -1.217  0.00  0.00    +0.029 A 
ATOM     24  C   UNL     1       0.022  -2.775  -0.025  0.00  0.00    +0.113 A 
ATOM     25  C   UNL     1       0.005  -2.093   1.178  0.00  0.00    +0.029 A 
ATOM     26  C   UNL     1      -0.012  -0.711   1.189  0.00  0.00    +0.005 A 
ENDBRANCH  17  24
ENDBRANCH   1  17
TORSDOF 3
