REMARK  Name = ZINC00890109
REMARK  7 active torsions:
REMARK  status: ('A' for Active; 'I' for Inactive)
REMARK    1  A    between atoms: C_1  and  C_2
REMARK    2  A    between atoms: C_4  and  C_33
REMARK    3  A    between atoms: C_9  and  C_14
REMARK    4  A    between atoms: C_14  and  C_16
REMARK    5  A    between atoms: C_14  and  N_59
REMARK    6  A    between atoms: N_20  and  C_21
REMARK    7  A    between atoms: C_21  and  C_22
REMARK                            x       y       z     vdW  Elec       q    Type
REMARK                         _______ _______ _______ _____ _____    ______ ____
ROOT
ATOM      1  C   UNL     1       4.959   1.184  -0.038  0.00  0.00    +0.039 C 
ENDROOT
BRANCH   1  10
ATOM      2  C   UNL     1      -2.496   0.971   0.019  0.00  0.00    +0.044 C 
ATOM      3  C   UNL     1      -1.203   1.746   0.017  0.00  0.00    -0.050 A 
ATOM      4  C   UNL     1      -1.233   3.134   0.030  0.00  0.00    +0.008 A 
ATOM      5  C   UNL     1      -0.063   3.862   0.023  0.00  0.00    -0.026 A 
ATOM      6  C   UNL     1       1.161   3.202   0.008  0.00  0.00    +0.052 A 
ATOM      7  C   UNL     1       1.188   1.795   0.000  0.00  0.00    -0.001 A 
ATOM      8  C   UNL     1      -0.013   1.076   0.008  0.00  0.00    +0.013 A 
ATOM      9  C   UNL     1       2.481   1.109  -0.015  0.00  0.00    +0.017 A 
ATOM     10  C   UNL     1       3.611   1.858  -0.022  0.00  0.00    +0.011 A 
ATOM     11  C   UNL     1       3.530   3.267  -0.013  0.00  0.00    +0.251 A 
ATOM     12  O   UNL     1       4.558   3.922  -0.019  0.00  0.00    -0.268 OA
ATOM     13  N   UNL     1       2.347   3.906   0.001  0.00  0.00    -0.322 N 
ATOM     14  H   UNL     1       2.326   4.905   0.006  0.00  0.00    +0.169 HD
ATOM     15  C   UNL     1      -0.110   5.368   0.032  0.00  0.00    +0.046 C 
ENDBRANCH   1  10
BRANCH   1  21
ATOM     16  C   UNL     1       5.019   1.479  -2.442  0.00  0.00    -0.049 C 
ATOM     17  C   UNL     1       5.842   2.064  -3.592  0.00  0.00    +0.141 C 
ATOM     18  O   UNL     1       7.136   1.456  -3.604  0.00  0.00    -0.383 OA
ATOM     19  C   UNL     1       7.868   1.634  -2.389  0.00  0.00    +0.141 C 
ATOM     20  C   UNL     1       7.066   1.044  -1.225  0.00  0.00    -0.049 C 
ATOM     21  N   UNL     1       5.746   1.708  -1.175  0.00  0.00    +0.392 N 
ATOM     22  H   UNL     1       5.884   2.718  -1.048  0.00  0.00    -0.080 HD
ENDBRANCH   1  21
BRANCH   1  23
ATOM     23  C   UNL     1       5.689   1.489   1.245  0.00  0.00    +0.143 A 
ATOM     24  N   UNL     1       6.264   2.621   1.568  0.00  0.00    -0.115 NA
ATOM     25  N   UNL     1       6.778   2.486   2.741  0.00  0.00    -0.023 NA
ATOM     26  N   UNL     1       6.546   1.297   3.175  0.00  0.00    -0.044 NA
ATOM     27  N   UNL     1       5.872   0.653   2.283  0.00  0.00    -0.228 N 
BRANCH  27  28
ATOM     28  C   UNL     1       5.398  -0.730   2.381  0.00  0.00    +0.178 C 
BRANCH  28  29
ATOM     29  C   UNL     1       6.465  -1.675   1.825  0.00  0.00    +0.140 C 
ATOM     30  C   UNL     1       6.006  -3.148   1.969  0.00  0.00    +0.035 C 
ATOM     31  C   UNL     1       6.828  -3.825   0.838  0.00  0.00    +0.031 C 
ATOM     32  C   UNL     1       6.874  -2.720  -0.239  0.00  0.00    +0.160 C 
ATOM     33  O   UNL     1       6.626  -1.469   0.412  0.00  0.00    -0.375 OA
ENDBRANCH  28  29
ENDBRANCH  27  28
ENDBRANCH   1  23
TORSDOF 5
