REMARK  Name = ZINC39709511
REMARK  7 active torsions:
REMARK  status: ('A' for Active; 'I' for Inactive)
REMARK    1  A    between atoms: C_1  and  C_2
REMARK    2  A    between atoms: C_2  and  O_3
REMARK    3  A    between atoms: O_3  and  C_4
REMARK    4  A    between atoms: C_16  and  S_18
REMARK    5  A    between atoms: S_18  and  C_19
REMARK    6  A    between atoms: C_19  and  C_20
REMARK    7  A    between atoms: N_22  and  C_23
REMARK                            x       y       z     vdW  Elec       q    Type
REMARK                         _______ _______ _______ _____ _____    ______ ____
ROOT
ATOM      1  C   UNL     1       0.719  -1.797   1.324  0.00  0.00    +0.121 A 
ATOM      2  C   UNL     1       0.161  -2.636   0.340  0.00  0.00    +0.047 A 
ATOM      3  C   UNL     1       0.251  -3.981   0.421  0.00  0.00    +0.029 A 
ATOM      4  C   UNL     1       0.947  -4.588   1.564  0.00  0.00    +0.046 A 
ATOM      5  N   UNL     1       1.147  -5.839   1.898  0.00  0.00    -0.358 N 
ATOM      6  C   UNL     1       2.009  -5.883   3.067  0.00  0.00    +0.252 C 
ATOM      7  C   UNL     1       2.099  -4.452   3.569  0.00  0.00    +0.117 C 
ATOM      8  C   UNL     1       1.515  -3.677   2.592  0.00  0.00    +0.028 A 
ATOM      9  C   UNL     1       1.377  -2.287   2.408  0.00  0.00    +0.057 A 
ATOM     10  N   UNL     1       2.543  -4.164   4.791  0.00  0.00    -0.147 NA
ATOM     11  N   UNL     1       2.380  -5.097   5.680  0.00  0.00    -0.122 NA
ATOM     12  C   UNL     1       1.739  -6.256   5.398  0.00  0.00    +0.208 C 
ATOM     13  N   UNL     1       1.496  -6.681   4.179  0.00  0.00    -0.227 NA
ATOM     14  H   UNL     1       0.779  -6.611   1.439  0.00  0.00    +0.162 HD
ENDROOT
BRANCH   1  15
ATOM     15  O   UNL     1       0.601  -0.453   1.182  0.00  0.00    -0.492 OA
BRANCH  15  17
ATOM     16  C   UNL     1      -0.130   1.548   0.041  0.00  0.00    +0.048 C 
ATOM     17  C   UNL     1      -0.098   0.019   0.029  0.00  0.00    +0.225 C 
ENDBRANCH  15  17
ENDBRANCH   1  15
BRANCH  12  18
ATOM     18  S   UNL     1       1.205  -7.257   6.746  0.00  0.00    -0.075 S 
BRANCH  18  19
ATOM     19  C   UNL     1       0.413  -8.681   5.949  0.00  0.00    +0.173 C 
BRANCH  19  20
ATOM     20  C   UNL     1      -0.095  -9.629   7.004  0.00  0.00    +0.228 C 
ATOM     21  O   UNL     1       0.061  -9.370   8.178  0.00  0.00    -0.275 OA
ATOM     22  N   UNL     1      -0.724 -10.765   6.643  0.00  0.00    -0.283 N 
ATOM     23  H   UNL     1      -0.906 -10.942   5.706  0.00  0.00    +0.155 HD
BRANCH  22  24
ATOM     24  C   UNL     1      -1.113 -11.691   7.619  0.00  0.00    +0.069 A 
ATOM     25  C   UNL     1      -1.536 -11.251   8.865  0.00  0.00    +0.026 A 
ATOM     26  C   UNL     1      -1.920 -12.166   9.826  0.00  0.00    +0.002 A 
ATOM     27  C   UNL     1      -1.884 -13.520   9.548  0.00  0.00    +0.003 A 
ATOM     28  C   UNL     1      -1.463 -13.963   8.308  0.00  0.00    +0.040 A 
ATOM     29  C   UNL     1      -1.083 -13.053   7.339  0.00  0.00    +0.144 A 
ATOM     30  F   UNL     1      -0.677 -13.485   6.125  0.00  0.00    -0.204 F 
ENDBRANCH  22  24
ENDBRANCH  19  20
ENDBRANCH  18  19
ENDBRANCH  12  18
TORSDOF 6
