REMARK  Name = ZINC20745541
REMARK  7 active torsions:
REMARK  status: ('A' for Active; 'I' for Inactive)
REMARK    1  A    between atoms: C_1  and  O_2
REMARK    2  A    between atoms: O_2  and  C_3
REMARK    3  A    between atoms: C_3  and  C_5
REMARK    4  A    between atoms: C_5  and  C_7
REMARK    5  A    between atoms: C_5  and  N_14
REMARK    6  A    between atoms: C_7  and  C_8
REMARK    7  A    between atoms: C_26  and  C_28
REMARK                            x       y       z     vdW  Elec       q    Type
REMARK                         _______ _______ _______ _____ _____    ______ ____
ROOT
ATOM      1  N   UNL     1       3.523  -2.265   1.119  0.00  0.00    -0.286 N 
ATOM      2  C   UNL     1       2.793  -2.579   2.208  0.00  0.00    +0.304 C 
ATOM      3  O   UNL     1       1.587  -2.418   2.199  0.00  0.00    -0.253 OA
ATOM      4  N   UNL     1       3.399  -3.071   3.307  0.00  0.00    -0.273 N 
ATOM      5  C   UNL     1       2.611  -3.527   4.462  0.00  0.00    +0.116 C 
ATOM      6  C   UNL     1       2.923  -2.634   5.669  0.00  0.00    +0.076 C 
ATOM      7  C   UNL     1       4.416  -2.443   5.761  0.00  0.00    +0.066 A 
ATOM      8  C   UNL     1       5.278  -2.674   4.747  0.00  0.00    +0.064 A 
ATOM      9  N   UNL     1       6.526  -2.388   5.206  0.00  0.00    -0.346 N 
ATOM     10  H   UNL     1       7.355  -2.455   4.706  0.00  0.00    +0.167 HD
ATOM     11  C   UNL     1       6.393  -1.992   6.493  0.00  0.00    +0.197 A 
ATOM     12  N   UNL     1       5.126  -2.029   6.815  0.00  0.00    -0.240 NA
ATOM     13  C   UNL     1       4.868  -3.171   3.379  0.00  0.00    +0.159 C 
ATOM     14  H   UNL     1       4.490  -2.328   1.149  0.00  0.00    +0.151 HD
ENDROOT
BRANCH  13  15
ATOM     15  C   UNL     1       5.294  -4.605   3.200  0.00  0.00    +0.017 A 
ATOM     16  C   UNL     1       5.668  -5.357   4.298  0.00  0.00    +0.009 A 
ATOM     17  C   UNL     1       6.058  -6.673   4.136  0.00  0.00    +0.003 A 
ATOM     18  C   UNL     1       6.076  -7.240   2.875  0.00  0.00    +0.041 A 
ATOM     19  C   UNL     1       5.702  -6.490   1.774  0.00  0.00    +0.159 A 
ATOM     20  C   UNL     1       5.305  -5.171   1.938  0.00  0.00    +0.164 A 
ATOM     21  F   UNL     1       4.934  -4.438   0.865  0.00  0.00    -0.202 F 
ATOM     22  F   UNL     1       5.720  -7.043   0.541  0.00  0.00    -0.202 F 
ENDBRANCH  13  15
BRANCH   1  23
ATOM     23  C   UNL     1       2.855  -1.829  -0.110  0.00  0.00    +0.187 C 
BRANCH  23  24
ATOM     24  C   UNL     1       2.443  -3.037  -0.912  0.00  0.00    +0.328 C 
ATOM     25  O   UNL     1       2.682  -4.147  -0.500  0.00  0.00    -0.249 OA
BRANCH  24  27
ATOM     26  C   UNL     1       1.448  -4.066  -2.793  0.00  0.00    +0.280 C 
ATOM     27  O   UNL     1       1.809  -2.878  -2.085  0.00  0.00    -0.467 OA
ENDBRANCH  24  27
ENDBRANCH  23  24
BRANCH  23  28
ATOM     28  C   UNL     1       3.816  -0.972  -0.936  0.00  0.00    +0.069 C 
BRANCH  28  29
ATOM     29  C   UNL     1       4.132   0.295  -0.183  0.00  0.00    -0.045 A 
ATOM     30  C   UNL     1       3.342   1.416  -0.355  0.00  0.00    +0.004 A 
ATOM     31  C   UNL     1       3.631   2.578   0.335  0.00  0.00    +0.000 A 
ATOM     32  C   UNL     1       4.711   2.619   1.197  0.00  0.00    +0.000 A 
ATOM     33  C   UNL     1       5.501   1.498   1.370  0.00  0.00    +0.000 A 
ATOM     34  C   UNL     1       5.208   0.334   0.683  0.00  0.00    +0.004 A 
ENDBRANCH  28  29
ENDBRANCH  23  28
ENDBRANCH   1  23
TORSDOF 6
