REMARK  Name = ZINC41508053
REMARK  5 active torsions:
REMARK  status: ('A' for Active; 'I' for Inactive)
REMARK    1  A    between atoms: C_1  and  C_2
REMARK    2  A    between atoms: C_2  and  C_4
REMARK    3  A    between atoms: C_9  and  O_15
REMARK    4  A    between atoms: O_15  and  C_16
REMARK    5  A    between atoms: C_16  and  C_17
REMARK                            x       y       z     vdW  Elec       q    Type
REMARK                         _______ _______ _______ _____ _____    ______ ____
ROOT
ATOM      1  C   UNL     1      -0.000  -0.729  -1.269  0.00  0.00    +0.102 A 
ATOM      2  C   UNL     1       0.013  -2.123  -1.309  0.00  0.00    +0.030 A 
ATOM      3  C   UNL     1       0.042  -2.752  -2.576  0.00  0.00    +0.019 A 
ATOM      4  C   UNL     1      -0.146  -4.140  -2.684  0.00  0.00    +0.015 A 
ATOM      5  C   UNL     1      -0.158  -4.729  -3.913  0.00  0.00    +0.046 A 
ATOM      6  C   UNL     1       0.022  -3.964  -5.066  0.00  0.00    +0.125 A 
ATOM      7  C   UNL     1       0.228  -2.596  -4.979  0.00  0.00    +0.092 A 
ATOM      8  C   UNL     1       0.251  -1.981  -3.738  0.00  0.00    +0.143 A 
ATOM      9  O   UNL     1       0.496  -0.652  -3.638  0.00  0.00    -0.422 OA
ATOM     10  C   UNL     1      -0.022  -0.014  -2.560  0.00  0.00    +0.348 A 
ATOM     11  O   UNL     1      -0.484   1.107  -2.650  0.00  0.00    -0.244 OA
ENDROOT
BRANCH   1  13
ATOM     12  C   UNL     1      -0.018   1.503   0.010  0.00  0.00    +0.092 C 
ATOM     13  C   UNL     1       0.002  -0.004   0.002  0.00  0.00    +0.167 C 
ATOM     14  O   UNL     1       0.020  -0.616   1.050  0.00  0.00    -0.292 OA
ENDBRANCH   1  13
BRANCH   6  15
ATOM     15  O   UNL     1      -0.004  -4.564  -6.283  0.00  0.00    -0.487 OA
BRANCH  15  16
ATOM     16  C   UNL     1      -0.221  -5.977  -6.304  0.00  0.00    +0.268 C 
BRANCH  16  17
ATOM     17  C   UNL     1      -0.218  -6.463  -7.731  0.00  0.00    +0.033 A 
ATOM     18  C   UNL     1      -0.019  -5.570  -8.765  0.00  0.00    +0.030 A 
ATOM     19  C   UNL     1      -0.018  -6.016 -10.075  0.00  0.00    +0.042 A 
ATOM     20  C   UNL     1      -0.217  -7.357 -10.350  0.00  0.00    +0.029 A 
ATOM     21  C   UNL     1      -0.417  -8.254  -9.318  0.00  0.00    +0.022 A 
ATOM     22  C   UNL     1      -0.410  -7.810  -8.005  0.00  0.00    +0.135 A 
ATOM     23  O   UNL     1      -0.592  -8.685  -6.979  0.00  0.00    -0.465 OA
ATOM     24  C   UNL     1      -1.136  -9.966  -7.311  0.00  0.00    +0.394 C 
ATOM     25  O   UNL     1      -0.427 -10.486  -8.441  0.00  0.00    -0.339 OA
ATOM     26  C   UNL     1      -0.637  -9.713  -9.630  0.00  0.00    +0.202 C 
ATOM     27 CL   UNL     1       0.234  -4.891 -11.373  0.00  0.00    -0.084 Cl
ENDBRANCH  16  17
ENDBRANCH  15  16
ENDBRANCH   6  15
TORSDOF 4
