REMARK  Name = ZINC37247615
REMARK  5 active torsions:
REMARK  status: ('A' for Active; 'I' for Inactive)
REMARK    1  A    between atoms: C_1  and  C_2
REMARK    2  A    between atoms: C_2  and  N_3
REMARK    3  A    between atoms: N_3  and  C_4
REMARK    4  A    between atoms: C_10  and  C_12
REMARK    5  A    between atoms: C_16  and  N_18
REMARK                            x       y       z     vdW  Elec       q    Type
REMARK                         _______ _______ _______ _____ _____    ______ ____
ROOT
ATOM      1  N   UNL     1      -1.364  -1.181   0.148  0.00  0.00    -0.268 N 
ATOM      2  C   UNL     1      -1.968  -0.905   1.321  0.00  0.00    +0.251 C 
ATOM      3  O   UNL     1      -3.182  -0.875   1.387  0.00  0.00    -0.270 OA
ENDROOT
BRANCH   2   4
ATOM      4  C   UNL     1      -1.155  -0.637   2.525  0.00  0.00    +0.039 A 
ATOM      5  C   UNL     1       0.119  -0.080   2.401  0.00  0.00    +0.014 A 
ATOM      6  C   UNL     1       0.873   0.168   3.529  0.00  0.00    +0.018 A 
ATOM      7  C   UNL     1       0.368  -0.134   4.783  0.00  0.00    +0.048 A 
ATOM      8  C   UNL     1      -0.895  -0.687   4.912  0.00  0.00    +0.141 A 
ATOM      9  C   UNL     1      -1.661  -0.934   3.792  0.00  0.00    +0.047 A 
ATOM     10 BR   UNL     1       1.408   0.208   6.325  0.00  0.00    -0.048 Br
BRANCH   8  11
ATOM     11  N   UNL     1      -1.427  -1.008   6.256  0.00  0.00    +0.058 N 
ATOM     12  O   UNL     1      -2.530  -1.491   6.370  0.00  0.00    -0.126 OA
ATOM     13  O   UNL     1      -0.759  -0.787   7.239  0.00  0.00    -0.126 OA
ENDBRANCH   8  11
ENDBRANCH   2   4
BRANCH   1  14
ATOM     14  C   UNL     1      -2.129  -1.347  -1.011  0.00  0.00    +0.037 A 
ATOM     15  C   UNL     1      -1.533  -1.804  -2.179  0.00  0.00    +0.023 A 
ATOM     16  C   UNL     1      -2.291  -1.967  -3.322  0.00  0.00    +0.002 A 
ATOM     17  C   UNL     1      -3.643  -1.676  -3.303  0.00  0.00    +0.000 A 
ATOM     18  C   UNL     1      -4.240  -1.221  -2.142  0.00  0.00    +0.002 A 
ATOM     19  C   UNL     1      -3.488  -1.062  -0.994  0.00  0.00    +0.023 A 
ENDBRANCH   1  14
BRANCH   1  21
ATOM     20  C   UNL     1       0.678  -0.121  -0.681  0.00  0.00    +0.025 C 
ATOM     21  C   UNL     1       0.094  -1.308   0.087  0.00  0.00    +0.110 C 
ENDBRANCH   1  21
TORSDOF 4
