REMARK  Name = ZINC00222928
REMARK  4 active torsions:
REMARK  status: ('A' for Active; 'I' for Inactive)
REMARK    1  A    between atoms: C_1  and  C_2
REMARK    2  A    between atoms: C_5  and  C_8
REMARK    3  A    between atoms: C_11  and  C_19
REMARK    4  A    between atoms: C_24  and  C_25
REMARK                            x       y       z     vdW  Elec       q    Type
REMARK                         _______ _______ _______ _____ _____    ______ ____
ROOT
ATOM      1  C   UNL     1       0.570  -4.968   0.194  0.00  0.00    +0.106 C 
ATOM      2  C   UNL     1      -0.921  -5.257   0.402  0.00  0.00    +0.058 C 
ATOM      3  C   UNL     1      -1.178  -6.764   0.283  0.00  0.00    +0.143 C 
ATOM      4  N   UNL     1      -0.212  -7.475   1.119  0.00  0.00    -0.226 N 
ATOM      5  C   UNL     1       0.949  -6.939   1.568  0.00  0.00    +0.215 A 
ATOM      6  N   UNL     1       1.562  -7.844   2.283  0.00  0.00    -0.202 NA
ATOM      7  C   UNL     1       0.829  -8.962   2.312  0.00  0.00    +0.247 A 
ATOM      8  N   UNL     1      -0.263  -8.779   1.612  0.00  0.00    -0.156 NA
ATOM      9  N   UNL     1       1.337  -5.641   1.260  0.00  0.00    -0.307 N 
ATOM     10  H   UNL     1       2.068  -5.200   1.722  0.00  0.00    +0.149 HD
ENDROOT
BRANCH   1  15
ATOM     11  C   UNL     1       1.493   0.731   0.437  0.00  0.00    +0.044 C 
ATOM     12  C   UNL     1       1.252  -0.755   0.374  0.00  0.00    -0.050 A 
ATOM     13  C   UNL     1       1.175  -1.391  -0.851  0.00  0.00    +0.004 A 
ATOM     14  C   UNL     1       0.955  -2.755  -0.909  0.00  0.00    +0.006 A 
ATOM     15  C   UNL     1       0.812  -3.482   0.257  0.00  0.00    -0.027 A 
ATOM     16  C   UNL     1       0.890  -2.846   1.482  0.00  0.00    +0.006 A 
ATOM     17  C   UNL     1       1.115  -1.484   1.541  0.00  0.00    +0.004 A 
ENDBRANCH   1  15
BRANCH   3  18
ATOM     18  C   UNL     1      -2.578  -7.075   0.749  0.00  0.00    -0.020 A 
ATOM     19  C   UNL     1      -2.924  -6.885   2.073  0.00  0.00    +0.006 A 
ATOM     20  C   UNL     1      -4.207  -7.170   2.500  0.00  0.00    +0.000 A 
ATOM     21  C   UNL     1      -5.145  -7.646   1.601  0.00  0.00    +0.000 A 
ATOM     22  C   UNL     1      -4.798  -7.836   0.277  0.00  0.00    +0.004 A 
ATOM     23  C   UNL     1      -3.516  -7.546  -0.150  0.00  0.00    -0.045 A 
ATOM     24  C   UNL     1      -3.140  -7.748  -1.596  0.00  0.00    +0.044 C 
ENDBRANCH   3  18
TORSDOF 2
