REMARK  Name = ZINC23588421
REMARK  9 active torsions:
REMARK  status: ('A' for Active; 'I' for Inactive)
REMARK    1  A    between atoms: C_1  and  C_2
REMARK    2  A    between atoms: C_3  and  C_7
REMARK    3  A    between atoms: C_10  and  S_13
REMARK    4  A    between atoms: N_11  and  N_12
REMARK    5  A    between atoms: S_13  and  C_14
REMARK    6  A    between atoms: C_14  and  C_15
REMARK    7  A    between atoms: N_20  and  C_21
REMARK    8  A    between atoms: C_26  and  C_31
REMARK    9  A    between atoms: C_28  and  C_30
REMARK                            x       y       z     vdW  Elec       q    Type
REMARK                         _______ _______ _______ _____ _____    ______ ____
ROOT
ATOM      1  C   UNL     1      -0.018   1.503   0.010  0.00  0.00    +0.173 C 
ENDROOT
BRANCH   1   2
ATOM      2  C   UNL     1       0.002  -0.004   0.002  0.00  0.00    +0.231 C 
ATOM      3  O   UNL     1       1.060  -0.596  -0.011  0.00  0.00    -0.274 OA
ATOM      4  N   UNL     1      -1.156  -0.694   0.009  0.00  0.00    -0.239 N 
ATOM      5  C   UNL     1      -1.137  -2.041   0.002  0.00  0.00    +0.306 C 
ATOM      6  O   UNL     1      -0.077  -2.635  -0.011  0.00  0.00    -0.252 OA
ATOM      7  N   UNL     1      -2.295  -2.731   0.009  0.00  0.00    -0.296 N 
ATOM      8  H   UNL     1      -2.116  -0.157   0.021  0.00  0.00    +0.159 HD
ATOM      9  H   UNL     1      -3.255  -2.194   0.021  0.00  0.00    +0.151 HD
BRANCH   7  10
ATOM     10  C   UNL     1      -2.276  -4.196   0.001  0.00  0.00    +0.078 C 
ATOM     11  C   UNL     1      -2.157  -4.696  -1.440  0.00  0.00    +0.022 C 
ATOM     12  C   UNL     1      -2.136  -6.226  -1.448  0.00  0.00    +0.002 C 
ATOM     13  C   UNL     1      -3.430  -6.757  -0.829  0.00  0.00    +0.003 C 
ATOM     14  C   UNL     1      -3.549  -6.257   0.612  0.00  0.00    -0.009 C 
ATOM     15  C   UNL     1      -3.570  -4.727   0.620  0.00  0.00    +0.009 C 
ATOM     16  C   UNL     1      -3.689  -4.226   2.061  0.00  0.00    +0.009 C 
ATOM     17  C   UNL     1      -2.353  -6.755   1.425  0.00  0.00    +0.008 C 
ENDBRANCH   7  10
ENDBRANCH   1   2
BRANCH   1  18
ATOM     18  S   UNL     1       1.680   2.129  -0.003  0.00  0.00    -0.075 S 
BRANCH  18  22
ATOM     19  C   UNL     1       1.597   6.036   0.019  0.00  0.00    +0.185 A 
ATOM     20  N   UNL     1       0.323   5.719   0.030  0.00  0.00    -0.127 NA
ATOM     21  N   UNL     1       0.188   4.441   0.025  0.00  0.00    -0.121 NA
ATOM     22  C   UNL     1       1.366   3.863   0.010  0.00  0.00    +0.209 A 
ATOM     23  N   UNL     1       2.305   4.857   0.012  0.00  0.00    -0.224 N 
BRANCH  19  26
ATOM     24  C   UNL     1      -0.024   8.719   0.036  0.00  0.00    +0.087 C 
ATOM     25  C   UNL     1       1.476   8.576   0.028  0.00  0.00    +0.112 A 
ATOM     26  C   UNL     1       2.163   7.402   0.021  0.00  0.00    +0.061 A 
ATOM     27  C   UNL     1       3.584   7.773   0.008  0.00  0.00    +0.053 A 
ATOM     28  C   UNL     1       3.617   9.116   0.014  0.00  0.00    +0.196 A 
ATOM     29  O   UNL     1       2.360   9.584   0.029  0.00  0.00    -0.467 OA
ENDBRANCH  19  26
BRANCH  23  30
ATOM     30  N   UNL     1       3.663   4.710   0.004  0.00  0.00    -0.295 N 
ATOM     31  H   UNL     1       4.107   3.704  -0.001  0.00  0.00    +0.163 HD
ATOM     32  H   UNL     1       4.312   5.598   0.004  0.00  0.00    +0.163 HD
ENDBRANCH  23  30
ENDBRANCH  18  22
ENDBRANCH   1  18
TORSDOF 6
