REMARK  Name = ZINC06842756
REMARK  7 active torsions:
REMARK  status: ('A' for Active; 'I' for Inactive)
REMARK    1  A    between atoms: C_1  and  C_2
REMARK    2  A    between atoms: C_10  and  C_13
REMARK    3  A    between atoms: N_16  and  C_17
REMARK    4  A    between atoms: C_20  and  O_25
REMARK    5  A    between atoms: C_22  and  O_23
REMARK    6  A    between atoms: O_23  and  C_24
REMARK    7  A    between atoms: O_25  and  C_26
REMARK                            x       y       z     vdW  Elec       q    Type
REMARK                         _______ _______ _______ _____ _____    ______ ____
ROOT
ATOM      1  C   UNL     1       4.686  -2.850   6.174  0.00  0.00    +0.044 C 
ATOM      2  C   UNL     1       4.116  -2.215   7.416  0.00  0.00    -0.048 A 
ATOM      3  C   UNL     1       4.730  -2.414   8.638  0.00  0.00    +0.007 A 
ATOM      4  C   UNL     1       4.212  -1.836   9.782  0.00  0.00    +0.048 A 
ATOM      5  C   UNL     1       3.071  -1.052   9.707  0.00  0.00    +0.142 A 
ATOM      6  C   UNL     1       2.455  -0.851   8.475  0.00  0.00    +0.080 A 
ATOM      7  C   UNL     1       2.978  -1.433   7.332  0.00  0.00    +0.030 A 
ATOM      8  N   UNL     1       1.300  -0.054   8.395  0.00  0.00    -0.248 N 
ATOM      9  C   UNL     1       0.616   0.289   9.653  0.00  0.00    +0.159 C 
ATOM     10  C   UNL     1       1.690   0.630  10.691  0.00  0.00    +0.188 C 
ATOM     11  O   UNL     1       2.565  -0.491  10.837  0.00  0.00    -0.486 OA
ATOM     12  C   UNL     1       1.027   0.942  12.034  0.00  0.00    +0.053 C 
ATOM     13  C   UNL     1       0.838   0.386   7.207  0.00  0.00    +0.311 C 
ATOM     14  O   UNL     1       1.376   0.033   6.176  0.00  0.00    -0.252 OA
ATOM     15  N   UNL     1      -0.222   1.218   7.163  0.00  0.00    -0.266 N 
ATOM     16  H   UNL     1      -0.612   1.551   7.987  0.00  0.00    +0.156 HD
ENDROOT
BRANCH  15  17
ATOM     17  C   UNL     1      -0.760   1.604   5.926  0.00  0.00    +0.078 A 
ATOM     18  C   UNL     1       0.051   1.657   4.802  0.00  0.00    +0.050 A 
ATOM     19  C   UNL     1      -0.481   2.031   3.582  0.00  0.00    +0.084 A 
ATOM     20  C   UNL     1      -1.825   2.366   3.482  0.00  0.00    +0.142 A 
ATOM     21  C   UNL     1      -2.639   2.314   4.603  0.00  0.00    +0.094 A 
ATOM     22  C   UNL     1      -2.110   1.934   5.825  0.00  0.00    +0.145 A 
ATOM     23 CL   UNL     1       0.534   2.090   2.175  0.00  0.00    -0.080 Cl
BRANCH  22  24
ATOM     24  O   UNL     1      -2.907   1.883   6.926  0.00  0.00    -0.493 OA
ATOM     25  C   UNL     1      -4.280   2.235   6.749  0.00  0.00    +0.277 C 
ENDBRANCH  22  24
BRANCH  20  26
ATOM     26  O   UNL     1      -2.344   2.740   2.282  0.00  0.00    -0.494 OA
ATOM     27  C   UNL     1      -3.735   3.064   2.250  0.00  0.00    +0.277 C 
ENDBRANCH  20  26
ENDBRANCH  15  17
TORSDOF 3
