REMARK  Name = ZINC01225689
REMARK  8 active torsions:
REMARK  status: ('A' for Active; 'I' for Inactive)
REMARK    1  A    between atoms: C_1  and  O_2
REMARK    2  A    between atoms: O_2  and  C_3
REMARK    3  A    between atoms: C_5  and  C_13
REMARK    4  A    between atoms: C_6  and  O_11
REMARK    5  A    between atoms: C_8  and  O_9
REMARK    6  A    between atoms: O_9  and  C_10
REMARK    7  A    between atoms: O_11  and  C_12
REMARK    8  A    between atoms: N_20  and  C_23
REMARK                            x       y       z     vdW  Elec       q    Type
REMARK                         _______ _______ _______ _____ _____    ______ ____
ROOT
ATOM      1  C   UNL     1      -2.457   1.044   0.019  0.00  0.00    +0.030 C 
ATOM      2  C   UNL     1      -2.447  -0.336  -0.094  0.00  0.00    +0.100 C 
ATOM      3  C   UNL     1      -1.185  -1.098  -0.114  0.00  0.00    +0.257 C 
ATOM      4  O   UNL     1      -0.111  -0.531  -0.031  0.00  0.00    -0.270 OA
ATOM      5  N   UNL     1      -1.252  -2.441  -0.221  0.00  0.00    -0.236 N 
ATOM      6  C   UNL     1      -2.427  -3.078  -0.318  0.00  0.00    +0.316 C 
ATOM      7  O   UNL     1      -2.419  -4.289  -0.417  0.00  0.00    -0.252 OA
ATOM      8  N   UNL     1      -3.612  -2.450  -0.312  0.00  0.00    -0.218 N 
ATOM      9  C   UNL     1      -3.699  -1.108  -0.205  0.00  0.00    +0.259 C 
ATOM     10  O   UNL     1      -4.780  -0.551  -0.200  0.00  0.00    -0.269 OA
ATOM     11  H   UNL     1      -0.431  -2.957  -0.232  0.00  0.00    +0.159 HD
ENDROOT
BRANCH   1  14
ATOM     12  C   UNL     1       0.703   2.002   1.689  0.00  0.00    +0.162 A 
ATOM     13  C   UNL     1      -0.462   1.327   1.403  0.00  0.00    +0.061 A 
ATOM     14  C   UNL     1      -1.262   1.738   0.324  0.00  0.00    +0.021 A 
ATOM     15  C   UNL     1      -0.871   2.849  -0.450  0.00  0.00    +0.131 A 
ATOM     16  C   UNL     1       0.302   3.518  -0.150  0.00  0.00    +0.095 A 
ATOM     17  C   UNL     1       1.089   3.100   0.914  0.00  0.00    +0.165 A 
BRANCH  12  19
ATOM     18  C   UNL     1       1.029   0.472   3.481  0.00  0.00    +0.277 C 
ATOM     19  O   UNL     1       1.482   1.601   2.730  0.00  0.00    -0.491 OA
ENDBRANCH  12  19
BRANCH  17  20
ATOM     20  O   UNL     1       2.238   3.761   1.204  0.00  0.00    -0.491 OA
ATOM     21  C   UNL     1       2.574   4.873   0.373  0.00  0.00    +0.277 C 
ENDBRANCH  17  20
BRANCH  15  22
ATOM     22  O   UNL     1      -1.640   3.259  -1.490  0.00  0.00    -0.494 OA
ATOM     23  C   UNL     1      -1.177   4.388  -2.233  0.00  0.00    +0.277 C 
ENDBRANCH  15  22
ENDBRANCH   1  14
BRANCH   8  24
ATOM     24  C   UNL     1      -4.841  -3.240  -0.424  0.00  0.00    +0.086 C 
ATOM     25  C   UNL     1      -4.924  -4.222   0.747  0.00  0.00    +0.023 C 
ATOM     26  C   UNL     1      -6.207  -5.047   0.630  0.00  0.00    +0.002 C 
ATOM     27  C   UNL     1      -6.196  -5.824  -0.687  0.00  0.00    +0.000 C 
ATOM     28  C   UNL     1      -6.112  -4.843  -1.858  0.00  0.00    +0.002 C 
ATOM     29  C   UNL     1      -4.829  -4.018  -1.741  0.00  0.00    +0.023 C 
ENDBRANCH   8  24
TORSDOF 5
