REMARK  Name = ZINC35486824
REMARK  10 active torsions:
REMARK  status: ('A' for Active; 'I' for Inactive)
REMARK    1  A    between atoms: C_1  and  C_2
REMARK    2  A    between atoms: C_2  and  C_3
REMARK    3  A    between atoms: C_2  and  C_4
REMARK    4  A    between atoms: C_2  and  C_5
REMARK    5  A    between atoms: C_8  and  C_11
REMARK    6  A    between atoms: N_26  and  C_27
REMARK    7  A    between atoms: C_27  and  C_28
REMARK    8  A    between atoms: C_28  and  N_29
REMARK    9  A    between atoms: N_29  and  C_30
REMARK   10  A    between atoms: N_29  and  C_31
REMARK                            x       y       z     vdW  Elec       q    Type
REMARK                         _______ _______ _______ _____ _____    ______ ____
ROOT
ATOM      1  C   UNL     1       2.707  -1.868  -4.752  0.00  0.00    +0.144 C 
ATOM      2  C   UNL     1       3.611  -3.008  -4.416  0.00  0.00    +0.072 A 
ATOM      3  C   UNL     1       3.330  -4.328  -3.841  0.00  0.00    +0.199 A 
ATOM      4  O   UNL     1       2.202  -4.766  -3.698  0.00  0.00    -0.287 OA
ATOM      5  C   UNL     1       4.550  -5.079  -3.451  0.00  0.00    +0.066 A 
ATOM      6  C   UNL     1       4.447  -6.257  -2.712  0.00  0.00    +0.035 A 
ATOM      7  C   UNL     1       5.590  -6.938  -2.354  0.00  0.00    +0.042 A 
ATOM      8  C   UNL     1       6.836  -6.450  -2.727  0.00  0.00    +0.023 A 
ATOM      9  C   UNL     1       6.949  -5.289  -3.457  0.00  0.00    +0.048 A 
ATOM     10  C   UNL     1       5.807  -4.583  -3.835  0.00  0.00    +0.140 A 
ATOM     11  O   UNL     1       5.946  -3.450  -4.561  0.00  0.00    -0.450 OA
ATOM     12  C   UNL     1       4.886  -2.637  -4.737  0.00  0.00    +0.199 A 
ATOM     13  C   UNL     1       4.847  -1.267  -5.276  0.00  0.00    +0.283 C 
ATOM     14  O   UNL     1       5.816  -0.639  -5.654  0.00  0.00    -0.267 OA
ATOM     15  N   UNL     1       3.576  -0.809  -5.290  0.00  0.00    -0.285 N 
ATOM     16 CL   UNL     1       5.473  -8.406  -1.435  0.00  0.00    -0.084 Cl
ENDROOT
BRANCH   1  20
ATOM     17  C   UNL     1       0.707  -0.490  -1.238  0.00  0.00    -0.042 A 
ATOM     18  C   UNL     1       0.036  -1.284  -2.148  0.00  0.00    +0.004 A 
ATOM     19  C   UNL     1       0.683  -1.730  -3.286  0.00  0.00    +0.006 A 
ATOM     20  C   UNL     1       2.001  -1.381  -3.513  0.00  0.00    -0.022 A 
ATOM     21  C   UNL     1       2.672  -0.586  -2.603  0.00  0.00    +0.006 A 
ATOM     22  C   UNL     1       2.024  -0.137  -1.467  0.00  0.00    +0.004 A 
BRANCH  17  24
ATOM     23  C   UNL     1      -0.019   1.526   0.010  0.00  0.00    +0.015 C 
ATOM     24  C   UNL     1       0.002  -0.004   0.002  0.00  0.00    -0.013 C 
ATOM     25  C   UNL     1       0.742  -0.511   1.242  0.00  0.00    +0.015 C 
ATOM     26  C   UNL     1      -1.433  -0.534   0.013  0.00  0.00    +0.015 C 
ENDBRANCH  17  24
ENDBRANCH   1  20
BRANCH  15  27
ATOM     27  C   UNL     1       3.139   0.508  -5.759  0.00  0.00    +0.090 C 
BRANCH  27  28
ATOM     28  C   UNL     1       3.163   1.498  -4.593  0.00  0.00    -0.060 C 
BRANCH  28  29
ATOM     29  N   UNL     1       2.724   2.819  -5.063  0.00  0.00    +0.377 N 
ATOM     30  C   UNL     1       1.319   2.748  -5.483  0.00  0.00    -0.097 C 
ATOM     31  C   UNL     1       2.861   3.796  -3.974  0.00  0.00    -0.097 C 
ATOM     32  H   UNL     1       3.295   3.104  -5.845  0.00  0.00    -0.083 HD
ENDBRANCH  28  29
ENDBRANCH  27  28
ENDBRANCH  15  27
TORSDOF 5
