REMARK  Name = ZINC20348365
REMARK  5 active torsions:
REMARK  status: ('A' for Active; 'I' for Inactive)
REMARK    1  A    between atoms: C_1  and  O_2
REMARK    2  A    between atoms: O_2  and  C_3
REMARK    3  A    between atoms: C_6  and  C_9
REMARK    4  A    between atoms: N_16  and  C_23
REMARK    5  A    between atoms: C_20  and  C_21
REMARK                            x       y       z     vdW  Elec       q    Type
REMARK                         _______ _______ _______ _____ _____    ______ ____
ROOT
ATOM      1  C   UNL     1       2.505  -2.503  -4.381  0.00  0.00    +0.070 C 
ATOM      2  C   UNL     1       3.660  -3.376  -3.883  0.00  0.00    +0.110 C 
ATOM      3  C   UNL     1       4.140  -4.252  -5.009  0.00  0.00    +0.222 C 
ATOM      4  O   UNL     1       5.321  -4.508  -5.105  0.00  0.00    -0.275 OA
ATOM      5  N   UNL     1       3.272  -4.758  -5.914  0.00  0.00    -0.251 N 
ATOM      6  C   UNL     1       3.821  -5.581  -6.989  0.00  0.00    +0.202 C 
ATOM      7  N   UNL     1       2.963  -6.700  -7.360  0.00  0.00    -0.274 NA
ATOM      8  C   UNL     1       1.712  -6.225  -7.981  0.00  0.00    +0.162 C 
ATOM      9  S   UNL     1       0.730  -5.436  -6.668  0.00  0.00    -0.093 S 
ATOM     10  C   UNL     1       1.932  -4.450  -5.827  0.00  0.00    +0.086 C 
ATOM     11  C   UNL     1       1.508  -3.374  -5.102  0.00  0.00    +0.065 C 
ENDROOT
BRANCH   1  15
ATOM     12  C   UNL     1       0.606  -0.607  -1.056  0.00  0.00    +0.120 A 
ATOM     13  C   UNL     1       1.173   0.161  -2.062  0.00  0.00    +0.046 A 
ATOM     14  C   UNL     1       1.786  -0.455  -3.136  0.00  0.00    +0.008 A 
ATOM     15  C   UNL     1       1.835  -1.835  -3.209  0.00  0.00    -0.039 A 
ATOM     16  C   UNL     1       1.270  -2.602  -2.207  0.00  0.00    +0.008 A 
ATOM     17  C   UNL     1       0.661  -1.992  -1.128  0.00  0.00    +0.046 A 
BRANCH  12  19
ATOM     18  C   UNL     1      -0.017   1.425   0.010  0.00  0.00    +0.277 C 
ATOM     19  O   UNL     1       0.002  -0.004   0.002  0.00  0.00    -0.495 OA
ENDBRANCH  12  19
ENDBRANCH   1  15
BRANCH   7  20
ATOM     20  C   UNL     1       3.670  -7.634  -8.247  0.00  0.00    +0.059 C 
ATOM     21  C   UNL     1       3.989  -6.937  -9.571  0.00  0.00    +0.019 C 
ATOM     22  C   UNL     1       4.725  -7.909 -10.495  0.00  0.00    +0.002 C 
ATOM     23  C   UNL     1       3.840  -9.129 -10.761  0.00  0.00    +0.000 C 
ATOM     24  C   UNL     1       3.521  -9.826  -9.437  0.00  0.00    +0.002 C 
ATOM     25  C   UNL     1       2.785  -8.853  -8.513  0.00  0.00    +0.019 C 
ENDBRANCH   7  20
BRANCH  11  26
ATOM     26  C   UNL     1       0.111  -3.072  -5.023  0.00  0.00    +0.098 C 
ATOM     27  N   UNL     1      -0.998  -2.832  -4.961  0.00  0.00    -0.191 NA
ENDBRANCH  11  26
TORSDOF 4
