REMARK  Name = ZINC15083606
REMARK  3 active torsions:
REMARK  status: ('A' for Active; 'I' for Inactive)
REMARK    1  A    between atoms: C_1  and  N_2
REMARK    2  A    between atoms: C_12  and  C_17
REMARK    3  A    between atoms: C_22  and  O_23
REMARK                            x       y       z     vdW  Elec       q    Type
REMARK                         _______ _______ _______ _____ _____    ______ ____
ROOT
ATOM      1  C   UNL     1      -0.018   1.465   0.010  0.00  0.00    +0.105 C 
ATOM      2  N   UNL     1       0.002  -0.004   0.002  0.00  0.00    -0.300 NA
ATOM      3  C   UNL     1      -1.362  -0.549   0.022  0.00  0.00    +0.089 C 
ATOM      4  C   UNL     1      -1.343  -2.031  -0.363  0.00  0.00    +0.052 C 
ATOM      5  C   UNL     1      -0.317  -2.739   0.519  0.00  0.00    -0.022 A 
ATOM      6  C   UNL     1       0.622  -2.016   1.172  0.00  0.00    +0.010 A 
ATOM      7  S   UNL     1       1.584  -3.209   2.058  0.00  0.00    -0.072 S 
ATOM      8  C   UNL     1       0.722  -4.676   1.549  0.00  0.00    +0.114 A 
ATOM      9  C   UNL     1      -0.288  -4.185   0.704  0.00  0.00    +0.055 A 
ATOM     10  C   UNL     1      -1.174  -5.215   0.127  0.00  0.00    +0.168 A 
ATOM     11  N   UNL     1      -2.208  -5.165  -0.688  0.00  0.00    -0.206 NA
ATOM     12  C   UNL     1      -2.666  -6.402  -0.904  0.00  0.00    +0.185 A 
ATOM     13  N   UNL     1      -1.929  -7.264  -0.230  0.00  0.00    -0.143 NA
ATOM     14  N   UNL     1      -0.950  -6.524   0.450  0.00  0.00    -0.201 N 
ATOM     15  C   UNL     1       0.067  -6.868   1.284  0.00  0.00    +0.226 A 
ATOM     16  N   UNL     1       0.861  -5.972   1.802  0.00  0.00    -0.228 NA
ATOM     17  C   UNL     1       0.789  -0.528   1.134  0.00  0.00    +0.126 C 
ENDROOT
BRANCH  12  18
ATOM     18  C   UNL     1      -3.821  -6.752  -1.767  0.00  0.00    +0.058 C 
ATOM     19  C   UNL     1      -4.196  -8.031  -1.907  0.00  0.00    -0.011 C 
ATOM     20  C   UNL     1      -5.368  -8.381  -2.785  0.00  0.00    +0.032 C 
ATOM     21  C   UNL     1      -6.430  -7.286  -2.699  0.00  0.00    +0.035 C 
ATOM     22  C   UNL     1      -5.800  -5.937  -2.922  0.00  0.00    +0.019 C 
ATOM     23  C   UNL     1      -4.572  -5.690  -2.473  0.00  0.00    +0.123 C 
BRANCH  23  24
ATOM     24  O   UNL     1      -4.009  -4.469  -2.668  0.00  0.00    -0.506 OA
ATOM     25  H   UNL     1      -4.577  -3.844  -3.139  0.00  0.00    +0.292 HD
ENDBRANCH  23  24
ENDBRANCH  12  18
TORSDOF 2
