REMARK  Name = ZINC00226357
REMARK  1 active torsions:
REMARK  status: ('A' for Active; 'I' for Inactive)
REMARK    1  A    between atoms: C_6  and  N_7
REMARK                            x       y       z     vdW  Elec       q    Type
REMARK                         _______ _______ _______ _____ _____    ______ ____
ROOT
ATOM      1  C   UNL     1       2.887   4.837  -5.305  0.00  0.00    +0.033 A 
ATOM      2  C   UNL     1       2.460   4.807  -3.994  0.00  0.00    +0.017 A 
ATOM      3  C   UNL     1       2.358   3.586  -3.334  0.00  0.00    +0.065 A 
ATOM      4  C   UNL     1       2.691   2.387  -4.004  0.00  0.00    +0.080 A 
ATOM      5  C   UNL     1       3.122   2.444  -5.331  0.00  0.00    +0.061 A 
ATOM      6  C   UNL     1       3.215   3.661  -5.966  0.00  0.00    +0.128 A 
ATOM      7  N   UNL     1       2.581   1.209  -3.342  0.00  0.00    -0.233 NA
ATOM      8  C   UNL     1       2.175   1.147  -2.110  0.00  0.00    +0.113 A 
ATOM      9  N   UNL     1       1.838   2.260  -1.390  0.00  0.00    -0.295 N 
ATOM     10  C   UNL     1       1.907   3.490  -1.937  0.00  0.00    +0.262 A 
ATOM     11  O   UNL     1       1.609   4.483  -1.299  0.00  0.00    -0.267 OA
ATOM     12  C   UNL     1       1.399   2.085  -0.000  0.00  0.00    +0.146 C 
ATOM     13  C   UNL     1      -0.018   1.515   0.010  0.00  0.00    +0.100 C 
ATOM     14  C   UNL     1       0.002  -0.004   0.002  0.00  0.00    +0.021 C 
ATOM     15  C   UNL     1       0.586  -0.562  -1.284  0.00  0.00    +0.009 C 
ATOM     16  C   UNL     1       2.061  -0.197  -1.424  0.00  0.00    +0.074 C 
ATOM     17 CL   UNL     1      -0.875   2.087   1.490  0.00  0.00    -0.120 Cl
ENDROOT
BRANCH   6  18
ATOM     18  N   UNL     1       3.671   3.718  -7.374  0.00  0.00    +0.056 N 
ATOM     19  O   UNL     1       3.961   2.692  -7.962  0.00  0.00    -0.126 OA
ATOM     20  O   UNL     1       3.756   4.791  -7.943  0.00  0.00    -0.126 OA
ENDBRANCH   6  18
TORSDOF 1
