REMARK  Name = ZINC18021825
REMARK  6 active torsions:
REMARK  status: ('A' for Active; 'I' for Inactive)
REMARK    1  A    between atoms: C_1  and  C_2
REMARK    2  A    between atoms: C_2  and  C_4
REMARK    3  A    between atoms: C_2  and  N_12
REMARK    4  A    between atoms: C_13  and  C_15
REMARK    5  A    between atoms: C_18  and  N_24
REMARK    6  A    between atoms: C_19  and  N_21
REMARK                            x       y       z     vdW  Elec       q    Type
REMARK                         _______ _______ _______ _____ _____    ______ ____
ROOT
ATOM      1  N   UNL     1       1.221  -4.905  -0.244  0.00  0.00    -0.305 N 
ATOM      2  C   UNL     1       0.050  -4.247  -0.127  0.00  0.00    +0.245 C 
ATOM      3  O   UNL     1      -0.994  -4.869  -0.074  0.00  0.00    -0.270 OA
ATOM      4  H   UNL     1       2.053  -4.409  -0.287  0.00  0.00    +0.150 HD
ENDROOT
BRANCH   2   5
ATOM      5  C   UNL     1       0.035  -2.774  -0.064  0.00  0.00    +0.039 A 
ATOM      6  C   UNL     1       1.234  -2.058  -0.125  0.00  0.00    +0.015 A 
ATOM      7  C   UNL     1       1.217  -0.683  -0.067  0.00  0.00    +0.026 A 
ATOM      8  C   UNL     1       0.007  -0.005   0.054  0.00  0.00    +0.055 A 
ATOM      9  C   UNL     1      -1.188  -0.716   0.120  0.00  0.00    +0.147 A 
ATOM     10  C   UNL     1      -1.178  -2.090   0.056  0.00  0.00    +0.047 A 
BRANCH   9  11
ATOM     11  N   UNL     1      -2.472   0.009   0.254  0.00  0.00    +0.058 N 
ATOM     12  O   UNL     1      -3.362  -0.452   0.947  0.00  0.00    -0.126 OA
ATOM     13  O   UNL     1      -2.639   1.065  -0.328  0.00  0.00    -0.126 OA
ENDBRANCH   9  11
BRANCH   8  14
ATOM     14  N   UNL     1      -0.007   1.384   0.113  0.00  0.00    -0.356 N 
ATOM     15  H   UNL     1       0.809   1.884  -0.044  0.00  0.00    +0.142 HD
ATOM     16  H   UNL     1      -0.834   1.853   0.306  0.00  0.00    +0.142 HD
ENDBRANCH   8  14
ENDBRANCH   2   5
BRANCH   1  18
ATOM     17  C   UNL     1       1.224  -6.940   1.112  0.00  0.00    +0.033 C 
ATOM     18  C   UNL     1       1.236  -6.369  -0.307  0.00  0.00    +0.102 C 
BRANCH  18  19
ATOM     19  C   UNL     1       2.479  -6.828  -1.024  0.00  0.00    -0.009 A 
ATOM     20  C   UNL     1       3.600  -6.020  -1.050  0.00  0.00    +0.008 A 
ATOM     21  C   UNL     1       4.743  -6.443  -1.702  0.00  0.00    +0.020 A 
ATOM     22  C   UNL     1       4.761  -7.671  -2.339  0.00  0.00    +0.042 A 
ATOM     23  C   UNL     1       3.638  -8.478  -2.318  0.00  0.00    +0.040 A 
ATOM     24  C   UNL     1       2.496  -8.056  -1.660  0.00  0.00    +0.047 A 
ATOM     25 CL   UNL     1       1.086  -9.068  -1.634  0.00  0.00    -0.083 Cl
ATOM     26 CL   UNL     1       6.195  -8.200  -3.164  0.00  0.00    -0.083 Cl
ENDBRANCH  18  19
ENDBRANCH   1  18
TORSDOF 5
