REMARK  Name = ZINC32510442
REMARK  5 active torsions:
REMARK  status: ('A' for Active; 'I' for Inactive)
REMARK    1  A    between atoms: C_1  and  C_2
REMARK    2  A    between atoms: C_9  and  C_13
REMARK    3  A    between atoms: C_13  and  N_14
REMARK    4  A    between atoms: N_17  and  C_20
REMARK    5  A    between atoms: C_23  and  O_26
REMARK                            x       y       z     vdW  Elec       q    Type
REMARK                         _______ _______ _______ _____ _____    ______ ____
ROOT
ATOM      1  C   UNL     1       0.060   0.070   4.806  0.00  0.00    +0.137 C 
ENDROOT
BRANCH   1  10
ATOM      2  C   UNL     1      -0.026   1.528   0.014  0.00  0.00    +0.047 C 
ATOM      3  C   UNL     1       0.006   0.021  -0.009  0.00  0.00    -0.009 A 
ATOM      4  C   UNL     1       0.013  -0.648  -1.195  0.00  0.00    +0.008 A 
ATOM      5  C   UNL     1       0.043  -2.050  -1.198  0.00  0.00    +0.019 A 
ATOM      6  C   UNL     1       0.065  -2.731  -0.031  0.00  0.00    +0.096 A 
ATOM      7  N   UNL     1       0.058  -2.072   1.160  0.00  0.00    -0.269 N 
ATOM      8  C   UNL     1       0.035  -0.705   1.196  0.00  0.00    +0.121 A 
ATOM      9  N   UNL     1       0.034  -0.052   2.357  0.00  0.00    -0.343 N 
ATOM     10  C   UNL     1       0.061  -0.700   3.511  0.00  0.00    +0.037 A 
ATOM     11  C   UNL     1       0.091  -2.080   3.529  0.00  0.00    +0.093 A 
ATOM     12  C   UNL     1       0.080  -2.774   2.313  0.00  0.00    +0.258 A 
ATOM     13  O   UNL     1       0.106  -3.994   2.295  0.00  0.00    -0.267 OA
ATOM     14  H   UNL     1       0.013   0.917   2.356  0.00  0.00    +0.167 HD
ENDBRANCH   1  10
BRANCH   1  15
ATOM     15  N   UNL     1       1.300   0.850   4.914  0.00  0.00    -0.294 NA
ATOM     16  C   UNL     1       2.469  -0.032   5.025  0.00  0.00    +0.103 C 
ATOM     17  C   UNL     1       3.748   0.808   4.952  0.00  0.00    +0.120 C 
ATOM     18  N   UNL     1       3.670   1.868   5.969  0.00  0.00    -0.327 N 
ATOM     19  C   UNL     1       2.463   2.707   6.008  0.00  0.00    +0.120 C 
ATOM     20  C   UNL     1       1.234   1.792   6.040  0.00  0.00    +0.103 C 
BRANCH  18  21
ATOM     21  C   UNL     1       4.716   2.071   6.876  0.00  0.00    +0.030 A 
ATOM     22  C   UNL     1       5.796   1.199   6.898  0.00  0.00    +0.027 A 
ATOM     23  C   UNL     1       6.828   1.401   7.793  0.00  0.00    +0.047 A 
ATOM     24  C   UNL     1       6.786   2.474   8.670  0.00  0.00    +0.117 A 
ATOM     25  C   UNL     1       5.707   3.346   8.649  0.00  0.00    +0.047 A 
ATOM     26  C   UNL     1       4.677   3.149   7.751  0.00  0.00    +0.027 A 
BRANCH  24  27
ATOM     27  O   UNL     1       7.803   2.672   9.552  0.00  0.00    -0.507 OA
ATOM     28  H   UNL     1       8.515   3.232   9.212  0.00  0.00    +0.292 HD
ENDBRANCH  24  27
ENDBRANCH  18  21
ENDBRANCH   1  15
TORSDOF 4
