REMARK  Name = ZINC34871757
REMARK  7 active torsions:
REMARK  status: ('A' for Active; 'I' for Inactive)
REMARK    1  A    between atoms: C_1  and  C_2
REMARK    2  A    between atoms: C_2  and  C_4
REMARK    3  A    between atoms: C_2  and  O_23
REMARK    4  A    between atoms: C_5  and  C_6
REMARK    5  A    between atoms: C_13  and  O_14
REMARK    6  A    between atoms: O_14  and  C_15
REMARK    7  A    between atoms: N_21  and  C_22
REMARK                            x       y       z     vdW  Elec       q    Type
REMARK                         _______ _______ _______ _____ _____    ______ ____
ROOT
ATOM      1  C   UNL     1       1.994  -1.368   3.338  0.00  0.00    +0.167 C 
ATOM      2  C   UNL     1       2.011  -2.874   3.325  0.00  0.00    +0.030 A 
ATOM      3  C   UNL     1       1.783  -3.615   4.466  0.00  0.00    -0.033 A 
ATOM      4  C   UNL     1       1.814  -5.000   4.412  0.00  0.00    +0.053 A 
ATOM      5  C   UNL     1       2.070  -5.651   3.216  0.00  0.00    +0.170 A 
ATOM      6  C   UNL     1       2.298  -4.908   2.063  0.00  0.00    +0.208 A 
ATOM      7  C   UNL     1       2.268  -3.522   2.121  0.00  0.00    +0.171 A 
ATOM      8  O   UNL     1       2.523  -5.769   1.026  0.00  0.00    -0.449 OA
ATOM      9  C   UNL     1       2.835  -7.035   1.639  0.00  0.00    +0.467 C 
ATOM     10  O   UNL     1       2.152  -6.978   2.906  0.00  0.00    -0.452 OA
ATOM     11  C   UNL     1       1.492  -2.956   5.791  0.00  0.00    +0.051 C 
ATOM     12  C   UNL     1       1.905  -1.485   5.744  0.00  0.00    +0.090 C 
ATOM     13  N   UNL     1       1.318  -0.873   4.541  0.00  0.00    -0.288 NA
ATOM     14  C   UNL     1       1.378   0.593   4.614  0.00  0.00    +0.106 C 
ENDROOT
BRANCH   1  16
ATOM     15  C   UNL     1       0.714  -0.492   1.195  0.00  0.00    -0.069 C 
ATOM     16  C   UNL     1       1.282  -0.881   2.146  0.00  0.00    -0.076 C 
BRANCH  15  18
ATOM     17  C   UNL     1      -0.019   1.526   0.010  0.00  0.00    +0.052 C 
ATOM     18  C   UNL     1       0.002  -0.004   0.002  0.00  0.00    +0.186 C 
BRANCH  18  19
ATOM     19  O   UNL     1      -1.339  -0.499   0.012  0.00  0.00    -0.380 OA
ATOM     20  H   UNL     1      -1.853  -0.225   0.784  0.00  0.00    +0.211 HD
ENDBRANCH  18  19
ENDBRANCH  15  18
ENDBRANCH   1  16
BRANCH   7  21
ATOM     21  O   UNL     1       2.490  -2.793   0.995  0.00  0.00    -0.491 OA
ATOM     22  C   UNL     1       3.843  -2.429   0.714  0.00  0.00    +0.277 C 
ENDBRANCH   7  21
TORSDOF 4
