REMARK  Name = ZINC63737782
REMARK  6 active torsions:
REMARK  status: ('A' for Active; 'I' for Inactive)
REMARK    1  A    between atoms: C_1  and  C_2
REMARK    2  A    between atoms: C_5  and  C_8
REMARK    3  A    between atoms: C_8  and  N_9
REMARK    4  A    between atoms: C_10  and  C_12
REMARK    5  A    between atoms: C_12  and  C_13
REMARK    6  A    between atoms: C_19  and  C_21
REMARK                            x       y       z     vdW  Elec       q    Type
REMARK                         _______ _______ _______ _____ _____    ______ ____
ROOT
ATOM      1  C   UNL     1       3.157  -8.081  -0.059  0.00  0.00    +0.001 C 
ATOM      2  C   UNL     1       2.560  -8.606   1.248  0.00  0.00    +0.023 C 
ATOM      3  C   UNL     1       2.549 -10.138   1.222  0.00  0.00    +0.108 C 
ATOM      4  N   UNL     1       3.911 -10.615   0.946  0.00  0.00    -0.300 N 
ATOM      5  C   UNL     1       4.613 -10.103  -0.239  0.00  0.00    +0.108 C 
ATOM      6  C   UNL     1       4.600  -8.572  -0.196  0.00  0.00    +0.023 C 
ATOM      7  C   UNL     1       4.505 -11.506   1.765  0.00  0.00    +0.242 C 
ATOM      8  O   UNL     1       3.916 -11.921   2.740  0.00  0.00    -0.273 OA
ENDROOT
BRANCH   7   9
ATOM      9  C   UNL     1       5.903 -11.986   1.469  0.00  0.00    +0.190 C 
ATOM     10  C   UNL     1       6.873 -10.827   1.517  0.00  0.00    +0.016 C 
ATOM     11  C   UNL     1       7.759 -11.120   2.496  0.00  0.00    -0.004 A 
ATOM     12  C   UNL     1       8.928 -10.408   3.025  0.00  0.00    +0.010 A 
ATOM     13  C   UNL     1       9.637 -10.967   4.032  0.00  0.00    +0.001 A 
ATOM     14  C   UNL     1       9.284 -12.207   4.581  0.00  0.00    +0.002 A 
ATOM     15  C   UNL     1       8.224 -12.922   4.148  0.00  0.00    +0.026 A 
ATOM     16  C   UNL     1       7.408 -12.428   3.093  0.00  0.00    +0.043 A 
ATOM     17  N   UNL     1       6.345 -12.926   2.505  0.00  0.00    -0.370 N 
ATOM     18  H   UNL     1       5.922 -13.772   2.719  0.00  0.00    +0.161 HD
ENDBRANCH   7   9
BRANCH   1  19
ATOM     19  C   UNL     1       3.137  -6.551  -0.051  0.00  0.00    +0.099 C 
BRANCH  19  21
ATOM     20  N   UNL     1       1.447  -4.746  -0.032  0.00  0.00    -0.311 N 
ATOM     21  C   UNL     1       1.710  -6.067  -0.040  0.00  0.00    +0.214 C 
ATOM     22  O   UNL     1       0.799  -6.867  -0.040  0.00  0.00    -0.276 OA
ATOM     23  H   UNL     1       2.176  -4.106  -0.032  0.00  0.00    +0.149 HD
BRANCH  20  24
ATOM     24  C   UNL     1       0.059  -4.275  -0.021  0.00  0.00    +0.139 C 
BRANCH  24  29
ATOM     25  C   UNL     1      -0.018   1.503   0.010  0.00  0.00    +0.044 C 
ATOM     26  C   UNL     1       0.002  -0.004   0.002  0.00  0.00    -0.050 A 
ATOM     27  C   UNL     1       0.006  -0.689  -1.199  0.00  0.00    +0.003 A 
ATOM     28  C   UNL     1       0.025  -2.071  -1.206  0.00  0.00    +0.005 A 
ATOM     29  C   UNL     1       0.040  -2.768  -0.013  0.00  0.00    -0.030 A 
ATOM     30  C   UNL     1       0.037  -2.084   1.188  0.00  0.00    +0.005 A 
ATOM     31  C   UNL     1       0.023  -0.702   1.195  0.00  0.00    +0.003 A 
ENDBRANCH  24  29
ENDBRANCH  20  24
ENDBRANCH  19  21
ENDBRANCH   1  19
TORSDOF 5
