REMARK  Name = ZINC66941485
REMARK  6 active torsions:
REMARK  status: ('A' for Active; 'I' for Inactive)
REMARK    1  A    between atoms: C_1  and  C_2
REMARK    2  A    between atoms: C_2  and  C_3
REMARK    3  A    between atoms: C_2  and  C_4
REMARK    4  A    between atoms: C_4  and  C_6
REMARK    5  A    between atoms: C_4  and  N_22
REMARK    6  A    between atoms: C_14  and  C_16
REMARK                            x       y       z     vdW  Elec       q    Type
REMARK                         _______ _______ _______ _____ _____    ______ ____
ROOT
ATOM      1  C   UNL     1      -2.884   0.443  -0.365  0.00  0.00    +0.236 C 
ATOM      2  O   UNL     1      -3.670  -0.303  -0.911  0.00  0.00    -0.274 OA
ATOM      3  N   UNL     1      -2.742   1.710  -0.803  0.00  0.00    -0.297 N 
ATOM      4  C   UNL     1      -1.870   2.654  -0.090  0.00  0.00    +0.127 C 
ATOM      5  C   UNL     1      -0.847   3.220  -1.083  0.00  0.00    +0.126 C 
ATOM      6  N   UNL     1      -1.561   3.682  -2.281  0.00  0.00    -0.298 N 
ATOM      7  C   UNL     1      -2.433   2.738  -2.994  0.00  0.00    +0.126 C 
ATOM      8  C   UNL     1      -3.452   2.170  -2.005  0.00  0.00    +0.127 C 
ATOM      9  C   UNL     1      -1.419   4.949  -2.719  0.00  0.00    +0.219 C 
ATOM     10  O   UNL     1      -0.615   5.687  -2.189  0.00  0.00    -0.275 OA
ENDROOT
BRANCH   9  11
ATOM     11  C   UNL     1      -2.258   5.448  -3.866  0.00  0.00    +0.075 C 
ATOM     12  C   UNL     1      -1.843   4.731  -5.152  0.00  0.00    +0.013 C 
ATOM     13  C   UNL     1      -2.695   5.238  -6.317  0.00  0.00    +0.001 C 
ATOM     14  C   UNL     1      -2.487   6.745  -6.484  0.00  0.00    +0.000 C 
ATOM     15  C   UNL     1      -2.902   7.462  -5.198  0.00  0.00    +0.001 C 
ATOM     16  C   UNL     1      -2.050   6.955  -4.033  0.00  0.00    +0.013 C 
ENDBRANCH   9  11
BRANCH   1  17
ATOM     17  C   UNL     1      -2.067  -0.047   0.802  0.00  0.00    +0.163 C 
BRANCH  17  18
ATOM     18  N   UNL     1      -2.865  -0.984   1.597  0.00  0.00    -0.288 N 
ATOM     19  C   UNL     1      -2.586  -1.167   2.903  0.00  0.00    +0.298 C 
ATOM     20  O   UNL     1      -1.674  -0.553   3.422  0.00  0.00    -0.253 OA
ATOM     21  N   UNL     1      -3.320  -2.029   3.635  0.00  0.00    -0.313 N 
ATOM     22  H   UNL     1      -3.593  -1.474   1.183  0.00  0.00    +0.151 HD
ATOM     23  H   UNL     1      -4.048  -2.518   3.221  0.00  0.00    +0.146 HD
ATOM     24  H   UNL     1      -3.120  -2.160   4.575  0.00  0.00    +0.146 HD
ENDBRANCH  17  18
BRANCH  17  26
ATOM     25  C   UNL     1      -0.001   0.212  -0.578  0.00  0.00    +0.009 C 
ATOM     26  C   UNL     1      -0.813  -0.755   0.286  0.00  0.00    +0.012 C 
ATOM     27  C   UNL     1       0.037  -1.216   1.471  0.00  0.00    +0.009 C 
ENDBRANCH  17  26
ENDBRANCH   1  17
TORSDOF 4
