REMARK  Name = ZINC36827295
REMARK  2 active torsions:
REMARK  status: ('A' for Active; 'I' for Inactive)
REMARK    1  A    between atoms: C_6  and  C_21
REMARK    2  A    between atoms: C_7  and  N_9
REMARK                            x       y       z     vdW  Elec       q    Type
REMARK                         _______ _______ _______ _____ _____    ______ ____
ROOT
ATOM      1  C   UNL     1       0.038   1.359  -0.285  0.00  0.00    +0.101 A 
ATOM      2  C   UNL     1       1.162   2.054  -0.102  0.00  0.00    +0.067 A 
ATOM      3  S   UNL     1       2.332   0.759   0.277  0.00  0.00    -0.058 S 
ATOM      4  C   UNL     1       1.206  -0.613   0.156  0.00  0.00    +0.180 A 
ATOM      5  N   UNL     1       0.030  -0.009  -0.160  0.00  0.00    -0.286 N 
ATOM      6  C   UNL     1      -0.897  -1.062  -0.267  0.00  0.00    +0.176 A 
ATOM      7  C   UNL     1      -0.206  -2.232  -0.005  0.00  0.00    +0.140 A 
ATOM      8  N   UNL     1       1.056  -1.912   0.243  0.00  0.00    -0.207 NA
ENDROOT
BRANCH   7   9
ATOM      9  N   UNL     1      -0.744  -3.522  -0.004  0.00  0.00    -0.375 NA
ATOM     10  C   UNL     1      -0.214  -4.273  -1.149  0.00  0.00    +0.086 C 
ATOM     11  C   UNL     1      -0.861  -5.659  -1.199  0.00  0.00    +0.018 C 
ATOM     12  C   UNL     1      -0.545  -6.411   0.097  0.00  0.00    +0.007 C 
ATOM     13  C   UNL     1      -1.036  -5.584   1.288  0.00  0.00    +0.008 C 
ATOM     14  C   UNL     1      -0.383  -4.200   1.247  0.00  0.00    +0.060 C 
ATOM     15  C   UNL     1      -0.873  -3.371   2.436  0.00  0.00    +0.021 C 
ATOM     16  C   UNL     1      -2.393  -3.218   2.358  0.00  0.00    +0.002 C 
ATOM     17  C   UNL     1      -3.048  -4.600   2.396  0.00  0.00    +0.000 C 
ATOM     18  C   UNL     1      -2.557  -5.435   1.212  0.00  0.00    +0.005 C 
ATOM     19  H   UNL     1      -1.749  -3.467  -0.077  0.00  0.00    +0.128 HD
ENDBRANCH   7   9
BRANCH   6  20
ATOM     20  C   UNL     1      -2.267  -0.948  -0.579  0.00  0.00    +0.406 C 
ATOM     21  O   UNL     1      -2.824   0.257  -0.700  0.00  0.00    -0.239 OA
ATOM     22  O   UNL     1      -3.005  -2.044  -0.752  0.00  0.00    -0.239 OA
ENDBRANCH   6  20
TORSDOF 2
