REMARK  Name = ZINC48637951
REMARK  2 active torsions:
REMARK  status: ('A' for Active; 'I' for Inactive)
REMARK    1  A    between atoms: N_5  and  C_6
REMARK    2  A    between atoms: C_6  and  N_7
REMARK                            x       y       z     vdW  Elec       q    Type
REMARK                         _______ _______ _______ _____ _____    ______ ____
ROOT
ATOM      1  C   UNL     1      -0.016   1.346   0.009  0.00  0.00    +0.127 A 
ATOM      2  C   UNL     1       1.267   1.776  -0.001  0.00  0.00    +0.086 A 
ATOM      3  C   UNL     1       2.098   0.650  -0.015  0.00  0.00    +0.249 A 
ATOM      4  N   UNL     1       1.341  -0.417  -0.013  0.00  0.00    -0.144 NA
ATOM      5  N   UNL     1       0.002  -0.004   0.002  0.00  0.00    -0.254 N 
ATOM      6  N   UNL     1       3.578   0.663  -0.029  0.00  0.00    +0.078 N 
ATOM      7  O   UNL     1       4.173   1.716  -0.029  0.00  0.00    -0.125 OA
ATOM      8  O   UNL     1       4.192  -0.378  -0.040  0.00  0.00    -0.125 OA
ATOM      9 BR   UNL     1       1.837   3.579   0.003  0.00  0.00    -0.045 Br
ENDROOT
BRANCH   5  10
ATOM     10  C   UNL     1      -1.171  -0.882   0.009  0.00  0.00    +0.230 C 
BRANCH  10  11
ATOM     11  N   UNL     1      -1.504  -1.265  -1.370  0.00  0.00    -0.282 NA
ATOM     12  C   UNL     1      -1.894  -0.095  -2.160  0.00  0.00    +0.097 C 
ATOM     13  C   UNL     1      -1.789  -0.418  -3.655  0.00  0.00    +0.084 C 
ATOM     14  S   UNL     1      -2.935  -1.782  -4.028  0.00  0.00    -0.158 S 
ATOM     15  C   UNL     1      -2.515  -3.017  -2.759  0.00  0.00    +0.084 C 
ATOM     16  C   UNL     1      -2.516  -2.323  -1.391  0.00  0.00    +0.097 C 
ENDBRANCH  10  11
ENDBRANCH   5  10
TORSDOF 2
