REMARK  Name = ZINC63339983
REMARK  7 active torsions:
REMARK  status: ('A' for Active; 'I' for Inactive)
REMARK    1  A    between atoms: C_1  and  C_2
REMARK    2  A    between atoms: C_2  and  C_3
REMARK    3  A    between atoms: C_2  and  C_4
REMARK    4  A    between atoms: C_7  and  N_10
REMARK    5  A    between atoms: C_14  and  N_18
REMARK    6  A    between atoms: C_24  and  O_32
REMARK    7  A    between atoms: O_32  and  C_33
REMARK                            x       y       z     vdW  Elec       q    Type
REMARK                         _______ _______ _______ _____ _____    ______ ____
ROOT
ATOM      1  N   UNL     1      -5.207  -2.091  -0.142  0.00  0.00    -0.209 N 
ATOM      2  C   UNL     1      -5.969  -1.741   0.902  0.00  0.00    +0.228 C 
ATOM      3  O   UNL     1      -5.600  -1.083   1.851  0.00  0.00    -0.275 OA
ATOM      4  C   UNL     1      -7.363  -2.297   0.710  0.00  0.00    +0.125 C 
ATOM      5  C   UNL     1      -7.274  -3.037  -0.640  0.00  0.00    +0.153 C 
ATOM      6  C   UNL     1      -5.840  -2.817  -1.072  0.00  0.00    +0.244 C 
ATOM      7  O   UNL     1      -5.343  -3.233  -2.096  0.00  0.00    -0.273 OA
ENDROOT
BRANCH   5   8
ATOM      8  N   UNL     1      -8.202  -2.448  -1.615  0.00  0.00    -0.289 NA
ATOM      9  C   UNL     1      -8.386  -3.335  -2.767  0.00  0.00    +0.089 C 
ATOM     10  C   UNL     1      -9.548  -2.834  -3.644  0.00  0.00    +0.049 C 
ATOM     11  C   UNL     1      -9.288  -1.369  -3.890  0.00  0.00    -0.036 C 
ATOM     12  C   UNL     1      -9.277  -0.637  -4.994  0.00  0.00    +0.003 A 
ATOM     13  C   UNL     1      -9.647  -0.946  -6.384  0.00  0.00    +0.055 A 
ATOM     14  C   UNL     1      -9.486   0.052  -7.296  0.00  0.00    +0.121 A 
ATOM     15  C   UNL     1      -8.998   1.329  -6.982  0.00  0.00    +0.047 A 
ATOM     16  C   UNL     1      -8.638   1.724  -5.734  0.00  0.00    +0.029 A 
ATOM     17  C   UNL     1      -8.777   0.733  -4.659  0.00  0.00    +0.043 A 
ATOM     18  N   UNL     1      -8.542   0.833  -3.385  0.00  0.00    -0.376 N 
ATOM     19  C   UNL     1      -8.932  -0.423  -2.747  0.00  0.00    +0.120 C 
ATOM     20  C   UNL     1      -7.783  -1.088  -1.987  0.00  0.00    +0.114 C 
ATOM     21  H   UNL     1      -8.170   1.608  -2.935  0.00  0.00    +0.160 HD
BRANCH  14  22
ATOM     22  O   UNL     1      -9.819  -0.204  -8.588  0.00  0.00    -0.495 OA
ATOM     23  C   UNL     1      -9.641   0.859  -9.527  0.00  0.00    +0.277 C 
ENDBRANCH  14  22
ENDBRANCH   5   8
BRANCH   1  27
ATOM     24  C   UNL     1      -1.199  -0.996  -0.476  0.00  0.00    -0.045 A 
ATOM     25  C   UNL     1      -2.133  -0.470  -1.350  0.00  0.00    +0.006 A 
ATOM     26  C   UNL     1      -3.462  -0.831  -1.241  0.00  0.00    +0.024 A 
ATOM     27  C   UNL     1      -3.859  -1.723  -0.254  0.00  0.00    +0.044 A 
ATOM     28  C   UNL     1      -2.919  -2.249   0.621  0.00  0.00    +0.024 A 
ATOM     29  C   UNL     1      -1.591  -1.888   0.505  0.00  0.00    +0.006 A 
BRANCH  24  31
ATOM     30  C   UNL     1       0.771  -0.988  -1.982  0.00  0.00    +0.012 C 
ATOM     31  C   UNL     1       0.250  -0.600  -0.597  0.00  0.00    +0.013 C 
ATOM     32  C   UNL     1       0.383   0.912  -0.407  0.00  0.00    +0.012 C 
ENDBRANCH  24  31
ENDBRANCH   1  27
TORSDOF 4
