REMARK  Name = ZINC14163574
REMARK  5 active torsions:
REMARK  status: ('A' for Active; 'I' for Inactive)
REMARK    1  A    between atoms: C_1  and  C_2
REMARK    2  A    between atoms: C_3  and  C_21
REMARK    3  A    between atoms: C_7  and  C_13
REMARK    4  A    between atoms: C_13  and  S_14
REMARK    5  A    between atoms: S_14  and  C_15
REMARK                            x       y       z     vdW  Elec       q    Type
REMARK                         _______ _______ _______ _____ _____    ______ ____
ROOT
ATOM      1  C   UNL     1      -2.461   5.521   5.495  0.00  0.00    +0.068 C 
ATOM      2  C   UNL     1      -2.118   4.423   4.521  0.00  0.00    +0.070 A 
ATOM      3  C   UNL     1      -1.300   4.558   3.385  0.00  0.00    +0.047 A 
ATOM      4  C   UNL     1      -1.244   3.320   2.768  0.00  0.00    +0.146 A 
ATOM      5  N   UNL     1      -0.599   2.873   1.635  0.00  0.00    -0.342 N 
ATOM      6  H   UNL     1      -0.060   3.486   1.111  0.00  0.00    +0.167 HD
ATOM      7  C   UNL     1      -0.718   1.572   1.248  0.00  0.00    +0.033 A 
ATOM      8  C   UNL     1      -1.474   0.718   1.975  0.00  0.00    +0.094 A 
ATOM      9  C   UNL     1      -2.128   1.177   3.137  0.00  0.00    +0.275 A 
ATOM     10  O   UNL     1      -2.807   0.411   3.798  0.00  0.00    -0.266 OA
ATOM     11  N   UNL     1      -2.004   2.466   3.511  0.00  0.00    -0.179 N 
ATOM     12  N   UNL     1      -2.531   3.185   4.591  0.00  0.00    -0.166 NA
ENDROOT
BRANCH   3  13
ATOM     13  C   UNL     1      -0.624   5.798   2.931  0.00  0.00    -0.013 A 
ATOM     14  C   UNL     1       0.768   5.874   2.926  0.00  0.00    +0.009 A 
ATOM     15  C   UNL     1       1.392   7.028   2.498  0.00  0.00    +0.001 A 
ATOM     16  C   UNL     1       0.638   8.112   2.084  0.00  0.00    +0.000 A 
ATOM     17  C   UNL     1      -0.743   8.044   2.092  0.00  0.00    +0.001 A 
ATOM     18  C   UNL     1      -1.378   6.893   2.514  0.00  0.00    +0.009 A 
ENDBRANCH   3  13
BRANCH   7  19
ATOM     19  C   UNL     1      -0.013   1.086   0.008  0.00  0.00    +0.129 C 
BRANCH  19  20
ATOM     20  S   UNL     1      -0.890   1.687  -1.462  0.00  0.00    -0.091 S 
BRANCH  20  21
ATOM     21  C   UNL     1       0.045   1.043  -2.809  0.00  0.00    +0.160 A 
ATOM     22  N   UNL     1       1.132   0.296  -2.791  0.00  0.00    -0.133 NA
ATOM     23  N   UNL     1       1.708  -0.102  -3.975  0.00  0.00    -0.125 NA
ATOM     24  C   UNL     1       1.172   0.265  -5.122  0.00  0.00    +0.180 A 
ATOM     25  S   UNL     1      -0.230   1.221  -4.565  0.00  0.00    -0.025 S 
ATOM     26  N   UNL     1       1.584  -0.021  -6.419  0.00  0.00    -0.336 N 
ATOM     27  H   UNL     1       2.374  -0.564  -6.568  0.00  0.00    +0.144 HD
ATOM     28  H   UNL     1       1.082   0.323  -7.174  0.00  0.00    +0.144 HD
ENDBRANCH  20  21
ENDBRANCH  19  20
ENDBRANCH   7  19
TORSDOF 4
