REMARK  Name = ZINC62140026
REMARK  5 active torsions:
REMARK  status: ('A' for Active; 'I' for Inactive)
REMARK    1  A    between atoms: C_3  and  N_19
REMARK    2  A    between atoms: C_6  and  C_7
REMARK    3  A    between atoms: C_7  and  C_8
REMARK    4  A    between atoms: C_8  and  C_10
REMARK    5  A    between atoms: C_8  and  O_18
REMARK                            x       y       z     vdW  Elec       q    Type
REMARK                         _______ _______ _______ _____ _____    ______ ____
ROOT
ATOM      1  C   UNL     1      -1.744  -1.028  -1.429  0.00  0.00    +0.149 C 
ENDROOT
BRANCH   1   2
ATOM      2  C   UNL     1      -3.098  -1.691  -1.422  0.00  0.00    -0.016 A 
ATOM      3  C   UNL     1      -3.202  -3.048  -1.181  0.00  0.00    +0.026 A 
ATOM      4  C   UNL     1      -4.445  -3.656  -1.175  0.00  0.00    +0.043 A 
ATOM      5  C   UNL     1      -5.583  -2.906  -1.409  0.00  0.00    +0.040 A 
ATOM      6  C   UNL     1      -5.479  -1.548  -1.649  0.00  0.00    +0.043 A 
ATOM      7  C   UNL     1      -4.236  -0.940  -1.650  0.00  0.00    +0.026 A 
ATOM      8 CL   UNL     1      -6.907  -0.606  -1.943  0.00  0.00    -0.083 Cl
ATOM      9 CL   UNL     1      -4.575  -5.361  -0.874  0.00  0.00    -0.083 Cl
ENDBRANCH   1   2
BRANCH   1  10
ATOM     10  O   UNL     1      -0.801  -1.881  -2.082  0.00  0.00    -0.387 OA
ATOM     11  H   UNL     1      -0.694  -2.744  -1.660  0.00  0.00    +0.210 HD
ENDBRANCH   1  10
BRANCH   1  12
ATOM     12  C   UNL     1      -1.293  -0.775   0.010  0.00  0.00    +0.071 C 
BRANCH  12  18
ATOM     13  C   UNL     1      -0.017   1.378   0.010  0.00  0.00    +0.006 A 
ATOM     14  C   UNL     1       1.171   2.086   0.002  0.00  0.00    +0.033 A 
ATOM     15  C   UNL     1       2.377   1.411  -0.013  0.00  0.00    +0.126 A 
ATOM     16  C   UNL     1       2.396   0.029  -0.020  0.00  0.00    +0.033 A 
ATOM     17  C   UNL     1       1.208  -0.679  -0.012  0.00  0.00    +0.006 A 
ATOM     18  C   UNL     1       0.002  -0.004   0.002  0.00  0.00    -0.044 A 
BRANCH  15  19
ATOM     19  N   UNL     1       3.649   2.168  -0.022  0.00  0.00    +0.056 N 
ATOM     20  O   UNL     1       3.633   3.377  -0.016  0.00  0.00    -0.126 OA
ATOM     21  O   UNL     1       4.704   1.578  -0.035  0.00  0.00    -0.126 OA
ENDBRANCH  15  19
ENDBRANCH  12  18
ENDBRANCH   1  12
TORSDOF 5
