REMARK  Name = ZINC66909015
REMARK  10 active torsions:
REMARK  status: ('A' for Active; 'I' for Inactive)
REMARK    1  A    between atoms: C_1  and  C_2
REMARK    2  A    between atoms: N_5  and  C_8
REMARK    3  A    between atoms: C_8  and  C_10
REMARK    4  A    between atoms: C_8  and  C_26
REMARK    5  A    between atoms: C_10  and  N_11
REMARK    6  A    between atoms: N_14  and  N_15
REMARK    7  A    between atoms: C_16  and  C_18
REMARK    8  A    between atoms: C_18  and  C_19
REMARK    9  A    between atoms: C_26  and  C_27
REMARK   10  A    between atoms: C_26  and  C_28
REMARK                            x       y       z     vdW  Elec       q    Type
REMARK                         _______ _______ _______ _____ _____    ______ ____
ROOT
ATOM      1  N   UNL     1      -2.941  -3.970   0.395  0.00  0.00    -0.300 N 
ATOM      2  C   UNL     1      -4.232  -4.329   0.251  0.00  0.00    +0.316 C 
ATOM      3  O   UNL     1      -4.770  -5.017   1.097  0.00  0.00    -0.251 OA
ATOM      4  N   UNL     1      -4.927  -3.927  -0.832  0.00  0.00    -0.218 N 
ATOM      5  H   UNL     1      -2.512  -3.421  -0.280  0.00  0.00    +0.150 HD
ATOM      6  H   UNL     1      -5.856  -4.185  -0.935  0.00  0.00    +0.174 HD
ENDROOT
BRANCH   4   7
ATOM      7  N   UNL     1      -4.307  -3.134  -1.807  0.00  0.00    -0.233 N 
ATOM      8  C   UNL     1      -5.002  -2.732  -2.889  0.00  0.00    +0.234 C 
ATOM      9  O   UNL     1      -6.164  -3.055  -3.019  0.00  0.00    -0.274 OA
ATOM     10  H   UNL     1      -3.378  -2.876  -1.703  0.00  0.00    +0.173 HD
BRANCH   8  11
ATOM     11  C   UNL     1      -4.335  -1.879  -3.938  0.00  0.00    +0.135 C 
BRANCH  11  12
ATOM     12  C   UNL     1      -5.322  -1.569  -5.035  0.00  0.00    -0.003 A 
ATOM     13  C   UNL     1      -5.366  -2.358  -6.168  0.00  0.00    +0.007 A 
ATOM     14  C   UNL     1      -6.271  -2.074  -7.174  0.00  0.00    +0.000 A 
ATOM     15  C   UNL     1      -7.132  -1.000  -7.047  0.00  0.00    +0.003 A 
ATOM     16  C   UNL     1      -7.090  -0.209  -5.914  0.00  0.00    +0.038 A 
ATOM     17  C   UNL     1      -6.188  -0.497  -4.904  0.00  0.00    +0.127 A 
ATOM     18  F   UNL     1      -6.149   0.272  -3.794  0.00  0.00    -0.205 F 
ENDBRANCH  11  12
ENDBRANCH   8  11
ENDBRANCH   4   7
BRANCH   1  19
ATOM     19  C   UNL     1      -2.186  -4.408   1.571  0.00  0.00    +0.091 C 
BRANCH  19  20
ATOM     20  C   UNL     1      -0.822  -3.716   1.588  0.00  0.00    -0.048 C 
BRANCH  20  25
ATOM     21  C   UNL     1      -2.659   1.585   2.611  0.00  0.00    +0.007 C 
ATOM     22  C   UNL     1      -2.606   0.085   2.312  0.00  0.00    -0.018 C 
ATOM     23  C   UNL     1      -1.886  -0.639   3.454  0.00  0.00    -0.016 C 
ATOM     24  C   UNL     1      -1.766  -2.126   3.112  0.00  0.00    -0.078 C 
ATOM     25  N   UNL     1      -1.001  -2.286   1.870  0.00  0.00    +0.383 N 
ATOM     26  C   UNL     1      -1.721  -1.656   0.757  0.00  0.00    -0.078 C 
ATOM     27  C   UNL     1      -1.839  -0.151   1.008  0.00  0.00    -0.016 C 
ATOM     28  H   UNL     1      -0.097  -1.850   1.974  0.00  0.00    -0.081 HD
ENDBRANCH  20  25
BRANCH  20  29
ATOM     29  C   UNL     1       0.055  -4.344   2.673  0.00  0.00    -0.029 C 
ATOM     30  C   UNL     1       0.342  -5.804   2.316  0.00  0.00    +0.005 C 
ATOM     31  C   UNL     1       1.374  -3.575   2.772  0.00  0.00    +0.005 C 
ENDBRANCH  20  29
ENDBRANCH  19  20
ENDBRANCH   1  19
TORSDOF 7
