REMARK  Name = ZINC04359994
REMARK  3 active torsions:
REMARK  status: ('A' for Active; 'I' for Inactive)
REMARK    1  A    between atoms: C_1  and  C_2
REMARK    2  A    between atoms: C_5  and  N_8
REMARK    3  A    between atoms: C_10  and  N_15
REMARK                            x       y       z     vdW  Elec       q    Type
REMARK                         _______ _______ _______ _____ _____    ______ ____
ROOT
ATOM      1  N   UNL     1       0.054  -4.171  -0.017  0.00  0.00    -0.270 N 
ATOM      2  C   UNL     1      -0.060  -4.993  -1.227  0.00  0.00    +0.136 C 
ATOM      3  C   UNL     1       0.446  -6.397  -0.819  0.00  0.00    +0.101 C 
ATOM      4  C   UNL     1       0.169  -6.399   0.702  0.00  0.00    +0.120 C 
ATOM      5  C   UNL     1       0.175  -4.935   1.083  0.00  0.00    +0.222 C 
ATOM      6  O   UNL     1       0.274  -4.512   2.215  0.00  0.00    -0.275 OA
ENDROOT
BRANCH   3   7
ATOM      7  N   UNL     1      -0.324  -7.444  -1.494  0.00  0.00    -0.294 N 
ATOM      8  C   UNL     1       0.172  -8.694  -1.582  0.00  0.00    +0.307 C 
ATOM      9  O   UNL     1       1.214  -8.976  -1.024  0.00  0.00    -0.252 OA
ATOM     10  N   UNL     1      -0.488  -9.633  -2.290  0.00  0.00    -0.255 N 
ATOM     11  C   UNL     1      -1.691  -9.389  -3.091  0.00  0.00    +0.120 C 
ATOM     12  C   UNL     1      -2.056 -10.755  -3.695  0.00  0.00    +0.056 C 
ATOM     13  C   UNL     1      -0.997 -11.699  -3.172  0.00  0.00    -0.024 A 
ATOM     14  C   UNL     1      -0.122 -10.980  -2.372  0.00  0.00    +0.041 A 
ATOM     15  C   UNL     1       0.945 -11.646  -1.767  0.00  0.00    +0.024 A 
ATOM     16  C   UNL     1       1.130 -12.996  -1.974  0.00  0.00    +0.002 A 
ATOM     17  C   UNL     1       0.255 -13.703  -2.778  0.00  0.00    +0.000 A 
ATOM     18  C   UNL     1      -0.808 -13.052  -3.376  0.00  0.00    +0.005 A 
ATOM     19  H   UNL     1      -1.191  -7.238  -1.877  0.00  0.00    +0.151 HD
ENDBRANCH   3   7
BRANCH   1  24
ATOM     20  C   UNL     1      -0.028   1.501   0.020  0.00  0.00    +0.044 C 
ATOM     21  C   UNL     1      -0.006  -0.006   0.010  0.00  0.00    -0.050 A 
ATOM     22  C   UNL     1      -0.001  -0.688  -1.192  0.00  0.00    +0.005 A 
ATOM     23  C   UNL     1       0.025  -2.069  -1.205  0.00  0.00    +0.024 A 
ATOM     24  C   UNL     1       0.035  -2.772  -0.007  0.00  0.00    +0.036 A 
ATOM     25  C   UNL     1       0.024  -2.084   1.199  0.00  0.00    +0.024 A 
ATOM     26  C   UNL     1       0.004  -0.703   1.204  0.00  0.00    +0.005 A 
ENDBRANCH   1  24
TORSDOF 2
