REMARK  Name = ZINC36848356
REMARK  5 active torsions:
REMARK  status: ('A' for Active; 'I' for Inactive)
REMARK    1  A    between atoms: C_1  and  C_2
REMARK    2  A    between atoms: C_2  and  C_22
REMARK    3  A    between atoms: N_5  and  C_9
REMARK    4  A    between atoms: C_9  and  C_10
REMARK    5  A    between atoms: C_25  and  C_28
REMARK                            x       y       z     vdW  Elec       q    Type
REMARK                         _______ _______ _______ _____ _____    ______ ____
ROOT
ATOM      1  C   UNL     1      -0.006   1.537   0.026  0.00  0.00    +0.047 C 
ATOM      2  C   UNL     1      -0.001   0.007  -0.012  0.00  0.00    +0.135 C 
ATOM      3  C   UNL     1       0.816  -0.495  -1.186  0.00  0.00    +0.251 C 
ATOM      4  O   UNL     1       0.607  -0.292  -2.363  0.00  0.00    -0.272 OA
ATOM      5  N   UNL     1       1.822  -1.214  -0.650  0.00  0.00    -0.215 N 
ATOM      6  C   UNL     1       1.755  -1.235   0.686  0.00  0.00    +0.310 C 
ATOM      7  O   UNL     1       2.553  -1.819   1.393  0.00  0.00    -0.252 OA
ATOM      8  N   UNL     1       0.707  -0.538   1.160  0.00  0.00    -0.281 N 
ATOM      9  H   UNL     1       0.464  -0.417   2.091  0.00  0.00    +0.152 HD
ENDROOT
BRANCH   2  10
ATOM     10  C   UNL     1      -1.410  -0.524  -0.075  0.00  0.00    -0.015 A 
ATOM     11  C   UNL     1      -2.003  -0.757  -1.303  0.00  0.00    +0.007 A 
ATOM     12  C   UNL     1      -3.292  -1.244  -1.369  0.00  0.00    +0.019 A 
ATOM     13  C   UNL     1      -3.998  -1.502  -0.192  0.00  0.00    +0.052 A 
ATOM     14  C   UNL     1      -3.393  -1.265   1.044  0.00  0.00    +0.019 A 
ATOM     15  C   UNL     1      -2.101  -0.783   1.095  0.00  0.00    +0.007 A 
BRANCH  13  16
ATOM     16  C   UNL     1      -5.337  -2.007  -0.252  0.00  0.00    +0.099 C 
ATOM     17  N   UNL     1      -6.399  -2.407  -0.300  0.00  0.00    -0.191 NA
ENDBRANCH  13  16
ENDBRANCH   2  10
BRANCH   5  18
ATOM     18  C   UNL     1       2.860  -1.888  -1.433  0.00  0.00    +0.214 C 
BRANCH  18  19
ATOM     19  C   UNL     1       4.020  -0.950  -1.644  0.00  0.00    +0.238 C 
ATOM     20  O   UNL     1       3.947   0.199  -1.264  0.00  0.00    -0.274 OA
ATOM     21  N   UNL     1       5.139  -1.388  -2.254  0.00  0.00    -0.270 N 
ATOM     22  C   UNL     1       5.208  -2.752  -2.796  0.00  0.00    +0.114 C 
ATOM     23  C   UNL     1       6.562  -3.349  -2.390  0.00  0.00    +0.024 C 
ATOM     24  C   UNL     1       7.678  -2.529  -3.038  0.00  0.00    +0.038 C 
ATOM     25  C   UNL     1       7.488  -1.063  -2.754  0.00  0.00    -0.026 A 
ATOM     26  C   UNL     1       6.253  -0.548  -2.388  0.00  0.00    +0.039 A 
ATOM     27  C   UNL     1       6.109   0.812  -2.143  0.00  0.00    +0.024 A 
ATOM     28  C   UNL     1       7.195   1.656  -2.267  0.00  0.00    +0.002 A 
ATOM     29  C   UNL     1       8.426   1.145  -2.635  0.00  0.00    +0.000 A 
ATOM     30  C   UNL     1       8.575  -0.212  -2.869  0.00  0.00    +0.005 A 
ENDBRANCH  18  19
ENDBRANCH   5  18
TORSDOF 4
