REMARK  Name = ZINC07404694
REMARK  5 active torsions:
REMARK  status: ('A' for Active; 'I' for Inactive)
REMARK    1  A    between atoms: C_1  and  C_2
REMARK    2  A    between atoms: C_3  and  S_8
REMARK    3  A    between atoms: C_4  and  C_7
REMARK    4  A    between atoms: S_8  and  N_11
REMARK    5  A    between atoms: C_20  and  C_22
REMARK                            x       y       z     vdW  Elec       q    Type
REMARK                         _______ _______ _______ _____ _____    ______ ____
ROOT
ATOM      1  N   UNL     1      -2.539   4.140   0.322  0.00  0.00    -0.200 N 
ATOM      2  C   UNL     1      -1.225   3.704   0.528  0.00  0.00    +0.055 A 
ATOM      3  C   UNL     1      -0.966   2.338   0.582  0.00  0.00    +0.025 A 
ATOM      4  C   UNL     1       0.323   1.887   0.786  0.00  0.00    +0.002 A 
ATOM      5  C   UNL     1       1.357   2.795   0.925  0.00  0.00    +0.000 A 
ATOM      6  C   UNL     1       1.102   4.151   0.868  0.00  0.00    +0.005 A 
ATOM      7  C   UNL     1      -0.189   4.612   0.671  0.00  0.00    -0.025 A 
ATOM      8  C   UNL     1      -0.432   6.098   0.624  0.00  0.00    +0.039 C 
ATOM      9  C   UNL     1      -1.754   6.401  -0.082  0.00  0.00    +0.029 C 
ATOM     10  C   UNL     1      -2.862   5.554   0.557  0.00  0.00    +0.095 C 
ATOM     11  C   UNL     1      -2.923   5.829   2.061  0.00  0.00    +0.030 C 
ENDROOT
BRANCH   1  12
ATOM     12  S   UNL     1      -3.709   3.080  -0.177  0.00  0.00    +0.080 S 
ATOM     13  O   UNL     1      -4.767   3.865  -0.711  0.00  0.00    -0.150 OA
ATOM     14  O   UNL     1      -3.050   2.074  -0.934  0.00  0.00    -0.150 OA
BRANCH  12  17
ATOM     15  C   UNL     1      -3.033   0.033   1.186  0.00  0.00    +0.071 C 
ATOM     16  C   UNL     1      -4.016   1.013   1.773  0.00  0.00    +0.107 A 
ATOM     17  C   UNL     1      -4.345   2.290   1.263  0.00  0.00    +0.173 A 
ATOM     18  C   UNL     1      -5.267   2.763   2.136  0.00  0.00    +0.161 A 
ATOM     19  O   UNL     1      -5.431   1.812   3.067  0.00  0.00    -0.358 OA
ATOM     20  N   UNL     1      -4.728   0.852   2.851  0.00  0.00    -0.081 NA
ATOM     21  C   UNL     1      -5.970   4.094   2.072  0.00  0.00    +0.091 C 
ENDBRANCH  12  17
ENDBRANCH   1  12
TORSDOF 2
