REMARK  Name = ZINC64541447
REMARK  6 active torsions:
REMARK  status: ('A' for Active; 'I' for Inactive)
REMARK    1  A    between atoms: C_1  and  O_2
REMARK    2  A    between atoms: O_2  and  C_3
REMARK    3  A    between atoms: C_6  and  C_9
REMARK    4  A    between atoms: C_9  and  C_10
REMARK    5  A    between atoms: C_10  and  C_11
REMARK    6  A    between atoms: C_19  and  C_21
REMARK                            x       y       z     vdW  Elec       q    Type
REMARK                         _______ _______ _______ _____ _____    ______ ____
ROOT
ATOM      1  C   UNL     1      -6.776  -3.568  -1.395  0.00  0.00    +0.216 C 
ATOM      2  O   UNL     1      -7.305  -3.851  -0.342  0.00  0.00    -0.276 OA
ATOM      3  N   UNL     1      -7.381  -3.880  -2.559  0.00  0.00    -0.298 N 
ATOM      4  C   UNL     1      -6.749  -3.548  -3.843  0.00  0.00    +0.126 C 
ATOM      5  C   UNL     1      -6.628  -4.830  -4.676  0.00  0.00    +0.127 C 
ATOM      6  N   UNL     1      -7.931  -5.510  -4.683  0.00  0.00    -0.297 N 
ATOM      7  C   UNL     1      -8.563  -5.842  -3.398  0.00  0.00    +0.127 C 
ATOM      8  C   UNL     1      -8.681  -4.565  -2.565  0.00  0.00    +0.126 C 
ATOM      9  C   UNL     1      -8.536  -5.823  -5.846  0.00  0.00    +0.242 C 
ATOM     10  O   UNL     1      -8.005  -5.543  -6.900  0.00  0.00    -0.273 OA
ENDROOT
BRANCH   9  11
ATOM     11  C   UNL     1      -9.872  -6.520  -5.837  0.00  0.00    +0.190 C 
ATOM     12  C   UNL     1     -10.912  -5.645  -5.174  0.00  0.00    +0.016 C 
ATOM     13  C   UNL     1     -11.857  -5.409  -6.113  0.00  0.00    -0.002 A 
ATOM     14  C   UNL     1     -13.107  -4.640  -6.094  0.00  0.00    +0.029 A 
ATOM     15  C   UNL     1     -13.861  -4.586  -7.216  0.00  0.00    +0.042 A 
ATOM     16  C   UNL     1     -13.479  -5.246  -8.393  0.00  0.00    +0.022 A 
ATOM     17  C   UNL     1     -12.345  -5.972  -8.487  0.00  0.00    +0.027 A 
ATOM     18  C   UNL     1     -11.477  -6.096  -7.368  0.00  0.00    +0.043 A 
ATOM     19  N   UNL     1     -10.340  -6.734  -7.211  0.00  0.00    -0.370 N 
ATOM     20 CL   UNL     1     -15.341  -3.677  -7.197  0.00  0.00    -0.084 Cl
ATOM     21  H   UNL     1      -9.886  -7.258  -7.889  0.00  0.00    +0.161 HD
ENDBRANCH   9  11
BRANCH   1  22
ATOM     22  C   UNL     1      -5.443  -2.865  -1.405  0.00  0.00    +0.100 C 
BRANCH  22  23
ATOM     23  C   UNL     1      -4.981  -2.629   0.035  0.00  0.00    +0.044 C 
BRANCH  23  27
ATOM     24  C   UNL     1      -1.200  -0.637   0.010  0.00  0.00    +0.120 A 
ATOM     25  C   UNL     1      -2.375   0.101   0.019  0.00  0.00    +0.046 A 
ATOM     26  C   UNL     1      -3.596  -0.545   0.027  0.00  0.00    +0.007 A 
ATOM     27  C   UNL     1      -3.648  -1.927   0.026  0.00  0.00    -0.047 A 
ATOM     28  C   UNL     1      -2.479  -2.665   0.017  0.00  0.00    +0.007 A 
ATOM     29  C   UNL     1      -1.255  -2.024   0.003  0.00  0.00    +0.046 A 
BRANCH  24  31
ATOM     30  C   UNL     1      -0.017   1.425   0.010  0.00  0.00    +0.277 C 
ATOM     31  O   UNL     1       0.002  -0.004   0.002  0.00  0.00    -0.495 OA
ENDBRANCH  24  31
ENDBRANCH  23  27
ENDBRANCH  22  23
ENDBRANCH   1  22
TORSDOF 5
