REMARK  Name = ZINC03516536
REMARK  5 active torsions:
REMARK  status: ('A' for Active; 'I' for Inactive)
REMARK    1  A    between atoms: C_1  and  N_2
REMARK    2  A    between atoms: C_6  and  C_8
REMARK    3  A    between atoms: C_8  and  S_9
REMARK    4  A    between atoms: S_9  and  C_10
REMARK    5  A    between atoms: N_23  and  C_24
REMARK                            x       y       z     vdW  Elec       q    Type
REMARK                         _______ _______ _______ _____ _____    ______ ____
ROOT
ATOM      1  C   UNL     1      -1.776   7.803  -0.531  0.00  0.00    +0.173 A 
ATOM      2  N   UNL     1      -1.785   6.954  -1.550  0.00  0.00    -0.216 NA
ATOM      3  C   UNL     1      -1.622   5.667  -1.270  0.00  0.00    +0.117 A 
ATOM      4  C   UNL     1      -1.442   5.159   0.037  0.00  0.00    +0.076 A 
ATOM      5  C   UNL     1      -1.279   3.719   0.147  0.00  0.00    -0.023 A 
ATOM      6  C   UNL     1      -1.316   3.014  -1.007  0.00  0.00    -0.004 A 
ATOM      7  S   UNL     1      -1.568   4.222  -2.283  0.00  0.00    -0.073 S 
ATOM      8  C   UNL     1      -1.176   1.532  -1.169  0.00  0.00    +0.043 C 
ATOM      9  C   UNL     1      -0.613   0.950   0.136  0.00  0.00    +0.005 C 
ATOM     10  C   UNL     1      -1.403   1.526   1.315  0.00  0.00    +0.005 C 
ATOM     11  C   UNL     1      -1.076   3.010   1.483  0.00  0.00    +0.037 C 
ATOM     12  C   UNL     1      -1.437   6.106   1.112  0.00  0.00    +0.263 A 
ATOM     13  O   UNL     1      -1.287   5.766   2.273  0.00  0.00    -0.267 OA
ATOM     14  N   UNL     1      -1.608   7.402   0.759  0.00  0.00    -0.284 N 
ENDROOT
BRANCH  14  15
ATOM     15  C   UNL     1      -1.613   8.419   1.814  0.00  0.00    +0.093 C 
ATOM     16  C   UNL     1      -0.265   8.411   2.562  0.00  0.00    +0.025 C 
ATOM     17  C   UNL     1      -0.648   8.687   4.038  0.00  0.00    +0.002 C 
ATOM     18  C   UNL     1      -1.970   7.897   4.202  0.00  0.00    +0.002 C 
ATOM     19  C   UNL     1      -2.698   8.093   2.856  0.00  0.00    +0.025 C 
ENDBRANCH  14  15
BRANCH   1  20
ATOM     20  S   UNL     1      -1.990   9.520  -0.861  0.00  0.00    -0.078 S 
BRANCH  20  21
ATOM     21  C   UNL     1      -2.161   9.475  -2.663  0.00  0.00    +0.173 C 
BRANCH  21  27
ATOM     22  C   UNL     1      -3.035  13.912  -6.800  0.00  0.00    +0.129 C 
ATOM     23  N   UNL     1      -2.842  12.551  -6.294  0.00  0.00    -0.302 N 
ATOM     24  C   UNL     1      -2.690  12.339  -4.971  0.00  0.00    +0.306 C 
ATOM     25  O   UNL     1      -2.715  13.277  -4.199  0.00  0.00    -0.252 OA
ATOM     26  N   UNL     1      -2.512  11.087  -4.506  0.00  0.00    -0.240 N 
ATOM     27  C   UNL     1      -2.361  10.875  -3.183  0.00  0.00    +0.231 C 
ATOM     28  O   UNL     1      -2.385  11.811  -2.413  0.00  0.00    -0.274 OA
ATOM     29  H   UNL     1      -2.822  11.803  -6.910  0.00  0.00    +0.150 HD
ATOM     30  H   UNL     1      -2.493  10.339  -5.122  0.00  0.00    +0.159 HD
ENDBRANCH  21  27
ENDBRANCH  20  21
ENDBRANCH   1  20
TORSDOF 4
