REMARK  Name = ZINC62325641
REMARK  2 active torsions:
REMARK  status: ('A' for Active; 'I' for Inactive)
REMARK    1  A    between atoms: C_5  and  C_7
REMARK    2  A    between atoms: C_7  and  N_8
REMARK                            x       y       z     vdW  Elec       q    Type
REMARK                         _______ _______ _______ _____ _____    ______ ____
ROOT
ATOM      1  N   UNL     1       1.488  -2.679   1.333  0.00  0.00    -0.312 N 
ATOM      2  C   UNL     1       1.552  -4.032   1.572  0.00  0.00    +0.205 C 
ATOM      3  N   UNL     1       1.380  -4.820   0.561  0.00  0.00    -0.097 NA
ATOM      4  S   UNL     1       1.428  -6.467   0.748  0.00  0.00    +0.103 S 
ATOM      5  O   UNL     1       0.240  -6.981   0.161  0.00  0.00    -0.146 OA
ATOM      6  O   UNL     1       2.724  -6.888   0.345  0.00  0.00    -0.146 OA
ATOM      7  C   UNL     1       1.307  -6.761   2.482  0.00  0.00    +0.134 A 
ATOM      8  C   UNL     1       1.027  -8.018   2.968  0.00  0.00    +0.031 A 
ATOM      9  C   UNL     1       0.935  -8.224   4.334  0.00  0.00    +0.002 A 
ATOM     10  C   UNL     1       1.123  -7.168   5.207  0.00  0.00    +0.002 A 
ATOM     11  C   UNL     1       1.405  -5.905   4.723  0.00  0.00    +0.025 A 
ATOM     12  C   UNL     1       1.500  -5.693   3.353  0.00  0.00    +0.061 A 
ATOM     13  N   UNL     1       1.796  -4.427   2.852  0.00  0.00    -0.285 N 
ATOM     14  H   UNL     1       1.614  -2.051   2.062  0.00  0.00    +0.149 HD
ATOM     15  H   UNL     1       2.199  -3.783   3.455  0.00  0.00    +0.155 HD
ENDROOT
BRANCH   1  16
ATOM     16  C   UNL     1       1.228  -2.186  -0.022  0.00  0.00    +0.142 C 
BRANCH  16  21
ATOM     17  C   UNL     1      -0.017   1.378   0.010  0.00  0.00    +0.000 A 
ATOM     18  C   UNL     1       1.171   2.087   0.002  0.00  0.00    +0.003 A 
ATOM     19  C   UNL     1       2.377   1.414  -0.013  0.00  0.00    +0.038 A 
ATOM     20  C   UNL     1       2.397   0.029  -0.021  0.00  0.00    +0.128 A 
ATOM     21  C   UNL     1       1.208  -0.679  -0.013  0.00  0.00    +0.005 A 
ATOM     22  C   UNL     1       0.002  -0.004   0.002  0.00  0.00    +0.008 A 
ATOM     23  F   UNL     1       3.577  -0.630  -0.036  0.00  0.00    -0.205 F 
ENDBRANCH  16  21
ENDBRANCH   1  16
TORSDOF 2
