REMARK  Name = ZINC39697710
REMARK  8 active torsions:
REMARK  status: ('A' for Active; 'I' for Inactive)
REMARK    1  A    between atoms: C_1  and  C_2
REMARK    2  A    between atoms: C_8  and  C_14
REMARK    3  A    between atoms: C_14  and  N_15
REMARK    4  A    between atoms: N_15  and  C_16
REMARK    5  A    between atoms: C_16  and  C_17
REMARK    6  A    between atoms: C_22  and  O_23
REMARK    7  A    between atoms: O_23  and  C_24
REMARK    8  A    between atoms: N_27  and  C_28
REMARK                            x       y       z     vdW  Elec       q    Type
REMARK                         _______ _______ _______ _____ _____    ______ ____
ROOT
ATOM      1  N   UNL     1       1.820  -1.909   5.986  0.00  0.00    -0.280 N 
ATOM      2  C   UNL     1       2.218  -0.633   6.154  0.00  0.00    +0.307 C 
ATOM      3  O   UNL     1       3.165  -0.203   5.523  0.00  0.00    -0.252 OA
ATOM      4  N   UNL     1       1.567   0.168   7.020  0.00  0.00    -0.269 N 
ATOM      5  H   UNL     1       0.861  -0.194   7.579  0.00  0.00    +0.156 HD
ENDROOT
BRANCH   4   6
ATOM      6  C   UNL     1       1.907   1.522   7.114  0.00  0.00    +0.035 A 
ATOM      7  C   UNL     1       2.300   2.221   5.979  0.00  0.00    +0.023 A 
ATOM      8  C   UNL     1       2.635   3.557   6.075  0.00  0.00    +0.002 A 
ATOM      9  C   UNL     1       2.581   4.199   7.298  0.00  0.00    +0.000 A 
ATOM     10  C   UNL     1       2.191   3.506   8.429  0.00  0.00    +0.002 A 
ATOM     11  C   UNL     1       1.849   2.171   8.340  0.00  0.00    +0.023 A 
ENDBRANCH   4   6
BRANCH   1  12
ATOM     12  C   UNL     1       2.460  -2.749   4.970  0.00  0.00    +0.126 C 
BRANCH  12  20
ATOM     13  C   UNL     1       2.820   0.083  -0.463  0.00  0.00    +0.045 C 
ATOM     14  C   UNL     1       2.949  -1.370  -0.085  0.00  0.00    -0.029 A 
ATOM     15  C   UNL     1       3.494  -2.249  -0.966  0.00  0.00    +0.005 A 
ATOM     16  C   UNL     1       3.643  -3.607  -0.679  0.00  0.00    +0.001 A 
ATOM     17  C   UNL     1       3.246  -4.126   0.511  0.00  0.00    +0.009 A 
ATOM     18  C   UNL     1       2.651  -3.234   1.506  0.00  0.00    -0.007 A 
ATOM     19  C   UNL     1       2.237  -3.711   2.715  0.00  0.00    -0.003 C 
ATOM     20  C   UNL     1       1.632  -2.716   3.685  0.00  0.00    +0.116 C 
ATOM     21  C   UNL     1       1.535  -1.276   3.233  0.00  0.00    +0.226 C 
ATOM     22  O   UNL     1       1.058  -0.435   3.971  0.00  0.00    -0.275 OA
ATOM     23  N   UNL     1       1.972  -0.934   2.033  0.00  0.00    -0.284 N 
ATOM     24  C   UNL     1       2.510  -1.805   1.179  0.00  0.00    +0.043 A 
ATOM     25  H   UNL     1       1.901  -0.005   1.762  0.00  0.00    +0.155 HD
ENDBRANCH  12  20
ENDBRANCH   1  12
BRANCH   1  26
ATOM     26  C   UNL     1       0.747  -2.458   6.819  0.00  0.00    +0.148 C 
BRANCH  26  27
ATOM     27  C   UNL     1      -0.569  -2.318   6.099  0.00  0.00    +0.012 A 
ATOM     28  C   UNL     1      -1.344  -1.190   6.287  0.00  0.00    +0.009 A 
ATOM     29  C   UNL     1      -2.552  -1.061   5.627  0.00  0.00    +0.001 A 
ATOM     30  C   UNL     1      -2.988  -2.061   4.777  0.00  0.00    +0.004 A 
ATOM     31  C   UNL     1      -2.217  -3.191   4.586  0.00  0.00    +0.046 A 
ATOM     32  C   UNL     1      -1.002  -3.320   5.243  0.00  0.00    +0.125 A 
BRANCH  32  33
ATOM     33  O   UNL     1      -0.239  -4.428   5.051  0.00  0.00    -0.495 OA
ATOM     34  C   UNL     1      -0.747  -5.419   4.155  0.00  0.00    +0.277 C 
ENDBRANCH  32  33
ENDBRANCH  26  27
ENDBRANCH   1  26
TORSDOF 6
