REMARK  Name = ZINC64952039
REMARK  5 active torsions:
REMARK  status: ('A' for Active; 'I' for Inactive)
REMARK    1  A    between atoms: C_1  and  C_2
REMARK    2  A    between atoms: C_3  and  N_9
REMARK    3  A    between atoms: N_9  and  S_10
REMARK    4  A    between atoms: S_10  and  C_13
REMARK    5  A    between atoms: C_24  and  C_26
REMARK                            x       y       z     vdW  Elec       q    Type
REMARK                         _______ _______ _______ _____ _____    ______ ____
ROOT
ATOM      1  C   UNL     1      -2.462  -0.671  -3.458  0.00  0.00    +0.110 A 
ATOM      2  C   UNL     1      -3.045  -1.765  -2.845  0.00  0.00    +0.030 A 
ATOM      3  C   UNL     1      -4.407  -1.774  -2.595  0.00  0.00    +0.018 A 
ATOM      4  C   UNL     1      -5.171  -0.687  -2.978  0.00  0.00    +0.029 A 
ATOM      5  C   UNL     1      -4.601   0.400  -3.624  0.00  0.00    +0.051 A 
ATOM      6  C   UNL     1      -3.228   0.415  -3.841  0.00  0.00    +0.053 A 
ATOM      7  N   UNL     1      -5.392   1.452  -4.107  0.00  0.00    -0.270 N 
ATOM      8  C   UNL     1      -6.231   1.210  -5.290  0.00  0.00    +0.114 C 
ATOM      9  C   UNL     1      -7.602   0.723  -4.905  0.00  0.00    +0.030 C 
ATOM     10  C   UNL     1      -7.652  -0.667  -4.290  0.00  0.00    +0.076 C 
ATOM     11  S   UNL     1      -6.912  -0.640  -2.630  0.00  0.00    -0.123 S 
ATOM     12  C   UNL     1      -5.385   2.656  -3.501  0.00  0.00    +0.217 C 
ATOM     13  O   UNL     1      -6.075   3.556  -3.931  0.00  0.00    -0.276 OA
ATOM     14  C   UNL     1      -4.519   2.884  -2.289  0.00  0.00    +0.109 C 
ENDROOT
BRANCH   1  15
ATOM     15  S   UNL     1      -0.724  -0.657  -3.748  0.00  0.00    +0.072 S 
ATOM     16  O   UNL     1      -0.499   0.246  -4.822  0.00  0.00    -0.150 OA
ATOM     17  O   UNL     1      -0.310  -2.016  -3.795  0.00  0.00    -0.150 OA
BRANCH  15  18
ATOM     18  N   UNL     1      -0.010   0.010  -2.411  0.00  0.00    -0.216 N 
ATOM     19  H   UNL     1       0.516   0.820  -2.496  0.00  0.00    +0.174 HD
BRANCH  18  22
ATOM     20  C   UNL     1      -0.206   1.688  -0.123  0.00  0.00    +0.047 C 
ATOM     21  C   UNL     1      -0.265   0.186  -0.018  0.00  0.00    -0.010 A 
ATOM     22  C   UNL     1      -0.165  -0.595  -1.162  0.00  0.00    +0.052 A 
ATOM     23  C   UNL     1      -0.219  -1.980  -1.061  0.00  0.00    +0.025 A 
ATOM     24  C   UNL     1      -0.372  -2.575   0.176  0.00  0.00    +0.003 A 
ATOM     25  C   UNL     1      -0.472  -1.796   1.313  0.00  0.00    +0.020 A 
ATOM     26  C   UNL     1      -0.412  -0.416   1.217  0.00  0.00    +0.046 A 
ATOM     27 CL   UNL     1      -0.530   0.559   2.649  0.00  0.00    -0.083 Cl
ENDBRANCH  18  22
ENDBRANCH  15  18
ENDBRANCH   1  15
TORSDOF 3
