REMARK  Name = ZINC40135465
REMARK  9 active torsions:
REMARK  status: ('A' for Active; 'I' for Inactive)
REMARK    1  A    between atoms: C_1  and  C_2
REMARK    2  A    between atoms: C_2  and  O_3
REMARK    3  A    between atoms: O_3  and  C_4
REMARK    4  A    between atoms: C_4  and  C_6
REMARK    5  A    between atoms: C_9  and  S_12
REMARK    6  A    between atoms: S_12  and  N_15
REMARK    7  A    between atoms: C_18  and  N_21
REMARK    8  A    between atoms: C_23  and  C_30
REMARK    9  A    between atoms: C_26  and  C_29
REMARK                            x       y       z     vdW  Elec       q    Type
REMARK                         _______ _______ _______ _____ _____    ______ ____
ROOT
ATOM      1  N   UNL     1       5.138  -4.206  -5.797  0.00  0.00    -0.177 NA
ATOM      2  C   UNL     1       6.087  -3.109  -6.028  0.00  0.00    +0.108 C 
ATOM      3  C   UNL     1       7.257  -3.637  -6.864  0.00  0.00    +0.002 C 
ATOM      4  C   UNL     1       7.864  -4.858  -6.170  0.00  0.00    -0.066 C 
ATOM      5  C   UNL     1       6.810  -5.963  -6.061  0.00  0.00    +0.002 C 
ATOM      6  C   UNL     1       5.635  -5.458  -5.211  0.00  0.00    +0.108 C 
ENDROOT
BRANCH   4   7
ATOM      7  N   UNL     1       9.008  -5.348  -6.952  0.00  0.00    +0.382 N 
ATOM      8  C   UNL     1      10.015  -4.286  -7.061  0.00  0.00    -0.075 C 
ATOM      9  C   UNL     1      11.171  -4.763  -7.943  0.00  0.00    -0.031 C 
ATOM     10  C   UNL     1      11.805  -6.007  -7.314  0.00  0.00    +0.003 C 
ATOM     11  C   UNL     1      10.729  -7.082  -7.137  0.00  0.00    -0.031 C 
ATOM     12  C   UNL     1       9.589  -6.519  -6.285  0.00  0.00    -0.075 C 
ATOM     13  C   UNL     1      11.335  -8.301  -6.439  0.00  0.00    +0.005 C 
ATOM     14  C   UNL     1      10.642  -5.106  -9.337  0.00  0.00    +0.005 C 
ATOM     15  H   UNL     1       8.695  -5.609  -7.875  0.00  0.00    -0.081 HD
ENDBRANCH   4   7
BRANCH   1  16
ATOM     16  S   UNL     1       3.537  -4.031  -6.182  0.00  0.00    +0.061 S 
ATOM     17  O   UNL     1       3.021  -5.341  -6.376  0.00  0.00    -0.153 OA
ATOM     18  O   UNL     1       3.468  -3.028  -7.186  0.00  0.00    -0.153 OA
BRANCH  16  22
ATOM     19  C   UNL     1       1.455  -2.347  -2.526  0.00  0.00    +0.059 A 
ATOM     20  C   UNL     1       1.994  -1.487  -3.485  0.00  0.00    +0.017 A 
ATOM     21  C   UNL     1       2.626  -2.006  -4.595  0.00  0.00    +0.029 A 
ATOM     22  C   UNL     1       2.727  -3.376  -4.761  0.00  0.00    +0.106 A 
ATOM     23  C   UNL     1       2.195  -4.234  -3.815  0.00  0.00    +0.029 A 
ATOM     24  C   UNL     1       1.565  -3.729  -2.696  0.00  0.00    +0.017 A 
BRANCH  19  25
ATOM     25  C   UNL     1       0.776  -1.798  -1.335  0.00  0.00    +0.339 C 
ATOM     26  O   UNL     1       0.312  -2.549  -0.500  0.00  0.00    -0.245 OA
BRANCH  25  27
ATOM     27  O   UNL     1       0.671  -0.465  -1.174  0.00  0.00    -0.461 OA
BRANCH  27  29
ATOM     28  C   UNL     1      -0.019   1.526   0.010  0.00  0.00    +0.048 C 
ATOM     29  C   UNL     1       0.002  -0.004   0.002  0.00  0.00    +0.229 C 
ENDBRANCH  27  29
ENDBRANCH  25  27
ENDBRANCH  19  25
ENDBRANCH  16  22
ENDBRANCH   1  16
TORSDOF 6
