REMARK  Name = ZINC20580924
REMARK  4 active torsions:
REMARK  status: ('A' for Active; 'I' for Inactive)
REMARK    1  A    between atoms: C_3  and  O_9
REMARK    2  A    between atoms: O_9  and  C_10
REMARK    3  A    between atoms: C_10  and  C_11
REMARK    4  A    between atoms: C_13  and  N_21
REMARK                            x       y       z     vdW  Elec       q    Type
REMARK                         _______ _______ _______ _____ _____    ______ ____
ROOT
ATOM      1  C   UNL     1      -2.718   1.493   2.417  0.00  0.00    +0.033 A 
ATOM      2  C   UNL     1      -4.089   1.340   2.460  0.00  0.00    +0.033 A 
ATOM      3  C   UNL     1      -4.795   1.080   1.293  0.00  0.00    +0.025 A 
ATOM      4  C   UNL     1      -4.120   0.975   0.085  0.00  0.00    +0.032 A 
ATOM      5  C   UNL     1      -2.748   1.129   0.043  0.00  0.00    +0.022 A 
ATOM      6  C   UNL     1      -2.044   1.390   1.208  0.00  0.00    +0.135 A 
ATOM      7  O   UNL     1      -0.689   1.550   1.180  0.00  0.00    -0.465 OA
ATOM      8  C   UNL     1      -0.013   1.086   0.008  0.00  0.00    +0.394 C 
ATOM      9  O   UNL     1      -0.712   1.564  -1.147  0.00  0.00    -0.339 OA
ATOM     10  C   UNL     1      -2.025   1.010  -1.276  0.00  0.00    +0.202 C 
ENDROOT
BRANCH   3  11
ATOM     11  N   UNL     1      -6.185   0.925   1.335  0.00  0.00    -0.358 N 
ATOM     12  H   UNL     1      -6.744   0.720   0.410  0.00  0.00    +0.142 HD
ATOM     13  H   UNL     1      -6.719   1.009   2.293  0.00  0.00    +0.142 HD
ENDBRANCH   3  11
BRANCH   1  14
ATOM     14  C   UNL     1      -1.951   1.774   3.684  0.00  0.00    +0.268 C 
BRANCH  14  15
ATOM     15  O   UNL     1      -2.859   1.835   4.786  0.00  0.00    -0.486 OA
BRANCH  15  18
ATOM     16  C   UNL     1      -0.417   2.516   7.396  0.00  0.00    +0.005 A 
ATOM     17  C   UNL     1      -0.958   2.264   6.150  0.00  0.00    +0.047 A 
ATOM     18  C   UNL     1      -2.326   2.083   6.011  0.00  0.00    +0.141 A 
ATOM     19  C   UNL     1      -3.150   2.161   7.125  0.00  0.00    +0.101 A 
ATOM     20  C   UNL     1      -2.604   2.409   8.372  0.00  0.00    +0.063 A 
ATOM     21  C   UNL     1      -1.238   2.588   8.506  0.00  0.00    +0.022 A 
ATOM     22 CL   UNL     1      -3.632   2.500   9.767  0.00  0.00    -0.082 Cl
ATOM     23 CL   UNL     1      -4.864   1.942   6.955  0.00  0.00    -0.078 Cl
ENDBRANCH  15  18
ENDBRANCH  14  15
ENDBRANCH   1  14
TORSDOF 4
