REMARK  Name = ZINC06483997
REMARK  4 active torsions:
REMARK  status: ('A' for Active; 'I' for Inactive)
REMARK    1  A    between atoms: C_1  and  C_2
REMARK    2  A    between atoms: C_8  and  C_14
REMARK    3  A    between atoms: C_11  and  C_13
REMARK    4  A    between atoms: C_19  and  O_20
REMARK                            x       y       z     vdW  Elec       q    Type
REMARK                         _______ _______ _______ _____ _____    ______ ____
ROOT
ATOM      1  C   UNL     1       0.998   9.115   0.863  0.00  0.00    +0.071 C 
ATOM      2  C   UNL     1       0.850   7.703   1.367  0.00  0.00    +0.106 A 
ATOM      3  C   UNL     1       0.755   6.515   0.575  0.00  0.00    +0.128 A 
ATOM      4  C   UNL     1       0.616   5.528   1.498  0.00  0.00    +0.163 A 
ATOM      5  O   UNL     1       0.664   6.123   2.703  0.00  0.00    -0.357 OA
ATOM      6  N   UNL     1       0.783   7.321   2.606  0.00  0.00    -0.081 NA
ATOM      7  C   UNL     1       0.439   4.062   1.257  0.00  0.00    +0.088 C 
ATOM      8  C   UNL     1       1.149   3.593   0.010  0.00  0.00    +0.035 C 
ATOM      9  C   UNL     1       0.497   4.074  -1.260  0.00  0.00    +0.059 C 
ATOM     10  C   UNL     1       0.747   5.502  -1.571  0.00  0.00    +0.017 C 
ATOM     11  N   UNL     1       0.827   6.470  -0.774  0.00  0.00    -0.251 NA
ATOM     12  C   UNL     1       0.930   5.835  -3.030  0.00  0.00    +0.061 C 
ENDROOT
BRANCH   8  13
ATOM     13  C   UNL     1       1.170   2.086   0.002  0.00  0.00    -0.002 A 
ATOM     14  C   UNL     1      -0.017   1.378   0.010  0.00  0.00    +0.007 A 
ATOM     15  C   UNL     1       0.002  -0.004   0.002  0.00  0.00    +0.001 A 
ATOM     16  C   UNL     1       1.208  -0.681  -0.013  0.00  0.00    +0.004 A 
ATOM     17  C   UNL     1       2.396   0.022  -0.021  0.00  0.00    +0.046 A 
ATOM     18  C   UNL     1       2.380   1.409  -0.014  0.00  0.00    +0.120 A 
BRANCH  18  19
ATOM     19  O   UNL     1       3.548   2.104  -0.021  0.00  0.00    -0.506 OA
ATOM     20  H   UNL     1       3.878   2.309  -0.907  0.00  0.00    +0.292 HD
ENDBRANCH  18  19
ENDBRANCH   8  13
TORSDOF 2
