REMARK  Name = ZINC15938355
REMARK  4 active torsions:
REMARK  status: ('A' for Active; 'I' for Inactive)
REMARK    1  A    between atoms: C_1  and  C_2
REMARK    2  A    between atoms: C_7  and  C_22
REMARK    3  A    between atoms: C_10  and  C_12
REMARK    4  A    between atoms: C_16  and  N_18
REMARK                            x       y       z     vdW  Elec       q    Type
REMARK                         _______ _______ _______ _____ _____    ______ ____
ROOT
ATOM      1  C   UNL     1      -0.927   1.862   0.226  0.00  0.00    +0.028 C 
ATOM      2  C   UNL     1      -1.362   0.850   1.288  0.00  0.00    +0.074 C 
ATOM      3  C   UNL     1      -2.611   1.367   2.009  0.00  0.00    +0.022 C 
ATOM      4  C   UNL     1      -2.959   0.421   3.161  0.00  0.00    +0.004 C 
ATOM      5  C   UNL     1      -1.803   0.388   4.163  0.00  0.00    +0.022 C 
ATOM      6  C   UNL     1      -0.544  -0.140   3.467  0.00  0.00    +0.074 C 
ATOM      7  N   UNL     1      -0.284   0.675   2.272  0.00  0.00    -0.292 N 
ATOM      8  C   UNL     1       0.918   1.253   2.083  0.00  0.00    +0.247 C 
ATOM      9  O   UNL     1       1.060   2.091   1.213  0.00  0.00    -0.270 OA
ATOM     10  C   UNL     1       0.647  -0.049   4.423  0.00  0.00    +0.028 C 
ENDROOT
BRANCH   8  11
ATOM     11  C   UNL     1       2.064   0.870   2.933  0.00  0.00    +0.039 A 
ATOM     12  C   UNL     1       2.609  -0.412   2.839  0.00  0.00    +0.014 A 
ATOM     13  C   UNL     1       3.678  -0.764   3.635  0.00  0.00    +0.023 A 
ATOM     14  C   UNL     1       4.212   0.151   4.527  0.00  0.00    +0.071 A 
ATOM     15  C   UNL     1       3.676   1.424   4.625  0.00  0.00    +0.145 A 
ATOM     16  C   UNL     1       2.611   1.790   3.830  0.00  0.00    +0.047 A 
ATOM     17 CL   UNL     1       5.559  -0.299   5.526  0.00  0.00    -0.081 Cl
BRANCH  15  18
ATOM     18  N   UNL     1       4.252   2.397   5.581  0.00  0.00    +0.058 N 
ATOM     19  O   UNL     1       3.785   3.508   5.668  0.00  0.00    -0.126 OA
ATOM     20  O   UNL     1       5.190   2.079   6.275  0.00  0.00    -0.126 OA
ENDBRANCH  15  18
ENDBRANCH   8  11
TORSDOF 2
