REMARK  Name = ZINC38079251
REMARK  4 active torsions:
REMARK  status: ('A' for Active; 'I' for Inactive)
REMARK    1  A    between atoms: C_3  and  S_8
REMARK    2  A    between atoms: C_6  and  O_7
REMARK    3  A    between atoms: S_8  and  C_9
REMARK    4  A    between atoms: C_14  and  N_15
REMARK                            x       y       z     vdW  Elec       q    Type
REMARK                         _______ _______ _______ _____ _____    ______ ____
ROOT
ATOM      1  C   UNL     1       5.134   1.066   0.107  0.00  0.00    +0.045 A 
ATOM      2  C   UNL     1       4.758  -0.277   0.076  0.00  0.00    +0.018 A 
ATOM      3  C   UNL     1       5.727  -1.256   0.179  0.00  0.00    +0.018 A 
ATOM      4  C   UNL     1       7.046  -0.893   0.309  0.00  0.00    +0.041 A 
ATOM      5  C   UNL     1       7.463   0.456   0.344  0.00  0.00    +0.109 A 
ATOM      6  C   UNL     1       6.455   1.436   0.233  0.00  0.00    +0.166 A 
ATOM      7  N   UNL     1       8.798   0.601   0.478  0.00  0.00    -0.245 NA
ATOM      8  C   UNL     1       9.601  -0.419   0.564  0.00  0.00    +0.157 A 
ATOM      9  S   UNL     1       8.587  -1.759   0.468  0.00  0.00    -0.075 S 
ENDROOT
BRANCH   6  10
ATOM     10  N   UNL     1       6.819   2.872   0.255  0.00  0.00    +0.060 N 
ATOM     11  O   UNL     1       6.865   3.467   1.307  0.00  0.00    -0.126 OA
ATOM     12  O   UNL     1       7.068   3.448  -0.777  0.00  0.00    -0.126 OA
ENDBRANCH   6  10
BRANCH   1  13
ATOM     13  S   UNL     1       3.896   2.313  -0.023  0.00  0.00    -0.087 S 
BRANCH  13  16
ATOM     14  C   UNL     1       0.609   0.351   1.211  0.00  0.00    +0.046 A 
ATOM     15  C   UNL     1       1.796   1.056   1.201  0.00  0.00    +0.018 A 
ATOM     16  C   UNL     1       2.381   1.413  -0.008  0.00  0.00    +0.013 A 
ATOM     17  C   UNL     1       1.770   1.060  -1.205  0.00  0.00    +0.018 A 
ATOM     18  C   UNL     1       0.583   0.355  -1.192  0.00  0.00    +0.046 A 
ATOM     19  C   UNL     1       0.000  -0.001   0.016  0.00  0.00    +0.117 A 
BRANCH  19  20
ATOM     20  O   UNL     1      -1.169  -0.696   0.027  0.00  0.00    -0.507 OA
ATOM     21  H   UNL     1      -1.958  -0.137   0.037  0.00  0.00    +0.292 HD
ENDBRANCH  19  20
ENDBRANCH  13  16
ENDBRANCH   1  13
TORSDOF 4
