REMARK  Name = ZINC39316129
REMARK  3 active torsions:
REMARK  status: ('A' for Active; 'I' for Inactive)
REMARK    1  A    between atoms: C_1  and  C_2
REMARK    2  A    between atoms: C_5  and  C_8
REMARK    3  A    between atoms: C_10  and  C_20
REMARK                            x       y       z     vdW  Elec       q    Type
REMARK                         _______ _______ _______ _____ _____    ______ ____
ROOT
ATOM      1  C   UNL     1       0.067  -4.426  -0.119  0.00  0.00    +0.143 C 
ATOM      2  C   UNL     1       1.364  -4.728   0.606  0.00  0.00    +0.066 C 
ATOM      3  C   UNL     1       1.272  -5.409   1.800  0.00  0.00    +0.007 A 
ATOM      4  C   UNL     1       2.469  -5.745   2.572  0.00  0.00    +0.010 A 
ATOM      5  C   UNL     1       2.327  -6.416   3.740  0.00  0.00    +0.001 A 
ATOM      6  C   UNL     1       1.064  -6.792   4.220  0.00  0.00    +0.002 A 
ATOM      7  C   UNL     1      -0.084  -6.515   3.558  0.00  0.00    +0.024 A 
ATOM      8  C   UNL     1      -0.050  -5.817   2.329  0.00  0.00    +0.041 A 
ATOM      9  N   UNL     1      -1.174  -5.549   1.687  0.00  0.00    -0.284 N 
ATOM     10  C   UNL     1      -1.216  -4.897   0.529  0.00  0.00    +0.229 C 
ATOM     11  O   UNL     1      -2.284  -4.681  -0.009  0.00  0.00    -0.274 OA
ATOM     12  H   UNL     1      -2.011  -5.842   2.081  0.00  0.00    +0.155 HD
ENDROOT
BRANCH   1  17
ATOM     13  C   UNL     1      -0.296   1.301  -0.804  0.00  0.00    +0.044 C 
ATOM     14  C   UNL     1      -0.202  -0.193  -0.625  0.00  0.00    -0.050 A 
ATOM     15  C   UNL     1      -0.114  -1.017  -1.731  0.00  0.00    +0.003 A 
ATOM     16  C   UNL     1      -0.026  -2.387  -1.568  0.00  0.00    +0.005 A 
ATOM     17  C   UNL     1      -0.027  -2.933  -0.298  0.00  0.00    -0.031 A 
ATOM     18  C   UNL     1      -0.115  -2.108   0.809  0.00  0.00    +0.005 A 
ATOM     19  C   UNL     1      -0.197  -0.738   0.645  0.00  0.00    +0.003 A 
ENDBRANCH   1  17
BRANCH   2  20
ATOM     20  C   UNL     1       2.669  -4.310   0.056  0.00  0.00    +0.384 C 
ATOM     21  O   UNL     1       3.610  -4.101   0.808  0.00  0.00    -0.241 OA
ATOM     22  O   UNL     1       2.808  -4.172  -1.151  0.00  0.00    -0.241 OA
ENDBRANCH   2  20
TORSDOF 2
