REMARK  Name = ZINC51842483
REMARK  9 active torsions:
REMARK  status: ('A' for Active; 'I' for Inactive)
REMARK    1  A    between atoms: C_1  and  C_2
REMARK    2  A    between atoms: C_2  and  C_3
REMARK    3  A    between atoms: C_3  and  C_4
REMARK    4  A    between atoms: C_4  and  C_6
REMARK    5  A    between atoms: C_4  and  N_7
REMARK    6  A    between atoms: C_8  and  C_10
REMARK    7  A    between atoms: C_17  and  C_19
REMARK    8  A    between atoms: N_21  and  C_22
REMARK    9  A    between atoms: C_23  and  C_27
REMARK                            x       y       z     vdW  Elec       q    Type
REMARK                         _______ _______ _______ _____ _____    ______ ____
ROOT
ATOM      1  C   UNL     1       2.084  -3.864  -1.785  0.00  0.00    +0.092 C 
ATOM      2  C   UNL     1       1.441  -5.093  -2.432  0.00  0.00    +0.016 C 
ATOM      3  C   UNL     1       2.245  -5.500  -3.668  0.00  0.00    +0.020 C 
ATOM      4  C   UNL     1       3.672  -5.866  -3.247  0.00  0.00    +0.108 C 
ATOM      5  N   UNL     1       4.247  -4.741  -2.497  0.00  0.00    -0.293 N 
ATOM      6  C   UNL     1       3.509  -4.210  -1.343  0.00  0.00    +0.121 C 
ATOM      7  C   UNL     1       5.429  -4.206  -2.862  0.00  0.00    +0.302 C 
ATOM      8  O   UNL     1       5.819  -3.183  -2.338  0.00  0.00    -0.265 OA
ENDROOT
BRANCH   1  10
ATOM      9  N   UNL     1       1.654  -2.377   0.145  0.00  0.00    -0.312 N 
ATOM     10  C   UNL     1       1.273  -3.444  -0.586  0.00  0.00    +0.218 C 
ATOM     11  O   UNL     1       0.278  -4.065  -0.279  0.00  0.00    -0.275 OA
ATOM     12  H   UNL     1       2.450  -1.880  -0.101  0.00  0.00    +0.149 HD
BRANCH   9  13
ATOM     13  C   UNL     1       0.866  -1.969   1.310  0.00  0.00    +0.070 C 
ATOM     14  C   UNL     1       1.305  -2.779   2.532  0.00  0.00    +0.028 C 
BRANCH  13  15
ATOM     15  C   UNL     1       1.088  -0.480   1.580  0.00  0.00    +0.022 C 
BRANCH  15  17
ATOM     16  C   UNL     1       0.756   1.827   0.680  0.00  0.00    +0.004 C 
ATOM     17  C   UNL     1       0.534   0.338   0.410  0.00  0.00    -0.002 C 
ENDBRANCH  15  17
ENDBRANCH  13  15
ENDBRANCH   9  13
ENDBRANCH   1  10
BRANCH   7  18
ATOM     18  C   UNL     1       6.259  -4.871  -3.909  0.00  0.00    +0.304 C 
ATOM     19  O   UNL     1       5.931  -5.956  -4.345  0.00  0.00    -0.265 OA
ATOM     20  N   UNL     1       7.371  -4.268  -4.372  0.00  0.00    -0.272 N 
ATOM     21  H   UNL     1       7.633  -3.401  -4.024  0.00  0.00    +0.156 HD
BRANCH  20  22
ATOM     22  C   UNL     1       8.141  -4.885  -5.343  0.00  0.00    +0.084 A 
ATOM     23  C   UNL     1       9.310  -4.420  -5.928  0.00  0.00    +0.065 A 
ATOM     24  C   UNL     1       9.916  -5.271  -6.925  0.00  0.00    +0.022 A 
ATOM     25  C   UNL     1       9.275  -6.428  -7.177  0.00  0.00    +0.048 A 
ATOM     26  S   UNL     1       7.877  -6.370  -6.078  0.00  0.00    -0.081 S 
BRANCH  23  27
ATOM     27  C   UNL     1       9.900  -3.131  -5.553  0.00  0.00    +0.244 C 
ATOM     28  O   UNL     1       9.363  -2.438  -4.708  0.00  0.00    -0.270 OA
ATOM     29  N   UNL     1      11.038  -2.713  -6.143  0.00  0.00    -0.325 N 
ATOM     30  H   UNL     1      11.466  -3.265  -6.816  0.00  0.00    +0.145 HD
ATOM     31  H   UNL     1      11.428  -1.860  -5.895  0.00  0.00    +0.145 HD
ENDBRANCH  23  27
ENDBRANCH  20  22
ENDBRANCH   7  18
TORSDOF 7
