REMARK  Name = ZINC08964116
REMARK  8 active torsions:
REMARK  status: ('A' for Active; 'I' for Inactive)
REMARK    1  A    between atoms: C_1  and  C_2
REMARK    2  A    between atoms: C_5  and  N_9
REMARK    3  A    between atoms: C_10  and  C_12
REMARK    4  A    between atoms: N_14  and  C_15
REMARK    5  A    between atoms: C_15  and  C_16
REMARK    6  A    between atoms: C_16  and  C_18
REMARK    7  A    between atoms: C_16  and  N_60
REMARK    8  A    between atoms: N_26  and  C_27
REMARK                            x       y       z     vdW  Elec       q    Type
REMARK                         _______ _______ _______ _____ _____    ______ ____
ROOT
ATOM      1  C   UNL     1      -4.710   6.210  -1.081  0.00  0.00    +0.094 C 
ENDROOT
BRANCH   1   4
ATOM      2  C   UNL     1      -6.704   5.027  -1.831  0.00  0.00    +0.299 C 
ATOM      3  O   UNL     1      -7.372   5.954  -1.423  0.00  0.00    -0.265 OA
ATOM      4  N   UNL     1      -5.362   5.057  -1.707  0.00  0.00    -0.309 N 
ATOM      5  H   UNL     1      -4.828   4.316  -2.033  0.00  0.00    +0.149 HD
BRANCH   2   7
ATOM      6  N   UNL     1      -8.710   3.821  -2.593  0.00  0.00    -0.278 N 
ATOM      7  C   UNL     1      -7.368   3.852  -2.470  0.00  0.00    +0.303 C 
ATOM      8  O   UNL     1      -6.700   2.924  -2.877  0.00  0.00    -0.265 OA
ATOM      9  H   UNL     1      -9.249   4.528  -2.205  0.00  0.00    +0.155 HD
BRANCH   6  14
ATOM     10  C   UNL     1     -11.209  -0.437  -5.386  0.00  0.00    +0.047 C 
ATOM     11  C   UNL     1     -10.545   0.694  -4.644  0.00  0.00    -0.015 A 
ATOM     12  C   UNL     1     -11.066   1.972  -4.723  0.00  0.00    +0.008 A 
ATOM     13  C   UNL     1     -10.463   3.010  -4.041  0.00  0.00    +0.024 A 
ATOM     14  C   UNL     1      -9.325   2.772  -3.281  0.00  0.00    +0.037 A 
ATOM     15  C   UNL     1      -8.802   1.488  -3.201  0.00  0.00    +0.062 A 
ATOM     16  C   UNL     1      -9.413   0.451  -3.883  0.00  0.00    +0.128 A 
ATOM     17  F   UNL     1      -8.906  -0.799  -3.807  0.00  0.00    -0.205 F 
ENDBRANCH   6  14
ENDBRANCH   2   7
ENDBRANCH   1   4
BRANCH   1  18
ATOM     18  C   UNL     1      -3.191   6.044  -1.163  0.00  0.00    -0.020 C 
BRANCH  18  19
ATOM     19  C   UNL     1      -2.773   4.842  -0.356  0.00  0.00    -0.059 A 
ATOM     20  C   UNL     1      -2.654   4.938   1.019  0.00  0.00    +0.004 A 
ATOM     21  C   UNL     1      -2.274   3.839   1.762  0.00  0.00    +0.023 A 
ATOM     22  C   UNL     1      -2.010   2.624   1.132  0.00  0.00    +0.033 A 
ATOM     23  C   UNL     1      -2.128   2.540  -0.250  0.00  0.00    -0.025 A 
ATOM     24  C   UNL     1      -2.509   3.640  -0.988  0.00  0.00    +0.007 A 
ATOM     25  C   UNL     1      -1.776   1.125  -0.663  0.00  0.00    +0.056 C 
ATOM     26  C   UNL     1      -1.061   0.569   0.589  0.00  0.00    +0.109 C 
ATOM     27  N   UNL     1      -1.625   1.392   1.681  0.00  0.00    -0.332 N 
ATOM     28  C   UNL     1      -0.648   1.573   2.762  0.00  0.00    +0.129 C 
ENDBRANCH  18  19
BRANCH  18  33
ATOM     29  C   UNL     1      -1.059   7.115  -0.678  0.00  0.00    -0.078 C 
ATOM     30  C   UNL     1      -0.571   8.583  -0.596  0.00  0.00    -0.020 C 
ATOM     31  C   UNL     1      -1.624   9.345  -1.432  0.00  0.00    -0.020 C 
ATOM     32  C   UNL     1      -2.866   8.436  -1.440  0.00  0.00    -0.078 C 
ATOM     33  N   UNL     1      -2.522   7.268  -0.628  0.00  0.00    +0.385 N 
ATOM     34  H   UNL     1      -2.821   7.419   0.342  0.00  0.00    -0.081 HD
ENDBRANCH  18  33
ENDBRANCH   1  18
TORSDOF 6
