REMARK  Name = ZINC67376865
REMARK  8 active torsions:
REMARK  status: ('A' for Active; 'I' for Inactive)
REMARK    1  A    between atoms: C_1  and  C_2
REMARK    2  A    between atoms: C_2  and  C_3
REMARK    3  A    between atoms: C_3  and  N_4
REMARK    4  A    between atoms: N_4  and  C_5
REMARK    5  A    between atoms: N_4  and  C_19
REMARK    6  A    between atoms: C_5  and  C_6
REMARK    7  A    between atoms: C_8  and  C_11
REMARK    8  A    between atoms: C_11  and  C_12
REMARK                            x       y       z     vdW  Elec       q    Type
REMARK                         _______ _______ _______ _____ _____    ______ ____
ROOT
ATOM      1  C   UNL     1      -2.622  -2.637  -0.113  0.00  0.00    +0.022 C 
ENDROOT
BRANCH   1   2
ATOM      2  C   UNL     1      -3.140  -2.333  -1.495  0.00  0.00    +0.211 A 
ATOM      3  N   UNL     1      -2.930  -3.050  -2.564  0.00  0.00    -0.197 NA
ATOM      4  C   UNL     1      -3.536  -2.490  -3.618  0.00  0.00    +0.176 A 
ATOM      5  N   UNL     1      -4.141  -1.405  -3.229  0.00  0.00    -0.061 NA
ATOM      6  O   UNL     1      -3.900  -1.284  -1.835  0.00  0.00    -0.340 OA
BRANCH   4   7
ATOM      7  C   UNL     1      -3.519  -3.028  -5.025  0.00  0.00    +0.115 C 
BRANCH   7   8
ATOM      8  C   UNL     1      -4.687  -3.960  -5.221  0.00  0.00    -0.039 A 
ATOM      9  C   UNL     1      -4.548  -5.308  -4.945  0.00  0.00    +0.004 A 
ATOM     10  C   UNL     1      -5.619  -6.164  -5.124  0.00  0.00    +0.002 A 
ATOM     11  C   UNL     1      -6.828  -5.673  -5.579  0.00  0.00    +0.020 A 
ATOM     12  C   UNL     1      -6.967  -4.324  -5.855  0.00  0.00    +0.041 A 
ATOM     13  C   UNL     1      -5.897  -3.467  -5.670  0.00  0.00    +0.024 A 
ATOM     14 CL   UNL     1      -8.486  -3.707  -6.426  0.00  0.00    -0.084 Cl
ENDBRANCH   7   8
ENDBRANCH   4   7
ENDBRANCH   1   2
BRANCH   1  15
ATOM     15  N   UNL     1      -1.313  -1.996   0.072  0.00  0.00    +0.389 N 
ATOM     16  H   UNL     1      -0.689  -2.289  -0.665  0.00  0.00    -0.081 HD
BRANCH  15  17
ATOM     17  C   UNL     1      -0.754  -2.390   1.372  0.00  0.00    -0.045 C 
ATOM     18  C   UNL     1      -0.500  -3.907   1.381  0.00  0.00    +0.009 C 
ATOM     19  C   UNL     1       0.370  -4.245   2.625  0.00  0.00    +0.164 C 
ATOM     20  S   UNL     1       1.551  -2.831   2.605  0.00  0.00    -0.033 S 
ATOM     21  O   UNL     1       2.708  -3.206   1.870  0.00  0.00    -0.174 OA
ATOM     22  O   UNL     1       1.695  -2.330   3.926  0.00  0.00    -0.174 OA
ATOM     23  C   UNL     1       0.575  -1.633   1.610  0.00  0.00    +0.151 C 
ENDBRANCH  15  17
BRANCH  15  24
ATOM     24  C   UNL     1      -1.472  -0.537   0.029  0.00  0.00    -0.078 C 
BRANCH  24  26
ATOM     25  C   UNL     1      -2.408   1.445   1.227  0.00  0.00    +0.002 C 
ATOM     26  C   UNL     1      -2.336  -0.083   1.207  0.00  0.00    -0.022 C 
ENDBRANCH  24  26
ENDBRANCH  15  24
ENDBRANCH   1  15
TORSDOF 7
