REMARK  Name = ZINC33666723
REMARK  8 active torsions:
REMARK  status: ('A' for Active; 'I' for Inactive)
REMARK    1  A    between atoms: C_1  and  C_2
REMARK    2  A    between atoms: C_5  and  C_8
REMARK    3  A    between atoms: C_8  and  C_9
REMARK    4  A    between atoms: C_10  and  C_32
REMARK    5  A    between atoms: C_12  and  C_31
REMARK    6  A    between atoms: C_14  and  N_15
REMARK    7  A    between atoms: N_19  and  S_22
REMARK    8  A    between atoms: S_22  and  C_25
REMARK                            x       y       z     vdW  Elec       q    Type
REMARK                         _______ _______ _______ _____ _____    ______ ____
ROOT
ATOM      1  C   UNL     1      -0.758   3.225   2.554  0.00  0.00    +0.016 A 
ATOM      2  C   UNL     1      -1.498   2.939   1.424  0.00  0.00    +0.021 A 
ATOM      3  N   UNL     1      -2.048   1.739   1.297  0.00  0.00    -0.347 N 
ATOM      4  C   UNL     1      -1.888   0.818   2.226  0.00  0.00    +0.106 A 
ATOM      5  N   UNL     1      -1.190   1.048   3.320  0.00  0.00    -0.219 NA
ATOM      6  C   UNL     1      -0.614   2.229   3.522  0.00  0.00    +0.128 A 
ATOM      7  C   UNL     1      -2.526  -0.534   2.035  0.00  0.00    +0.086 C 
ATOM      8  C   UNL     1      -1.685   3.980   0.350  0.00  0.00    +0.064 C 
ATOM      9  H   UNL     1      -2.647   1.500   0.406  0.00  0.00    +0.167 HD
ENDROOT
BRANCH   6  10
ATOM     10  N   UNL     1       0.119   2.467   4.673  0.00  0.00    -0.314 N 
ATOM     11  C   UNL     1       0.850   1.270   5.086  0.00  0.00    +0.108 C 
ATOM     12  C   UNL     1       2.179   1.681   5.680  0.00  0.00    +0.036 C 
ATOM     13  C   UNL     1       2.036   1.843   7.202  0.00  0.00    +0.111 C 
ATOM     14  N   UNL     1       0.756   2.486   7.556  0.00  0.00    -0.175 NA
ATOM     15  C   UNL     1       0.217   3.607   6.814  0.00  0.00    +0.128 C 
ATOM     16  C   UNL     1      -0.678   3.088   5.662  0.00  0.00    +0.123 C 
BRANCH  14  17
ATOM     17  S   UNL     1      -0.098   1.904   8.850  0.00  0.00    +0.061 S 
ATOM     18  O   UNL     1       0.840   1.250   9.694  0.00  0.00    -0.153 OA
ATOM     19  O   UNL     1      -0.921   2.969   9.306  0.00  0.00    -0.153 OA
BRANCH  17  20
ATOM     20  C   UNL     1      -1.181   0.655   8.240  0.00  0.00    +0.105 A 
ATOM     21  C   UNL     1      -2.455   0.991   7.820  0.00  0.00    +0.028 A 
ATOM     22  C   UNL     1      -3.304   0.012   7.337  0.00  0.00    +0.002 A 
ATOM     23  C   UNL     1      -2.882  -1.304   7.284  0.00  0.00    +0.000 A 
ATOM     24  C   UNL     1      -1.611  -1.640   7.710  0.00  0.00    +0.002 A 
ATOM     25  C   UNL     1      -0.760  -0.660   8.188  0.00  0.00    +0.028 A 
ENDBRANCH  17  20
ENDBRANCH  14  17
ENDBRANCH   6  10
BRANCH   1  26
ATOM     26  C   UNL     1      -0.124   4.580   2.739  0.00  0.00    +0.075 C 
BRANCH  26  31
ATOM     27  C   UNL     1       4.988   4.695   0.047  0.00  0.00    +0.044 C 
ATOM     28  C   UNL     1       3.655   4.665   0.749  0.00  0.00    -0.050 A 
ATOM     29  C   UNL     1       2.528   5.151   0.113  0.00  0.00    +0.003 A 
ATOM     30  C   UNL     1       1.305   5.123   0.757  0.00  0.00    +0.004 A 
ATOM     31  C   UNL     1       1.210   4.609   2.037  0.00  0.00    -0.043 A 
ATOM     32  C   UNL     1       2.338   4.128   2.675  0.00  0.00    +0.004 A 
ATOM     33  C   UNL     1       3.560   4.152   2.029  0.00  0.00    +0.003 A 
ENDBRANCH  26  31
ENDBRANCH   1  26
TORSDOF 5
