REMARK  Name = ZINC63866047
REMARK  7 active torsions:
REMARK  status: ('A' for Active; 'I' for Inactive)
REMARK    1  A    between atoms: C_1  and  C_2
REMARK    2  A    between atoms: N_10  and  C_14
REMARK    3  A    between atoms: C_14  and  C_15
REMARK    4  A    between atoms: N_17  and  C_18
REMARK    5  A    between atoms: C_18  and  C_19
REMARK    6  A    between atoms: C_19  and  C_20
REMARK    7  A    between atoms: C_24  and  O_26
REMARK                            x       y       z     vdW  Elec       q    Type
REMARK                         _______ _______ _______ _____ _____    ______ ____
ROOT
ATOM      1  C   UNL     1       0.900   1.505   4.348  0.00  0.00    +0.213 C 
ENDROOT
BRANCH   1  11
ATOM      2  C   UNL     1      -0.019   1.526   0.010  0.00  0.00    +0.010 C 
ATOM      3  C   UNL     1       0.002  -0.004   0.002  0.00  0.00    +0.018 C 
ATOM      4  C   UNL     1      -1.434  -0.533   0.010  0.00  0.00    +0.006 C 
ATOM      5  C   UNL     1      -1.413  -2.063   0.022  0.00  0.00    +0.000 C 
ATOM      6  C   UNL     1      -0.692  -2.554   1.280  0.00  0.00    +0.003 C 
ATOM      7  C   UNL     1       0.748  -2.033   1.277  0.00  0.00    +0.035 C 
ATOM      8  C   UNL     1       0.740  -0.509   1.237  0.00  0.00    +0.115 C 
ATOM      9  C   UNL     1       0.109   0.049   2.493  0.00  0.00    +0.247 C 
ATOM     10  O   UNL     1      -1.026  -0.123   2.883  0.00  0.00    -0.273 OA
ATOM     11  N   UNL     1       1.076   0.778   3.088  0.00  0.00    -0.215 N 
ATOM     12  C   UNL     1       2.215   0.755   2.385  0.00  0.00    +0.310 C 
ATOM     13  O   UNL     1       3.227   1.337   2.720  0.00  0.00    -0.252 OA
ATOM     14  N   UNL     1       2.112   0.013   1.266  0.00  0.00    -0.285 N 
ATOM     15  H   UNL     1       2.807  -0.145   0.608  0.00  0.00    +0.151 HD
ENDBRANCH   1  11
BRANCH   1  16
ATOM     16  C   UNL     1       1.262   0.606   5.502  0.00  0.00    +0.231 C 
ATOM     17  O   UNL     1       1.630  -0.530   5.293  0.00  0.00    -0.274 OA
ATOM     18  N   UNL     1       1.176   1.065   6.766  0.00  0.00    -0.314 N 
ATOM     19  H   UNL     1       0.882   1.974   6.933  0.00  0.00    +0.149 HD
BRANCH  18  20
ATOM     20  C   UNL     1       1.528   0.191   7.888  0.00  0.00    +0.109 C 
BRANCH  20  21
ATOM     21  C   UNL     1       1.345   0.951   9.203  0.00  0.00    +0.054 C 
BRANCH  21  22
ATOM     22  C   UNL     1       1.706   0.051  10.357  0.00  0.00    -0.042 A 
ATOM     23  C   UNL     1       0.739  -0.744  10.943  0.00  0.00    +0.004 A 
ATOM     24  C   UNL     1       1.067  -1.569  12.002  0.00  0.00    +0.004 A 
ATOM     25  C   UNL     1       2.364  -1.602  12.478  0.00  0.00    +0.045 A 
ATOM     26  C   UNL     1       3.337  -0.805  11.892  0.00  0.00    +0.117 A 
ATOM     27  C   UNL     1       3.006   0.018  10.825  0.00  0.00    +0.049 A 
BRANCH  26  28
ATOM     28  O   UNL     1       4.613  -0.836  12.358  0.00  0.00    -0.507 OA
ATOM     29  H   UNL     1       5.173  -1.495  11.926  0.00  0.00    +0.292 HD
ENDBRANCH  26  28
ENDBRANCH  21  22
ENDBRANCH  20  21
ENDBRANCH  18  20
ENDBRANCH   1  16
TORSDOF 6
