REMARK  Name = ZINC57259094
REMARK  6 active torsions:
REMARK  status: ('A' for Active; 'I' for Inactive)
REMARK    1  A    between atoms: C_1  and  N_2
REMARK    2  A    between atoms: N_2  and  S_3
REMARK    3  A    between atoms: S_3  and  C_6
REMARK    4  A    between atoms: C_8  and  C_12
REMARK    5  A    between atoms: N_9  and  C_11
REMARK    6  A    between atoms: C_22  and  C_24
REMARK                            x       y       z     vdW  Elec       q    Type
REMARK                         _______ _______ _______ _____ _____    ______ ____
ROOT
ATOM      1  C   UNL     1      -0.821   1.707   5.587  0.00  0.00    +0.264 C 
ATOM      2  O   UNL     1      -0.040   2.632   5.706  0.00  0.00    -0.268 OA
ATOM      3  N   UNL     1      -1.564   1.313   6.641  0.00  0.00    -0.282 N 
ATOM      4  C   UNL     1      -2.546   0.226   6.511  0.00  0.00    +0.130 C 
ATOM      5  C   UNL     1      -2.120  -0.948   7.399  0.00  0.00    +0.140 C 
ATOM      6  N   UNL     1      -1.744  -0.441   8.723  0.00  0.00    -0.347 N 
ATOM      7  C   UNL     1      -1.654  -1.156   9.877  0.00  0.00    +0.086 A 
ATOM      8  C   UNL     1      -1.270  -0.319  10.864  0.00  0.00    +0.019 A 
ATOM      9  C   UNL     1      -1.119   0.963  10.297  0.00  0.00    +0.025 A 
ATOM     10  C   UNL     1      -1.418   0.861   8.993  0.00  0.00    +0.044 A 
ATOM     11  C   UNL     1      -1.413   1.957   7.959  0.00  0.00    +0.153 C 
ENDROOT
BRANCH   1  14
ATOM     12  C   UNL     1      -1.319  -0.531   2.732  0.00  0.00    +0.123 A 
ATOM     13  C   UNL     1      -1.317  -0.297   4.111  0.00  0.00    +0.061 A 
ATOM     14  C   UNL     1      -0.954   1.019   4.298  0.00  0.00    +0.106 A 
ATOM     15  N   UNL     1      -0.740   1.572   3.056  0.00  0.00    -0.344 N 
ATOM     16  C   UNL     1      -0.958   0.620   2.115  0.00  0.00    +0.114 A 
ATOM     17  C   UNL     1      -0.337   2.955   2.794  0.00  0.00    +0.149 C 
BRANCH  12  18
ATOM     18  S   UNL     1      -1.712  -2.054   1.938  0.00  0.00    +0.060 S 
ATOM     19  O   UNL     1      -2.124  -1.729   0.618  0.00  0.00    -0.153 OA
ATOM     20  O   UNL     1      -2.538  -2.779   2.838  0.00  0.00    -0.153 OA
BRANCH  18  22
ATOM     21  C   UNL     1       0.398  -3.374   2.996  0.00  0.00    +0.127 C 
ATOM     22  N   UNL     1      -0.301  -2.910   1.796  0.00  0.00    -0.193 NA
ATOM     23  H   UNL     1       0.062  -3.104   0.917  0.00  0.00    +0.148 HD
ENDBRANCH  18  22
ENDBRANCH  12  18
ENDBRANCH   1  14
BRANCH  11  24
ATOM     24  C   UNL     1      -0.110   2.711   8.017  0.00  0.00    -0.021 A 
ATOM     25  C   UNL     1       1.084   2.046   7.809  0.00  0.00    +0.006 A 
ATOM     26  C   UNL     1       2.280   2.738   7.862  0.00  0.00    +0.000 A 
ATOM     27  C   UNL     1       2.281   4.095   8.122  0.00  0.00    +0.000 A 
ATOM     28  C   UNL     1       1.088   4.761   8.328  0.00  0.00    +0.000 A 
ATOM     29  C   UNL     1      -0.108   4.070   8.271  0.00  0.00    +0.006 A 
ENDBRANCH  11  24
TORSDOF 4
