REMARK  Name = ZINC51664086
REMARK  7 active torsions:
REMARK  status: ('A' for Active; 'I' for Inactive)
REMARK    1  A    between atoms: C_1  and  C_2
REMARK    2  A    between atoms: C_3  and  C_4
REMARK    3  A    between atoms: C_4  and  O_5
REMARK    4  A    between atoms: O_5  and  C_6
REMARK    5  A    between atoms: C_13  and  C_18
REMARK    6  A    between atoms: C_13  and  C_19
REMARK    7  A    between atoms: C_15  and  O_17
REMARK                            x       y       z     vdW  Elec       q    Type
REMARK                         _______ _______ _______ _____ _____    ______ ____
ROOT
ATOM      1  C   UNL     1      -1.462  -4.494  -0.008  0.00  0.00    +0.125 A 
ATOM      2  C   UNL     1      -0.351  -5.326  -0.017  0.00  0.00    +0.046 A 
ATOM      3  C   UNL     1      -0.517  -6.696  -0.021  0.00  0.00    +0.013 A 
ATOM      4  C   UNL     1      -1.788  -7.248  -0.016  0.00  0.00    +0.023 A 
ATOM      5  C   UNL     1      -2.900  -6.423  -0.010  0.00  0.00    +0.130 A 
ATOM      6  C   UNL     1      -2.734  -5.042   0.001  0.00  0.00    +0.091 A 
ATOM      7  O   UNL     1      -4.163  -6.923  -0.017  0.00  0.00    -0.486 OA
ATOM      8  C   UNL     1      -4.340  -8.293   0.345  0.00  0.00    +0.108 C 
ATOM      9  C   UNL     1      -3.340  -9.139  -0.453  0.00  0.00    +0.083 C 
ATOM     10  C   UNL     1      -1.925  -8.750  -0.015  0.00  0.00    +0.152 C 
ATOM     11  C   UNL     1      -5.767  -8.733   0.012  0.00  0.00    +0.055 C 
ATOM     12  C   UNL     1      -4.083  -8.468   1.843  0.00  0.00    +0.055 C 
ENDROOT
BRANCH  10  13
ATOM     13  O   UNL     1      -0.975  -9.315  -0.921  0.00  0.00    -0.387 OA
ATOM     14  H   UNL     1      -0.055  -9.112  -0.703  0.00  0.00    +0.210 HD
ENDBRANCH  10  13
BRANCH   1  15
ATOM     15  O   UNL     1      -1.303  -3.144  -0.002  0.00  0.00    -0.479 OA
BRANCH  15  16
ATOM     16  C   UNL     1       0.038  -2.650  -0.013  0.00  0.00    +0.317 C 
BRANCH  16  19
ATOM     17  C   UNL     1      -0.018   1.468   0.010  0.00  0.00    +0.106 C 
ATOM     18  C   UNL     1       0.002  -0.004   0.002  0.00  0.00    -0.102 C 
ATOM     19  C   UNL     1       0.018  -1.178  -0.004  0.00  0.00    -0.062 C 
ENDBRANCH  16  19
ENDBRANCH  15  16
ENDBRANCH   1  15
TORSDOF 4
