REMARK  Name = ZINC50569417
REMARK  4 active torsions:
REMARK  status: ('A' for Active; 'I' for Inactive)
REMARK    1  A    between atoms: C_1  and  C_2
REMARK    2  A    between atoms: C_4  and  N_10
REMARK    3  A    between atoms: C_7  and  C_8
REMARK    4  A    between atoms: C_14  and  C_16
REMARK                            x       y       z     vdW  Elec       q    Type
REMARK                         _______ _______ _______ _____ _____    ______ ____
ROOT
ATOM      1  N   UNL     1       0.028  -2.759  -2.401  0.00  0.00    -0.318 N 
ATOM      2  C   UNL     1       0.019  -2.140  -3.739  0.00  0.00    +0.106 C 
ATOM      3  C   UNL     1       0.639  -3.209  -4.674  0.00  0.00    +0.021 C 
ATOM      4  C   UNL     1       0.068  -4.519  -4.071  0.00  0.00    +0.033 C 
ATOM      5  C   UNL     1       0.047  -4.221  -2.557  0.00  0.00    +0.159 C 
ENDROOT
BRANCH   1   9
ATOM      6  C   UNL     1      -0.018   1.503   0.010  0.00  0.00    +0.044 C 
ATOM      7  C   UNL     1       0.002  -0.004   0.002  0.00  0.00    -0.039 A 
ATOM      8  C   UNL     1       0.006  -0.681  -1.184  0.00  0.00    +0.027 A 
ATOM      9  C   UNL     1       0.025  -2.074  -1.193  0.00  0.00    +0.031 A 
ATOM     10  C   UNL     1       0.040  -2.782   0.007  0.00  0.00    +0.024 A 
ATOM     11  C   UNL     1       0.037  -2.113   1.197  0.00  0.00    +0.013 A 
ATOM     12  C   UNL     1       0.023  -0.712   1.211  0.00  0.00    +0.017 A 
BRANCH  12  13
ATOM     13  C   UNL     1       0.025   0.012   2.487  0.00  0.00    +0.259 C 
ATOM     14  O   UNL     1       0.044  -0.603   3.533  0.00  0.00    -0.296 OA
ENDBRANCH  12  13
ENDBRANCH   1   9
BRANCH   5  15
ATOM     15  C   UNL     1      -1.189  -4.819  -1.937  0.00  0.00    +0.231 C 
ATOM     16  O   UNL     1      -2.013  -4.100  -1.412  0.00  0.00    -0.274 OA
ATOM     17  N   UNL     1      -1.380  -6.153  -1.966  0.00  0.00    -0.328 N 
ATOM     18  H   UNL     1      -0.721  -6.728  -2.385  0.00  0.00    +0.145 HD
ATOM     19  H   UNL     1      -2.176  -6.538  -1.566  0.00  0.00    +0.145 HD
ENDBRANCH   5  15
TORSDOF 3
