REMARK  Name = ZINC57514601
REMARK  6 active torsions:
REMARK  status: ('A' for Active; 'I' for Inactive)
REMARK    1  A    between atoms: C_1  and  C_2
REMARK    2  A    between atoms: C_2  and  C_23
REMARK    3  A    between atoms: N_5  and  C_9
REMARK    4  A    between atoms: C_9  and  C_10
REMARK    5  A    between atoms: N_12  and  C_13
REMARK    6  A    between atoms: C_13  and  C_14
REMARK                            x       y       z     vdW  Elec       q    Type
REMARK                         _______ _______ _______ _____ _____    ______ ____
ROOT
ATOM      1  C   UNL     1      -0.019   1.526   0.010  0.00  0.00    +0.047 C 
ATOM      2  C   UNL     1       0.002  -0.004   0.002  0.00  0.00    +0.135 C 
ATOM      3  C   UNL     1      -1.403  -0.557   0.139  0.00  0.00    +0.251 C 
ATOM      4  O   UNL     1      -2.332  -0.392  -0.621  0.00  0.00    -0.272 OA
ATOM      5  N   UNL     1      -1.403  -1.272   1.282  0.00  0.00    -0.215 N 
ATOM      6  C   UNL     1      -0.206  -1.247   1.879  0.00  0.00    +0.310 C 
ATOM      7  O   UNL     1       0.040  -1.819   2.924  0.00  0.00    -0.252 OA
ATOM      8  N   UNL     1       0.695  -0.520   1.195  0.00  0.00    -0.281 N 
ATOM      9  H   UNL     1       1.621  -0.365   1.440  0.00  0.00    +0.152 HD
ENDROOT
BRANCH   2  10
ATOM     10  C   UNL     1       0.657  -0.517  -1.255  0.00  0.00    -0.015 A 
ATOM     11  C   UNL     1      -0.108  -0.772  -2.378  0.00  0.00    +0.009 A 
ATOM     12  C   UNL     1       0.491  -1.242  -3.531  0.00  0.00    +0.039 A 
ATOM     13  C   UNL     1       1.859  -1.457  -3.561  0.00  0.00    +0.123 A 
ATOM     14  C   UNL     1       2.624  -1.202  -2.436  0.00  0.00    +0.039 A 
ATOM     15  C   UNL     1       2.023  -0.727  -1.285  0.00  0.00    +0.009 A 
ATOM     16  F   UNL     1       2.446  -1.917  -4.688  0.00  0.00    -0.205 F 
ENDBRANCH   2  10
BRANCH   5  17
ATOM     17  C   UNL     1      -2.569  -1.986   1.805  0.00  0.00    +0.213 C 
BRANCH  17  18
ATOM     18  C   UNL     1      -2.585  -3.391   1.260  0.00  0.00    +0.231 C 
ATOM     19  O   UNL     1      -1.707  -3.759   0.508  0.00  0.00    -0.274 OA
ATOM     20  N   UNL     1      -3.573  -4.239   1.608  0.00  0.00    -0.307 N 
ATOM     21  H   UNL     1      -4.275  -3.944   2.209  0.00  0.00    +0.149 HD
BRANCH  20  22
ATOM     22  C   UNL     1      -3.588  -5.604   1.077  0.00  0.00    +0.178 C 
BRANCH  22  23
ATOM     23  C   UNL     1      -4.788  -6.339   1.616  0.00  0.00    +0.123 A 
ATOM     24  C   UNL     1      -5.992  -6.378   1.028  0.00  0.00    +0.055 A 
ATOM     25  C   UNL     1      -6.844  -7.200   1.894  0.00  0.00    +0.020 A 
ATOM     26  C   UNL     1      -8.175  -7.614   1.844  0.00  0.00    +0.011 A 
ATOM     27  C   UNL     1      -8.678  -8.401   2.842  0.00  0.00    +0.001 A 
ATOM     28  C   UNL     1      -7.873  -8.789   3.904  0.00  0.00    +0.004 A 
ATOM     29  C   UNL     1      -6.556  -8.390   3.971  0.00  0.00    +0.047 A 
ATOM     30  C   UNL     1      -6.024  -7.590   2.966  0.00  0.00    +0.135 A 
ATOM     31  O   UNL     1      -4.805  -7.056   2.753  0.00  0.00    -0.458 OA
ENDBRANCH  22  23
ENDBRANCH  20  22
ENDBRANCH  17  18
ENDBRANCH   5  17
TORSDOF 5
