REMARK  Name = ZINC39425693
REMARK  4 active torsions:
REMARK  status: ('A' for Active; 'I' for Inactive)
REMARK    1  A    between atoms: C_1  and  C_2
REMARK    2  A    between atoms: C_2  and  C_3
REMARK    3  A    between atoms: C_8  and  C_12
REMARK    4  A    between atoms: C_15  and  N_18
REMARK                            x       y       z     vdW  Elec       q    Type
REMARK                         _______ _______ _______ _____ _____    ______ ____
ROOT
ATOM      1  C   UNL     1      -1.412  -0.526   0.013  0.00  0.00    -0.024 A 
ATOM      2  C   UNL     1      -2.010  -0.859   1.179  0.00  0.00    +0.005 A 
ATOM      3  C   UNL     1      -3.324  -1.347   1.225  0.00  0.00    +0.001 A 
ATOM      4  C   UNL     1      -4.074  -1.516   0.113  0.00  0.00    +0.010 A 
ATOM      5  C   UNL     1      -3.543  -1.196  -1.161  0.00  0.00    +0.005 A 
ATOM      6  C   UNL     1      -4.064  -1.264  -2.438  0.00  0.00    +0.002 C 
ATOM      7  C   UNL     1      -2.967  -0.770  -3.354  0.00  0.00    +0.150 C 
ATOM      8  N   UNL     1      -1.833  -0.437  -2.486  0.00  0.00    -0.380 N 
ATOM      9  C   UNL     1      -2.160  -0.673  -1.243  0.00  0.00    +0.046 A 
ATOM     10  H   UNL     1      -0.978  -0.092  -2.787  0.00  0.00    +0.160 HD
ENDROOT
BRANCH   6  11
ATOM     11  C   UNL     1      -5.359  -1.706  -2.812  0.00  0.00    +0.054 C 
ATOM     12  C   UNL     1      -5.783  -1.726  -4.273  0.00  0.00    +0.127 C 
ATOM     13  S   UNL     1      -7.607  -1.939  -4.077  0.00  0.00    -0.113 S 
ATOM     14  C   UNL     1      -7.540  -2.555  -2.337  0.00  0.00    +0.235 C 
ATOM     15  N   UNL     1      -6.194  -2.100  -1.932  0.00  0.00    -0.257 NA
BRANCH  14  16
ATOM     16  N   UNL     1      -8.584  -1.932  -1.514  0.00  0.00    -0.268 NA
ATOM     17  C   UNL     1      -9.918  -2.420  -1.896  0.00  0.00    +0.115 C 
ATOM     18  C   UNL     1     -10.968  -1.792  -0.976  0.00  0.00    +0.175 C 
ATOM     19  O   UNL     1     -10.870  -0.367  -1.052  0.00  0.00    -0.377 OA
ATOM     20  C   UNL     1      -9.585   0.142  -0.686  0.00  0.00    +0.175 C 
ATOM     21  C   UNL     1      -8.521  -0.466  -1.603  0.00  0.00    +0.115 C 
ENDBRANCH  14  16
ENDBRANCH   6  11
BRANCH   1  23
ATOM     22  C   UNL     1      -0.019   1.526   0.010  0.00  0.00    +0.009 C 
ATOM     23  C   UNL     1       0.002  -0.004   0.002  0.00  0.00    +0.034 C 
ENDBRANCH   1  23
TORSDOF 3
