REMARK  Name = ZINC64508094
REMARK  11 active torsions:
REMARK  status: ('A' for Active; 'I' for Inactive)
REMARK    1  A    between atoms: C_1  and  C_2
REMARK    2  A    between atoms: C_2  and  O_3
REMARK    3  A    between atoms: O_3  and  C_4
REMARK    4  A    between atoms: C_4  and  C_6
REMARK    5  A    between atoms: C_8  and  C_36
REMARK    6  A    between atoms: C_10  and  C_14
REMARK    7  A    between atoms: C_11  and  C_13
REMARK    8  A    between atoms: C_14  and  N_15
REMARK    9  A    between atoms: N_15  and  C_16
REMARK   10  A    between atoms: C_16  and  C_17
REMARK   11  A    between atoms: C_24  and  C_26
REMARK                            x       y       z     vdW  Elec       q    Type
REMARK                         _______ _______ _______ _____ _____    ______ ____
ROOT
ATOM      1  N   UNL     1       4.250  -4.721  -4.974  0.00  0.00    -0.295 N 
ATOM      2  C   UNL     1       5.514  -4.773  -5.439  0.00  0.00    +0.242 C 
ATOM      3  O   UNL     1       5.825  -5.611  -6.258  0.00  0.00    -0.273 OA
ENDROOT
BRANCH   2   4
ATOM      4  C   UNL     1       6.541  -3.789  -4.940  0.00  0.00    +0.190 C 
ATOM      5  C   UNL     1       6.272  -2.417  -5.516  0.00  0.00    +0.016 C 
ATOM      6  C   UNL     1       7.370  -2.091  -6.236  0.00  0.00    -0.004 A 
ATOM      7  C   UNL     1       7.724  -0.907  -7.028  0.00  0.00    +0.010 A 
ATOM      8  C   UNL     1       8.925  -0.870  -7.650  0.00  0.00    +0.001 A 
ATOM      9  C   UNL     1       9.837  -1.930  -7.558  0.00  0.00    +0.002 A 
ATOM     10  C   UNL     1       9.583  -3.050  -6.849  0.00  0.00    +0.026 A 
ATOM     11  C   UNL     1       8.350  -3.197  -6.154  0.00  0.00    +0.043 A 
ATOM     12  N   UNL     1       7.877  -4.170  -5.411  0.00  0.00    -0.370 N 
ATOM     13  H   UNL     1       8.333  -5.002  -5.208  0.00  0.00    +0.161 HD
ENDBRANCH   2   4
BRANCH   1  14
ATOM     14  C   UNL     1       3.842  -3.634  -4.079  0.00  0.00    +0.118 C 
BRANCH  14  17
ATOM     15  C   UNL     1       2.535  -3.202  -1.165  0.00  0.00    +0.217 C 
ATOM     16  C   UNL     1       3.932  -2.797  -1.693  0.00  0.00    +0.031 C 
ATOM     17  C   UNL     1       4.237  -3.982  -2.643  0.00  0.00    +0.056 C 
ATOM     18  C   UNL     1       3.373  -5.103  -2.110  0.00  0.00    +0.016 C 
ATOM     19  N   UNL     1       2.473  -4.660  -1.325  0.00  0.00    -0.278 NA
ATOM     20  C   UNL     1       3.551  -6.557  -2.465  0.00  0.00    +0.060 C 
ATOM     21  C   UNL     1       3.870  -1.475  -2.461  0.00  0.00    +0.011 C 
BRANCH  15  22
ATOM     22  C   UNL     1       2.396  -2.828   0.288  0.00  0.00    +0.332 C 
ATOM     23  O   UNL     1       2.568  -3.662   1.145  0.00  0.00    -0.248 OA
BRANCH  22  24
ATOM     24  O   UNL     1       2.082  -1.569   0.629  0.00  0.00    -0.463 OA
BRANCH  24  26
ATOM     25  C   UNL     1       1.606   0.190   2.218  0.00  0.00    +0.048 C 
ATOM     26  C   UNL     1       1.967  -1.285   2.025  0.00  0.00    +0.229 C 
ENDBRANCH  24  26
ENDBRANCH  22  24
ENDBRANCH  15  22
ENDBRANCH  14  17
ENDBRANCH   1  14
BRANCH   1  27
ATOM     27  C   UNL     1       3.284  -5.750  -5.364  0.00  0.00    +0.143 C 
BRANCH  27  28
ATOM     28  C   UNL     1       2.662  -5.381  -6.686  0.00  0.00    -0.030 A 
ATOM     29  C   UNL     1       1.467  -4.687  -6.718  0.00  0.00    +0.006 A 
ATOM     30  C   UNL     1       0.896  -4.348  -7.930  0.00  0.00    +0.020 A 
ATOM     31  C   UNL     1       1.522  -4.704  -9.112  0.00  0.00    +0.041 A 
ATOM     32  C   UNL     1       2.718  -5.399  -9.080  0.00  0.00    +0.020 A 
ATOM     33  C   UNL     1       3.290  -5.732  -7.867  0.00  0.00    +0.006 A 
ATOM     34 CL   UNL     1       0.805  -4.279 -10.636  0.00  0.00    -0.084 Cl
ENDBRANCH  27  28
ENDBRANCH   1  27
TORSDOF 8
