REMARK  Name = ZINC20589892
REMARK  8 active torsions:
REMARK  status: ('A' for Active; 'I' for Inactive)
REMARK    1  A    between atoms: C_1  and  C_2
REMARK    2  A    between atoms: C_12  and  C_13
REMARK    3  A    between atoms: C_13  and  C_14
REMARK    4  A    between atoms: C_14  and  O_16
REMARK    5  A    between atoms: O_16  and  C_17
REMARK    6  A    between atoms: N_19  and  C_22
REMARK    7  A    between atoms: C_22  and  C_24
REMARK    8  A    between atoms: C_22  and  C_25
REMARK                            x       y       z     vdW  Elec       q    Type
REMARK                         _______ _______ _______ _____ _____    ______ ____
ROOT
ATOM      1  C   UNL     1      -2.481  -0.504   0.064  0.00  0.00    +0.045 C 
ATOM      2  C   UNL     1      -2.457   1.001   0.146  0.00  0.00    -0.029 A 
ATOM      3  C   UNL     1      -1.201   1.746   0.032  0.00  0.00    +0.021 A 
ATOM      4  C   UNL     1       0.015   1.079  -0.156  0.00  0.00    +0.015 A 
ATOM      5  C   UNL     1       1.170   1.795  -0.265  0.00  0.00    +0.047 A 
ATOM      6  C   UNL     1       1.152   3.189  -0.185  0.00  0.00    +0.130 A 
ATOM      7  C   UNL     1      -0.041   3.862   0.005  0.00  0.00    +0.051 A 
ATOM      8  C   UNL     1      -1.229   3.149   0.120  0.00  0.00    +0.147 A 
ATOM      9  O   UNL     1      -2.394   3.801   0.307  0.00  0.00    -0.421 OA
ATOM     10  C   UNL     1      -3.540   3.119   0.400  0.00  0.00    +0.341 A 
ATOM     11  O   UNL     1      -4.575   3.739   0.564  0.00  0.00    -0.245 OA
ATOM     12  C   UNL     1      -3.600   1.714   0.329  0.00  0.00    +0.051 A 
ATOM     13  C   UNL     1      -0.075   5.367   0.088  0.00  0.00    +0.130 C 
ATOM     14  N   UNL     1       1.277   5.877   0.357  0.00  0.00    -0.259 NA
ATOM     15  C   UNL     1       2.242   5.268  -0.573  0.00  0.00    +0.319 C 
ATOM     16  O   UNL     1       2.324   3.868  -0.293  0.00  0.00    -0.476 OA
ENDROOT
BRANCH  14  17
ATOM     17  C   UNL     1       1.314   7.343   0.270  0.00  0.00    +0.087 C 
ATOM     18  C   UNL     1       1.160   7.770  -1.191  0.00  0.00    +0.029 C 
BRANCH  17  19
ATOM     19  C   UNL     1       2.631   7.845   0.804  0.00  0.00    -0.030 A 
ATOM     20  C   UNL     1       3.256   7.177   1.841  0.00  0.00    +0.005 A 
ATOM     21  C   UNL     1       4.466   7.635   2.328  0.00  0.00    +0.000 A 
ATOM     22  C   UNL     1       5.046   8.766   1.784  0.00  0.00    +0.000 A 
ATOM     23  C   UNL     1       4.419   9.436   0.751  0.00  0.00    +0.000 A 
ATOM     24  C   UNL     1       3.211   8.976   0.261  0.00  0.00    +0.005 A 
ENDBRANCH  17  19
ENDBRANCH  14  17
BRANCH  12  25
ATOM     25  C   UNL     1      -4.924   1.004   0.454  0.00  0.00    +0.163 C 
BRANCH  25  26
ATOM     26  C   UNL     1      -5.190   0.689   1.903  0.00  0.00    +0.311 C 
ATOM     27  O   UNL     1      -4.387   1.008   2.748  0.00  0.00    -0.250 OA
BRANCH  26  28
ATOM     28  O   UNL     1      -6.319   0.054   2.256  0.00  0.00    -0.468 OA
ATOM     29  C   UNL     1      -6.509  -0.217   3.669  0.00  0.00    +0.280 C 
ENDBRANCH  26  28
ENDBRANCH  25  26
ENDBRANCH  12  25
TORSDOF 5
