REMARK  Name = ZINC01972864
REMARK  5 active torsions:
REMARK  status: ('A' for Active; 'I' for Inactive)
REMARK    1  A    between atoms: C_1  and  C_2
REMARK    2  A    between atoms: C_11  and  N_15
REMARK    3  A    between atoms: N_15  and  C_16
REMARK    4  A    between atoms: C_16  and  C_18
REMARK    5  A    between atoms: C_16  and  C_19
REMARK                            x       y       z     vdW  Elec       q    Type
REMARK                         _______ _______ _______ _____ _____    ______ ____
ROOT
ATOM      1  C   UNL     1       6.798   5.059  -0.032  0.00  0.00    +0.008 C 
ATOM      2  C   UNL     1       5.689   4.051  -0.338  0.00  0.00    -0.009 C 
ATOM      3  C   UNL     1       5.915   2.775   0.479  0.00  0.00    +0.008 C 
ATOM      4  C   UNL     1       4.963   1.678   0.002  0.00  0.00    +0.037 C 
ATOM      5  C   UNL     1       3.537   2.223   0.013  0.00  0.00    -0.025 A 
ATOM      6  C   UNL     1       3.308   3.552   0.034  0.00  0.00    -0.004 A 
ATOM      7  S   UNL     1       1.543   3.716   0.041  0.00  0.00    -0.073 S 
ATOM      8  C   UNL     1       1.114   1.996   0.015  0.00  0.00    +0.114 A 
ATOM      9  C   UNL     1       2.365   1.347   0.002  0.00  0.00    +0.051 A 
ATOM     10  C   UNL     1       2.316  -0.074  -0.021  0.00  0.00    +0.131 A 
ATOM     11  N   UNL     1       1.138  -0.678  -0.026  0.00  0.00    -0.220 NA
ATOM     12  C   UNL     1       0.002  -0.004  -0.012  0.00  0.00    +0.224 A 
ATOM     13  N   UNL     1      -0.016   1.315   0.008  0.00  0.00    -0.228 NA
ATOM     14  C   UNL     1       4.329   4.649   0.048  0.00  0.00    +0.046 C 
ENDROOT
BRANCH  10  15
ATOM     15  N   UNL     1       3.483  -0.816  -0.037  0.00  0.00    -0.322 N 
ATOM     16  H   UNL     1       4.340  -0.369  -0.117  0.00  0.00    +0.148 HD
BRANCH  15  17
ATOM     17  C   UNL     1       3.425  -2.276   0.066  0.00  0.00    +0.099 C 
ATOM     18  C   UNL     1       3.198  -2.877  -1.323  0.00  0.00    +0.033 C 
BRANCH  17  19
ATOM     19  C   UNL     1       4.724  -2.792   0.629  0.00  0.00    -0.028 A 
ATOM     20  C   UNL     1       5.923  -2.236   0.225  0.00  0.00    +0.005 A 
ATOM     21  C   UNL     1       7.114  -2.706   0.745  0.00  0.00    +0.000 A 
ATOM     22  C   UNL     1       7.107  -3.739   1.663  0.00  0.00    +0.000 A 
ATOM     23  C   UNL     1       5.908  -4.300   2.064  0.00  0.00    +0.000 A 
ATOM     24  C   UNL     1       4.717  -3.826   1.547  0.00  0.00    +0.005 A 
ENDBRANCH  17  19
ENDBRANCH  15  17
ENDBRANCH  10  15
TORSDOF 3
