REMARK  Name = ZINC19482878
REMARK  1 active torsions:
REMARK  status: ('A' for Active; 'I' for Inactive)
REMARK    1  A    between atoms: C_10  and  C_12
REMARK                            x       y       z     vdW  Elec       q    Type
REMARK                         _______ _______ _______ _____ _____    ______ ____
ROOT
ATOM      1  C   UNL     1       3.929  -9.035  -0.463  0.00  0.00    +0.000 A 
ATOM      2  C   UNL     1       2.757  -8.461  -0.921  0.00  0.00    +0.002 A 
ATOM      3  C   UNL     1       2.497  -7.129  -0.681  0.00  0.00    +0.024 A 
ATOM      4  C   UNL     1       3.414  -6.348   0.025  0.00  0.00    +0.040 A 
ATOM      5  C   UNL     1       4.585  -6.933   0.480  0.00  0.00    -0.024 A 
ATOM      6  C   UNL     1       4.842  -8.268   0.237  0.00  0.00    +0.005 A 
ATOM      7  C   UNL     1       5.396  -5.883   1.206  0.00  0.00    +0.056 C 
ATOM      8  C   UNL     1       4.547  -4.605   1.113  0.00  0.00    +0.118 C 
ATOM      9  N   UNL     1       3.345  -4.995   0.372  0.00  0.00    -0.268 N 
ATOM     10  C   UNL     1       2.325  -4.170   0.064  0.00  0.00    +0.262 C 
ATOM     11  O   UNL     1       1.332  -4.609  -0.477  0.00  0.00    -0.271 OA
ENDROOT
BRANCH  10  12
ATOM     12  C   UNL     1       2.417  -2.703   0.393  0.00  0.00    +0.276 C 
ATOM     13  C   UNL     1       3.438  -2.031  -0.536  0.00  0.00    +0.155 C 
ATOM     14  N   UNL     1       3.458  -0.594  -0.211  0.00  0.00    -0.337 N 
ATOM     15  C   UNL     1       2.227   0.039   0.023  0.00  0.00    +0.070 A 
ATOM     16  C   UNL     1       2.152   1.422   0.051  0.00  0.00    +0.026 A 
ATOM     17  C   UNL     1       0.938   2.041   0.286  0.00  0.00    +0.002 A 
ATOM     18  C   UNL     1      -0.198   1.282   0.493  0.00  0.00    +0.004 A 
ATOM     19  C   UNL     1      -0.129  -0.099   0.464  0.00  0.00    +0.047 A 
ATOM     20  C   UNL     1       1.084  -0.729   0.229  0.00  0.00    +0.142 A 
ATOM     21  O   UNL     1       1.142  -2.086   0.198  0.00  0.00    -0.476 OA
ATOM     22  H   UNL     1       4.416  -0.055  -0.159  0.00  0.00    +0.146 HD
ENDBRANCH  10  12
TORSDOF 1
