REMARK  Name = ZINC50675140
REMARK  6 active torsions:
REMARK  status: ('A' for Active; 'I' for Inactive)
REMARK    1  A    between atoms: C_1  and  C_2
REMARK    2  A    between atoms: C_4  and  C_7
REMARK    3  A    between atoms: C_7  and  N_8
REMARK    4  A    between atoms: N_8  and  S_9
REMARK    5  A    between atoms: S_9  and  C_12
REMARK    6  A    between atoms: C_17  and  N_18
REMARK                            x       y       z     vdW  Elec       q    Type
REMARK                         _______ _______ _______ _____ _____    ______ ____
ROOT
ATOM      1  S   UNL     1       1.810  -5.269  -2.465  0.00  0.00    +0.062 S 
ATOM      2  O   UNL     1       3.211  -5.478  -2.580  0.00  0.00    -0.153 OA
ATOM      3  O   UNL     1       0.986  -6.072  -1.630  0.00  0.00    -0.153 OA
ENDROOT
BRANCH   1   4
ATOM      4  C   UNL     1       1.147  -5.392  -4.093  0.00  0.00    +0.146 A 
ATOM      5  C   UNL     1       0.053  -6.201  -4.346  0.00  0.00    +0.048 A 
ATOM      6  C   UNL     1      -0.436  -6.268  -5.644  0.00  0.00    +0.038 A 
ATOM      7  C   UNL     1       0.180  -5.531  -6.638  0.00  0.00    +0.128 A 
ATOM      8  N   UNL     1       1.222  -4.768  -6.367  0.00  0.00    -0.238 NA
ATOM      9  C   UNL     1       1.714  -4.674  -5.141  0.00  0.00    +0.143 A 
ATOM     10 BR   UNL     1      -1.928  -7.357  -6.048  0.00  0.00    -0.049 Br
BRANCH   9  11
ATOM     11  N   UNL     1       2.810  -3.853  -4.900  0.00  0.00    -0.342 N 
ATOM     12  H   UNL     1       3.120  -3.712  -3.991  0.00  0.00    +0.144 HD
ATOM     13  H   UNL     1       3.264  -3.420  -5.640  0.00  0.00    +0.144 HD
ENDBRANCH   9  11
ENDBRANCH   1   4
BRANCH   1  14
ATOM     14  N   UNL     1       1.603  -3.703  -1.970  0.00  0.00    -0.182 NA
ATOM     15  H   UNL     1       2.376  -3.142  -1.801  0.00  0.00    +0.148 HD
BRANCH  14  16
ATOM     16  C   UNL     1       0.253  -3.165  -1.786  0.00  0.00    +0.183 C 
BRANCH  16  20
ATOM     17  C   UNL     1       0.629   1.759  -0.534  0.00  0.00    +0.069 C 
ATOM     18  C   UNL     1       0.488   0.263  -0.423  0.00  0.00    +0.081 A 
ATOM     19  C   UNL     1       0.465  -0.646  -1.496  0.00  0.00    +0.072 A 
ATOM     20  C   UNL     1       0.325  -1.887  -0.991  0.00  0.00    +0.153 A 
ATOM     21  O   UNL     1       0.261  -1.786   0.346  0.00  0.00    -0.358 OA
ATOM     22  N   UNL     1       0.372  -0.415   0.684  0.00  0.00    -0.083 NA
ENDBRANCH  16  20
ENDBRANCH  14  16
ENDBRANCH   1  14
TORSDOF 5
