REMARK  Name = ZINC06857937
REMARK  9 active torsions:
REMARK  status: ('A' for Active; 'I' for Inactive)
REMARK    1  A    between atoms: C_1  and  O_2
REMARK    2  A    between atoms: O_2  and  C_3
REMARK    3  A    between atoms: C_3  and  C_4
REMARK    4  A    between atoms: C_5  and  C_22
REMARK    5  A    between atoms: C_6  and  C_14
REMARK    6  A    between atoms: C_8  and  C_12
REMARK    7  A    between atoms: C_9  and  N_11
REMARK    8  A    between atoms: C_22  and  O_24
REMARK    9  A    between atoms: O_24  and  C_25
REMARK                            x       y       z     vdW  Elec       q    Type
REMARK                         _______ _______ _______ _____ _____    ______ ____
ROOT
ATOM      1  C   UNL     1       2.363   1.276   0.088  0.00  0.00    +0.144 C 
ATOM      2  C   UNL     1       1.212   1.929  -0.113  0.00  0.00    +0.089 C 
ATOM      3  C   UNL     1       1.180   3.429  -0.231  0.00  0.00    +0.105 C 
ATOM      4  C   UNL     1       2.461   4.008   0.310  0.00  0.00    +0.098 C 
ATOM      5  C   UNL     1       3.552   3.225   0.489  0.00  0.00    +0.198 C 
ATOM      6  O   UNL     1       3.538   1.912   0.199  0.00  0.00    -0.443 OA
ENDROOT
BRANCH   3   7
ATOM      7  C   UNL     1       1.022   3.814  -1.679  0.00  0.00    -0.032 A 
ATOM      8  C   UNL     1       1.976   3.431  -2.604  0.00  0.00    +0.006 A 
ATOM      9  C   UNL     1       1.830   3.779  -3.934  0.00  0.00    +0.018 A 
ATOM     10  C   UNL     1       0.735   4.521  -4.338  0.00  0.00    +0.053 A 
ATOM     11  C   UNL     1      -0.218   4.910  -3.412  0.00  0.00    +0.138 A 
ATOM     12  C   UNL     1      -0.073   4.556  -2.081  0.00  0.00    +0.044 A 
ATOM     13  F   UNL     1      -1.288   5.635  -3.805  0.00  0.00    -0.204 F 
ATOM     14 BR   UNL     1       0.540   5.005  -6.156  0.00  0.00    -0.047 Br
ENDBRANCH   3   7
BRANCH   5  15
ATOM     15  N   UNL     1       4.703   3.788   0.982  0.00  0.00    -0.328 N 
ATOM     16  H   UNL     1       5.492   3.239   1.116  0.00  0.00    +0.145 HD
ATOM     17  H   UNL     1       4.728   4.733   1.196  0.00  0.00    +0.145 HD
ENDBRANCH   5  15
BRANCH   4  18
ATOM     18  C   UNL     1       2.528   5.401   0.633  0.00  0.00    +0.101 C 
ATOM     19  N   UNL     1       2.581   6.507   0.889  0.00  0.00    -0.191 NA
ENDBRANCH   4  18
BRANCH   2  20
ATOM     20  C   UNL     1       0.005   1.196  -0.223  0.00  0.00    +0.339 C 
ATOM     21  O   UNL     1      -0.750   1.122   0.728  0.00  0.00    -0.245 OA
BRANCH  20  22
ATOM     22  O   UNL     1      -0.304   0.575  -1.380  0.00  0.00    -0.465 OA
ATOM     23  C   UNL     1      -1.534  -0.152  -1.418  0.00  0.00    +0.280 C 
ENDBRANCH  20  22
ENDBRANCH   2  20
BRANCH   1  24
ATOM     24  C   UNL     1       2.338  -0.227   0.194  0.00  0.00    +0.234 C 
BRANCH  24  26
ATOM     25  C   UNL     1       3.078  -2.223  -0.907  0.00  0.00    +0.194 C 
ATOM     26  O   UNL     1       3.043  -0.795  -0.912  0.00  0.00    -0.375 OA
ENDBRANCH  24  26
ENDBRANCH   1  24
TORSDOF 7
