REMARK  Name = ZINC13951134
REMARK  7 active torsions:
REMARK  status: ('A' for Active; 'I' for Inactive)
REMARK    1  A    between atoms: C_1  and  C_2
REMARK    2  A    between atoms: C_4  and  C_30
REMARK    3  A    between atoms: N_10  and  C_11
REMARK    4  A    between atoms: C_11  and  C_13
REMARK    5  A    between atoms: C_17  and  N_19
REMARK    6  A    between atoms: N_26  and  C_27
REMARK    7  A    between atoms: C_27  and  C_28
REMARK                            x       y       z     vdW  Elec       q    Type
REMARK                         _______ _______ _______ _____ _____    ______ ____
ROOT
ATOM      1  C   UNL     1       5.309   3.132  -5.002  0.00  0.00    +0.044 C 
ATOM      2  C   UNL     1       4.371   2.118  -4.399  0.00  0.00    -0.049 A 
ATOM      3  C   UNL     1       4.865   0.950  -3.844  0.00  0.00    +0.008 A 
ATOM      4  C   UNL     1       4.025   0.013  -3.290  0.00  0.00    -0.026 A 
ATOM      5  C   UNL     1       2.636   0.216  -3.271  0.00  0.00    +0.061 A 
ATOM      6  C   UNL     1       2.164   1.408  -3.841  0.00  0.00    +0.039 A 
ATOM      7  C   UNL     1       3.006   2.344  -4.395  0.00  0.00    +0.020 A 
ATOM      8  S   UNL     1       0.406   1.294  -3.627  0.00  0.00    -0.052 S 
ATOM      9  C   UNL     1       0.346  -0.246  -2.833  0.00  0.00    +0.168 A 
ATOM     10  N   UNL     1      -0.720  -0.908  -2.398  0.00  0.00    -0.152 NA
ATOM     11  N   UNL     1       1.654  -0.612  -2.760  0.00  0.00    -0.309 N 
ATOM     12  C   UNL     1       4.601  -1.246  -2.695  0.00  0.00    +0.046 C 
ENDROOT
BRANCH  10  13
ATOM     13  C   UNL     1      -1.941  -0.387  -2.557  0.00  0.00    +0.269 C 
ATOM     14  O   UNL     1      -2.076   0.695  -3.101  0.00  0.00    -0.268 OA
BRANCH  13  15
ATOM     15  C   UNL     1      -3.130  -1.126  -2.073  0.00  0.00    +0.041 A 
ATOM     16  C   UNL     1      -2.979  -2.368  -1.455  0.00  0.00    +0.013 A 
ATOM     17  C   UNL     1      -4.088  -3.052  -1.001  0.00  0.00    +0.003 A 
ATOM     18  C   UNL     1      -5.352  -2.515  -1.165  0.00  0.00    +0.024 A 
ATOM     19  C   UNL     1      -5.513  -1.282  -1.782  0.00  0.00    +0.045 A 
ATOM     20  C   UNL     1      -4.404  -0.585  -2.238  0.00  0.00    +0.037 A 
BRANCH  19  21
ATOM     21  N   UNL     1      -6.796  -0.741  -1.946  0.00  0.00    -0.210 N 
ATOM     22  C   UNL     1      -7.375   0.042  -1.027  0.00  0.00    +0.227 C 
ATOM     23  O   UNL     1      -6.878   0.371   0.028  0.00  0.00    -0.275 OA
ATOM     24  C   UNL     1      -8.746   0.453  -1.517  0.00  0.00    +0.106 C 
ATOM     25  C   UNL     1      -8.865  -0.243  -2.888  0.00  0.00    +0.106 C 
ATOM     26  C   UNL     1      -7.546  -0.970  -3.032  0.00  0.00    +0.227 C 
ATOM     27  O   UNL     1      -7.219  -1.652  -3.979  0.00  0.00    -0.275 OA
ENDBRANCH  19  21
ENDBRANCH  13  15
ENDBRANCH  10  13
BRANCH  11  28
ATOM     28  C   UNL     1       2.024  -1.887  -2.139  0.00  0.00    +0.212 C 
BRANCH  28  29
ATOM     29  C   UNL     1       2.333  -1.669  -0.717  0.00  0.00    -0.084 C 
ATOM     30  C   UNL     1       2.579  -1.495   0.418  0.00  0.00    +0.005 C 
ENDBRANCH  28  29
ENDBRANCH  11  28
TORSDOF 5
