REMARK  Name = ZINC36075996
REMARK  6 active torsions:
REMARK  status: ('A' for Active; 'I' for Inactive)
REMARK    1  A    between atoms: C_1  and  C_2
REMARK    2  A    between atoms: C_5  and  S_7
REMARK    3  A    between atoms: S_7  and  N_10
REMARK    4  A    between atoms: C_12  and  C_19
REMARK    5  A    between atoms: C_16  and  C_17
REMARK    6  A    between atoms: C_16  and  C_18
REMARK                            x       y       z     vdW  Elec       q    Type
REMARK                         _______ _______ _______ _____ _____    ______ ____
ROOT
ATOM      1  S   UNL     1       1.459  -4.709   0.119  0.00  0.00    +0.068 S 
ATOM      2  O   UNL     1       0.167  -5.069   0.589  0.00  0.00    -0.152 OA
ATOM      3  O   UNL     1       2.013  -3.418   0.327  0.00  0.00    -0.152 OA
ENDROOT
BRANCH   1   4
ATOM      4  N   UNL     1       1.454  -4.964  -1.518  0.00  0.00    -0.166 NA
ATOM      5  C   UNL     1       0.386  -5.747  -2.159  0.00  0.00    +0.141 C 
ATOM      6  C   UNL     1      -0.167  -4.938  -3.337  0.00  0.00    +0.131 C 
ATOM      7  O   UNL     1       0.916  -4.531  -4.178  0.00  0.00    -0.374 OA
ATOM      8  C   UNL     1       1.860  -3.668  -3.541  0.00  0.00    +0.183 C 
ATOM      9  C   UNL     1       2.514  -4.408  -2.374  0.00  0.00    +0.061 C 
ATOM     10  C   UNL     1       3.373  -3.435  -1.565  0.00  0.00    +0.032 C 
ATOM     11  C   UNL     1       3.388  -5.542  -2.913  0.00  0.00    +0.032 C 
ATOM     12  C   UNL     1      -1.142  -5.802  -4.139  0.00  0.00    +0.039 C 
ENDBRANCH   1   4
BRANCH   1  17
ATOM     13  C   UNL     1       4.474  -9.181   2.550  0.00  0.00    +0.051 C 
ATOM     14  C   UNL     1       3.948  -7.912   1.932  0.00  0.00    -0.011 A 
ATOM     15  C   UNL     1       4.615  -6.773   1.620  0.00  0.00    +0.013 A 
ATOM     16  C   UNL     1       3.919  -5.723   1.052  0.00  0.00    +0.036 A 
ATOM     17  C   UNL     1       2.590  -5.862   0.822  0.00  0.00    +0.143 A 
ATOM     18  S   UNL     1       2.286  -7.520   1.411  0.00  0.00    -0.074 S 
ENDBRANCH   1  17
TORSDOF 2
