REMARK  Name = ZINC06859995
REMARK  7 active torsions:
REMARK  status: ('A' for Active; 'I' for Inactive)
REMARK    1  A    between atoms: C_1  and  C_2
REMARK    2  A    between atoms: C_7  and  N_12
REMARK    3  A    between atoms: C_9  and  C_11
REMARK    4  A    between atoms: N_12  and  C_13
REMARK    5  A    between atoms: C_13  and  C_14
REMARK    6  A    between atoms: N_21  and  C_22
REMARK    7  A    between atoms: C_22  and  C_23
REMARK                            x       y       z     vdW  Elec       q    Type
REMARK                         _______ _______ _______ _____ _____    ______ ____
ROOT
ATOM      1  N   UNL     1       2.012   8.147  -2.857  0.00  0.00    -0.275 N 
ATOM      2  C   UNL     1       1.651   7.845  -1.593  0.00  0.00    +0.303 C 
ATOM      3  O   UNL     1       2.248   8.341  -0.656  0.00  0.00    -0.253 OA
ATOM      4  N   UNL     1       0.630   6.995  -1.369  0.00  0.00    -0.294 N 
ATOM      5  H   UNL     1       0.108   6.657  -2.113  0.00  0.00    +0.151 HD
ENDROOT
BRANCH   1  11
ATOM      6  C   UNL     1       0.686   4.039  -5.266  0.00  0.00    +0.008 C 
ATOM      7  C   UNL     1       0.554   5.562  -5.214  0.00  0.00    -0.009 C 
ATOM      8  C   UNL     1       1.081   6.165  -6.518  0.00  0.00    +0.003 C 
ATOM      9  C   UNL     1       0.949   7.688  -6.465  0.00  0.00    +0.002 C 
ATOM     10  C   UNL     1       1.761   8.231  -5.288  0.00  0.00    +0.023 C 
ATOM     11  C   UNL     1       1.234   7.628  -3.984  0.00  0.00    +0.081 C 
ATOM     12  C   UNL     1       1.366   6.104  -4.036  0.00  0.00    +0.009 C 
ATOM     13  C   UNL     1       2.838   5.726  -4.215  0.00  0.00    +0.009 C 
ENDBRANCH   1  11
BRANCH   1  14
ATOM     14  C   UNL     1       3.182   8.994  -3.102  0.00  0.00    +0.183 C 
BRANCH  14  15
ATOM     15  C   UNL     1       4.428   8.148  -3.081  0.00  0.00    +0.122 A 
ATOM     16  C   UNL     1       5.046   7.630  -4.158  0.00  0.00    +0.046 A 
ATOM     17  C   UNL     1       6.168   6.913  -3.681  0.00  0.00    +0.041 A 
ATOM     18  C   UNL     1       6.163   7.028  -2.341  0.00  0.00    +0.195 A 
ATOM     19  O   UNL     1       5.108   7.777  -1.983  0.00  0.00    -0.466 OA
ENDBRANCH  14  15
ENDBRANCH   1  14
BRANCH   4  20
ATOM     20  C   UNL     1       0.310   6.580  -0.001  0.00  0.00    +0.165 C 
BRANCH  20  21
ATOM     21  C   UNL     1      -0.864   5.635  -0.024  0.00  0.00    +0.108 A 
ATOM     22  C   UNL     1      -0.799   4.175  -0.142  0.00  0.00    +0.046 A 
ATOM     23  C   UNL     1       0.250   3.261  -0.260  0.00  0.00    +0.013 A 
ATOM     24  C   UNL     1      -0.020   1.925  -0.353  0.00  0.00    +0.001 A 
ATOM     25  C   UNL     1      -1.330   1.468  -0.332  0.00  0.00    +0.004 A 
ATOM     26  C   UNL     1      -2.380   2.354  -0.222  0.00  0.00    +0.049 A 
ATOM     27  C   UNL     1      -2.127   3.717  -0.120  0.00  0.00    +0.168 A 
ATOM     28  O   UNL     1      -2.919   4.801  -0.000  0.00  0.00    -0.354 OA
ATOM     29  N   UNL     1      -2.116   5.963   0.056  0.00  0.00    -0.080 NA
ENDBRANCH  20  21
ENDBRANCH   4  20
TORSDOF 5
