REMARK  Name = ZINC06371351
REMARK  5 active torsions:
REMARK  status: ('A' for Active; 'I' for Inactive)
REMARK    1  A    between atoms: C_1  and  C_2
REMARK    2  A    between atoms: C_4  and  N_12
REMARK    3  A    between atoms: C_7  and  N_8
REMARK    4  A    between atoms: C_16  and  C_19
REMARK    5  A    between atoms: C_20  and  C_22
REMARK                            x       y       z     vdW  Elec       q    Type
REMARK                         _______ _______ _______ _____ _____    ______ ____
ROOT
ATOM      1  N   UNL     1      -0.331  -4.288  -1.436  0.00  0.00    -0.324 N 
ATOM      2  C   UNL     1      -1.489  -4.926  -2.079  0.00  0.00    +0.124 C 
ATOM      3  C   UNL     1      -0.984  -6.034  -3.011  0.00  0.00    +0.127 C 
ATOM      4  N   UNL     1       0.083  -5.484  -3.859  0.00  0.00    -0.292 N 
ATOM      5  C   UNL     1       1.241  -4.846  -3.217  0.00  0.00    +0.091 C 
ATOM      6  C   UNL     1       0.733  -3.733  -2.285  0.00  0.00    +0.127 C 
ATOM      7  C   UNL     1       2.155  -4.245  -4.287  0.00  0.00    +0.029 C 
ATOM      8  C   UNL     1       0.001  -5.563  -5.202  0.00  0.00    +0.250 C 
ATOM      9  O   UNL     1       0.932  -5.195  -5.891  0.00  0.00    -0.270 OA
ENDROOT
BRANCH   1  13
ATOM     10  C   UNL     1      -1.266  -1.841   2.723  0.00  0.00    +0.046 C 
ATOM     11  C   UNL     1      -0.691  -3.031   2.000  0.00  0.00    -0.018 A 
ATOM     12  C   UNL     1      -0.776  -3.110   0.623  0.00  0.00    +0.031 A 
ATOM     13  C   UNL     1      -0.246  -4.206  -0.043  0.00  0.00    +0.066 A 
ATOM     14  C   UNL     1       0.370  -5.223   0.679  0.00  0.00    +0.146 A 
ATOM     15  C   UNL     1       0.451  -5.138   2.057  0.00  0.00    +0.073 A 
ATOM     16  C   UNL     1      -0.074  -4.041   2.715  0.00  0.00    +0.132 A 
ATOM     17  F   UNL     1       0.887  -6.293   0.036  0.00  0.00    -0.203 F 
BRANCH  16  18
ATOM     18  N   UNL     1       0.021  -3.949   4.189  0.00  0.00    +0.057 N 
ATOM     19  O   UNL     1       0.221  -2.880   4.717  0.00  0.00    -0.126 OA
ATOM     20  O   UNL     1      -0.101  -4.944   4.866  0.00  0.00    -0.126 OA
ENDBRANCH  16  18
ENDBRANCH   1  13
BRANCH   8  21
ATOM     21  C   UNL     1      -1.220  -6.097  -5.837  0.00  0.00    +0.072 A 
ATOM     22  C   UNL     1      -2.471  -5.861  -5.260  0.00  0.00    +0.019 A 
ATOM     23  C   UNL     1      -3.607  -6.362  -5.856  0.00  0.00    +0.039 A 
ATOM     24  C   UNL     1      -3.513  -7.100  -7.028  0.00  0.00    +0.126 A 
ATOM     25  C   UNL     1      -2.278  -7.338  -7.606  0.00  0.00    +0.077 A 
ATOM     26  C   UNL     1      -1.131  -6.837  -7.021  0.00  0.00    +0.138 A 
ATOM     27  F   UNL     1       0.074  -7.065  -7.588  0.00  0.00    -0.205 F 
ATOM     28  F   UNL     1      -4.632  -7.588  -7.607  0.00  0.00    -0.205 F 
ENDBRANCH   8  21
TORSDOF 3
