REMARK  Name = ZINC16478869
REMARK  4 active torsions:
REMARK  status: ('A' for Active; 'I' for Inactive)
REMARK    1  A    between atoms: C_4  and  C_7
REMARK    2  A    between atoms: C_7  and  C_8
REMARK    3  A    between atoms: N_11  and  C_14
REMARK    4  A    between atoms: C_14  and  N_15
REMARK                            x       y       z     vdW  Elec       q    Type
REMARK                         _______ _______ _______ _____ _____    ______ ____
ROOT
ATOM      1  N   UNL     1       6.739  -3.967   4.671  0.00  0.00    -0.283 N 
ATOM      2  C   UNL     1       6.827  -5.354   4.538  0.00  0.00    +0.043 A 
ATOM      3  C   UNL     1       5.832  -6.326   4.463  0.00  0.00    +0.024 A 
ATOM      4  C   UNL     1       6.170  -7.657   4.332  0.00  0.00    +0.002 A 
ATOM      5  C   UNL     1       7.499  -8.037   4.274  0.00  0.00    +0.001 A 
ATOM      6  C   UNL     1       8.493  -7.077   4.346  0.00  0.00    +0.011 A 
ATOM      7  C   UNL     1       8.159  -5.748   4.477  0.00  0.00    +0.042 A 
ATOM      8  C   UNL     1       8.970  -4.485   4.582  0.00  0.00    +0.279 C 
ATOM      9  C   UNL     1       7.950  -3.381   4.700  0.00  0.00    +0.283 C 
ATOM     10  O   UNL     1       8.178  -2.195   4.803  0.00  0.00    -0.269 OA
ATOM     11  O   UNL     1       9.782  -4.297   3.409  0.00  0.00    -0.332 OA
ATOM     12  C   UNL     1      11.127  -4.320   3.874  0.00  0.00    +0.151 C 
ATOM     13  C   UNL     1      12.126  -3.424   3.168  0.00  0.00    +0.034 C 
ATOM     14  C   UNL     1      13.480  -3.601   3.875  0.00  0.00    +0.003 C 
ATOM     15  C   UNL     1      13.381  -3.269   5.361  0.00  0.00    +0.003 C 
ATOM     16  C   UNL     1      12.274  -4.087   6.047  0.00  0.00    +0.034 C 
ATOM     17  C   UNL     1      10.974  -3.791   5.328  0.00  0.00    +0.151 C 
ATOM     18  O   UNL     1       9.817  -4.520   5.749  0.00  0.00    -0.332 OA
ENDROOT
BRANCH   1  19
ATOM     19  C   UNL     1       5.474  -3.233   4.762  0.00  0.00    +0.038 C 
BRANCH  19  23
ATOM     20  C   UNL     1       4.171  -0.963   1.399  0.00  0.00    -0.010 C 
ATOM     21  C   UNL     1       3.192  -1.919   2.088  0.00  0.00    -0.015 C 
ATOM     22  C   UNL     1       3.701  -2.233   3.496  0.00  0.00    -0.076 C 
ATOM     23  N   UNL     1       5.024  -2.862   3.413  0.00  0.00    +0.390 N 
ATOM     24  C   UNL     1       5.985  -1.925   2.819  0.00  0.00    -0.076 C 
ATOM     25  C   UNL     1       5.565  -1.599   1.385  0.00  0.00    -0.015 C 
ATOM     26  H   UNL     1       4.967  -3.691   2.841  0.00  0.00    -0.080 HD
BRANCH  20  27
ATOM     27  C   UNL     1       3.711  -0.707  -0.038  0.00  0.00    +0.038 C 
BRANCH  27  31
ATOM     28  C   UNL     1      -0.017   1.378   0.010  0.00  0.00    +0.000 A 
ATOM     29  C   UNL     1       1.171   2.086   0.002  0.00  0.00    +0.000 A 
ATOM     30  C   UNL     1       2.377   1.411  -0.013  0.00  0.00    +0.003 A 
ATOM     31  C   UNL     1       2.396   0.029  -0.020  0.00  0.00    -0.047 A 
ATOM     32  C   UNL     1       1.208  -0.679  -0.012  0.00  0.00    +0.003 A 
ATOM     33  C   UNL     1       0.002  -0.004   0.002  0.00  0.00    +0.000 A 
ENDBRANCH  27  31
ENDBRANCH  20  27
ENDBRANCH  19  23
ENDBRANCH   1  19
TORSDOF 4
