REMARK  Name = ZINC20841428
REMARK  4 active torsions:
REMARK  status: ('A' for Active; 'I' for Inactive)
REMARK    1  A    between atoms: C_1  and  C_2
REMARK    2  A    between atoms: C_2  and  S_3
REMARK    3  A    between atoms: S_3  and  C_4
REMARK    4  A    between atoms: N_12  and  C_15
REMARK                            x       y       z     vdW  Elec       q    Type
REMARK                         _______ _______ _______ _____ _____    ______ ____
ROOT
ATOM      1  C   UNL     1       2.866   5.867  -1.013  0.00  0.00    +0.177 A 
ATOM      2  N   UNL     1       3.647   4.878  -0.644  0.00  0.00    -0.216 NA
ATOM      3  C   UNL     1       3.169   3.678  -0.330  0.00  0.00    +0.115 A 
ATOM      4  C   UNL     1       1.797   3.384  -0.371  0.00  0.00    +0.056 A 
ATOM      5  C   UNL     1       1.425   2.023  -0.001  0.00  0.00    -0.022 A 
ATOM      6  C   UNL     1       2.427   1.183   0.344  0.00  0.00    +0.010 A 
ATOM      7  S   UNL     1       3.904   2.148   0.194  0.00  0.00    -0.072 S 
ATOM      8  C   UNL     1       2.289  -0.249   0.759  0.00  0.00    +0.126 C 
ATOM      9  N   UNL     1       0.872  -0.503   1.076  0.00  0.00    -0.300 NA
ATOM     10  C   UNL     1       0.002  -0.004   0.002  0.00  0.00    +0.089 C 
ATOM     11  C   UNL     1      -0.019   1.527   0.010  0.00  0.00    +0.052 C 
ATOM     12  C   UNL     1       0.635  -1.932   1.324  0.00  0.00    +0.105 C 
ATOM     13  C   UNL     1       0.928   4.504  -0.786  0.00  0.00    +0.173 A 
ATOM     14  N   UNL     1       1.509   5.709  -1.092  0.00  0.00    -0.260 N 
ATOM     15  C   UNL     1       0.477   6.535  -1.435  0.00  0.00    +0.231 A 
ATOM     16  N   UNL     1      -0.627   5.844  -1.330  0.00  0.00    -0.137 NA
ATOM     17  N   UNL     1      -0.368   4.642  -0.946  0.00  0.00    -0.129 NA
ENDROOT
BRANCH   1  18
ATOM     18  S   UNL     1       3.579   7.428  -1.413  0.00  0.00    -0.088 S 
BRANCH  18  20
ATOM     19  C   UNL     1       6.169   8.298  -1.433  0.00  0.00    +0.016 C 
ATOM     20  C   UNL     1       5.329   7.053  -1.139  0.00  0.00    +0.074 C 
ENDBRANCH  18  20
ENDBRANCH   1  18
TORSDOF 2
