REMARK  Name = ZINC32863338
REMARK  6 active torsions:
REMARK  status: ('A' for Active; 'I' for Inactive)
REMARK    1  A    between atoms: C_1  and  C_2
REMARK    2  A    between atoms: C_8  and  N_10
REMARK    3  A    between atoms: N_13  and  C_14
REMARK    4  A    between atoms: C_14  and  C_15
REMARK    5  A    between atoms: C_18  and  S_21
REMARK    6  A    between atoms: S_21  and  N_24
REMARK                            x       y       z     vdW  Elec       q    Type
REMARK                         _______ _______ _______ _____ _____    ______ ____
ROOT
ATOM      1  C   UNL     1      -0.059   4.522   0.026  0.00  0.00    -0.030 A 
ATOM      2  C   UNL     1       1.147   3.847   0.012  0.00  0.00    +0.007 A 
ATOM      3  C   UNL     1       1.166   2.465   0.004  0.00  0.00    +0.029 A 
ATOM      4  C   UNL     1      -0.022   1.758   0.012  0.00  0.00    +0.105 A 
ATOM      5  C   UNL     1      -1.228   2.433   0.021  0.00  0.00    +0.029 A 
ATOM      6  C   UNL     1      -1.247   3.815   0.033  0.00  0.00    +0.007 A 
ENDROOT
BRANCH   4   7
ATOM      7  S   UNL     1       0.002  -0.004   0.002  0.00  0.00    +0.061 S 
ATOM      8  O   UNL     1      -1.243  -0.424  -0.539  0.00  0.00    -0.153 OA
ATOM      9  O   UNL     1       1.248  -0.390  -0.563  0.00  0.00    -0.153 OA
BRANCH   7  10
ATOM     10  N   UNL     1       0.024  -0.502   1.581  0.00  0.00    -0.172 NA
ATOM     11  C   UNL     1       1.295  -0.719   2.290  0.00  0.00    +0.137 C 
ATOM     12  C   UNL     1       1.236   0.043   3.623  0.00  0.00    +0.177 C 
ATOM     13  O   UNL     1       0.048  -0.330   4.325  0.00  0.00    -0.377 OA
ATOM     14  C   UNL     1      -1.164   0.011   3.646  0.00  0.00    +0.177 C 
ATOM     15  C   UNL     1      -1.228  -0.747   2.316  0.00  0.00    +0.137 C 
ENDBRANCH   7  10
ENDBRANCH   4   7
BRANCH   1  16
ATOM     16  C   UNL     1      -0.080   6.029   0.034  0.00  0.00    +0.141 C 
BRANCH  16  20
ATOM     17  N   UNL     1      -0.137   8.306  -2.852  0.00  0.00    -0.296 N 
ATOM     18  C   UNL     1      -0.119   7.851  -1.584  0.00  0.00    +0.300 C 
ATOM     19  O   UNL     1      -0.121   8.636  -0.656  0.00  0.00    -0.253 OA
ATOM     20  N   UNL     1      -0.099   6.524  -1.345  0.00  0.00    -0.295 N 
ATOM     21  H   UNL     1      -0.134   7.596  -3.692  0.00  0.00    +0.151 HD
ATOM     22  H   UNL     1      -0.097   5.814  -2.184  0.00  0.00    +0.151 HD
BRANCH  17  29
ATOM     23  C   UNL     1      -2.214   9.465  -4.505  0.00  0.00    +0.009 C 
ATOM     24  C   UNL     1      -0.784  10.009  -4.484  0.00  0.00    +0.006 C 
ATOM     25  C   UNL     1       0.043   9.308  -5.564  0.00  0.00    +0.005 C 
ATOM     26  C   UNL     1       1.473   9.852  -5.543  0.00  0.00    +0.000 C 
ATOM     27  C   UNL     1       2.099   9.591  -4.172  0.00  0.00    +0.002 C 
ATOM     28  C   UNL     1       1.272  10.291  -3.092  0.00  0.00    +0.022 C 
ATOM     29  C   UNL     1      -0.158   9.748  -3.112  0.00  0.00    +0.077 C 
ENDBRANCH  17  29
ENDBRANCH  16  20
ENDBRANCH   1  16
TORSDOF 5
