REMARK  Name = ZINC09396842
REMARK  8 active torsions:
REMARK  status: ('A' for Active; 'I' for Inactive)
REMARK    1  A    between atoms: C_1  and  C_2
REMARK    2  A    between atoms: C_7  and  S_15
REMARK    3  A    between atoms: C_12  and  C_14
REMARK    4  A    between atoms: S_15  and  N_18
REMARK    5  A    between atoms: N_18  and  C_19
REMARK    6  A    between atoms: N_18  and  C_20
REMARK    7  A    between atoms: C_20  and  C_21
REMARK    8  A    between atoms: N_23  and  C_24
REMARK                            x       y       z     vdW  Elec       q    Type
REMARK                         _______ _______ _______ _____ _____    ______ ____
ROOT
ATOM      1  S   UNL     1      -3.337  -3.217  -1.797  0.00  0.00    +0.061 S 
ATOM      2  O   UNL     1      -3.617  -4.597  -1.601  0.00  0.00    -0.153 OA
ATOM      3  O   UNL     1      -4.092  -2.406  -2.686  0.00  0.00    -0.153 OA
ENDROOT
BRANCH   1   9
ATOM      4  C   UNL     1       2.632  -1.601  -5.841  0.00  0.00    +0.029 C 
ATOM      5  C   UNL     1       2.257  -1.394  -4.373  0.00  0.00    +0.083 C 
ATOM      6  C   UNL     1       0.814  -0.875  -4.258  0.00  0.00    +0.059 C 
ATOM      7  C   UNL     1       0.089  -1.939  -3.465  0.00  0.00    -0.022 A 
ATOM      8  C   UNL     1      -1.228  -2.024  -3.056  0.00  0.00    +0.034 A 
ATOM      9  C   UNL     1      -1.659  -3.114  -2.323  0.00  0.00    +0.106 A 
ATOM     10  C   UNL     1      -0.770  -4.126  -2.009  0.00  0.00    +0.030 A 
ATOM     11  C   UNL     1       0.544  -4.048  -2.418  0.00  0.00    +0.026 A 
ATOM     12  C   UNL     1       0.988  -2.947  -3.154  0.00  0.00    +0.040 A 
ATOM     13  N   UNL     1       2.262  -2.675  -3.661  0.00  0.00    -0.268 N 
ATOM     14  C   UNL     1       3.338  -3.475  -3.517  0.00  0.00    +0.217 C 
ATOM     15  O   UNL     1       4.404  -3.149  -3.995  0.00  0.00    -0.276 OA
ATOM     16  C   UNL     1       3.216  -4.773  -2.761  0.00  0.00    +0.109 C 
ENDBRANCH   1   9
BRANCH   1  17
ATOM     17  N   UNL     1      -3.428  -2.500  -0.307  0.00  0.00    -0.171 NA
ATOM     18  C   UNL     1      -3.227  -3.298   0.904  0.00  0.00    +0.132 C 
BRANCH  17  19
ATOM     19  C   UNL     1      -3.711  -1.066  -0.201  0.00  0.00    +0.205 C 
BRANCH  19  20
ATOM     20  C   UNL     1      -2.414  -0.305  -0.090  0.00  0.00    +0.233 C 
ATOM     21  O   UNL     1      -1.359  -0.902  -0.098  0.00  0.00    -0.274 OA
ATOM     22  N   UNL     1      -2.429   1.038   0.019  0.00  0.00    -0.282 N 
ATOM     23  H   UNL     1      -3.273   1.510   0.091  0.00  0.00    +0.155 HD
BRANCH  22  24
ATOM     24  C   UNL     1      -1.223   1.753   0.029  0.00  0.00    +0.069 A 
ATOM     25  C   UNL     1      -0.096   1.206   0.625  0.00  0.00    +0.029 A 
ATOM     26  C   UNL     1       1.093   1.909   0.629  0.00  0.00    +0.040 A 
ATOM     27  C   UNL     1       1.160   3.162   0.043  0.00  0.00    +0.126 A 
ATOM     28  C   UNL     1       0.036   3.713  -0.548  0.00  0.00    +0.078 A 
ATOM     29  C   UNL     1      -1.156   3.013  -0.555  0.00  0.00    +0.147 A 
ATOM     30  F   UNL     1      -2.253   3.550  -1.132  0.00  0.00    -0.203 F 
ATOM     31  F   UNL     1       2.324   3.848   0.049  0.00  0.00    -0.205 F 
ENDBRANCH  22  24
ENDBRANCH  19  20
ENDBRANCH  17  19
ENDBRANCH   1  17
TORSDOF 5
