REMARK  Name = ZINC43316944
REMARK  6 active torsions:
REMARK  status: ('A' for Active; 'I' for Inactive)
REMARK    1  A    between atoms: C_1  and  C_2
REMARK    2  A    between atoms: C_2  and  N_3
REMARK    3  A    between atoms: C_4  and  C_6
REMARK    4  A    between atoms: C_6  and  C_8
REMARK    5  A    between atoms: C_6  and  N_9
REMARK    6  A    between atoms: N_12  and  C_13
REMARK                            x       y       z     vdW  Elec       q    Type
REMARK                         _______ _______ _______ _____ _____    ______ ____
ROOT
ATOM      1  N   UNL     1      -2.989  -3.825  -0.005  0.00  0.00    -0.288 N 
ATOM      2  C   UNL     1      -4.046  -4.511  -0.482  0.00  0.00    +0.304 C 
ATOM      3  O   UNL     1      -5.014  -3.914  -0.911  0.00  0.00    -0.252 OA
ATOM      4  N   UNL     1      -4.029  -5.859  -0.484  0.00  0.00    -0.268 N 
ATOM      5  H   UNL     1      -2.216  -4.301   0.338  0.00  0.00    +0.151 HD
ATOM      6  H   UNL     1      -3.232  -6.335  -0.203  0.00  0.00    +0.156 HD
ENDROOT
BRANCH   4   7
ATOM      7  C   UNL     1      -5.163  -6.572  -0.892  0.00  0.00    +0.049 A 
ATOM      8  C   UNL     1      -5.973  -6.073  -1.904  0.00  0.00    +0.025 A 
ATOM      9  C   UNL     1      -7.090  -6.779  -2.304  0.00  0.00    +0.017 A 
ATOM     10  C   UNL     1      -7.404  -7.983  -1.699  0.00  0.00    +0.019 A 
ATOM     11  C   UNL     1      -6.600  -8.483  -0.691  0.00  0.00    +0.032 A 
ATOM     12  C   UNL     1      -5.478  -7.784  -0.289  0.00  0.00    +0.040 A 
ATOM     13 BR   UNL     1      -4.375  -8.472   1.084  0.00  0.00    -0.048 Br
ATOM     14 BR   UNL     1      -8.935  -8.945  -2.250  0.00  0.00    -0.050 Br
ENDBRANCH   4   7
BRANCH   1  15
ATOM     15  C   UNL     1      -3.006  -2.361  -0.003  0.00  0.00    +0.157 C 
ATOM     16  C   UNL     1      -3.714  -1.861   1.258  0.00  0.00    +0.038 C 
BRANCH  15  18
ATOM     17  N   UNL     1      -1.362  -0.513  -0.026  0.00  0.00    -0.314 N 
ATOM     18  C   UNL     1      -1.592  -1.841  -0.024  0.00  0.00    +0.233 C 
ATOM     19  O   UNL     1      -0.661  -2.618  -0.040  0.00  0.00    -0.274 OA
ATOM     20  H   UNL     1      -2.107   0.108  -0.014  0.00  0.00    +0.149 HD
BRANCH  17  22
ATOM     21  C   UNL     1      -0.005   1.522  -0.045  0.00  0.00    +0.024 C 
ATOM     22  C   UNL     1       0.013  -0.008  -0.047  0.00  0.00    +0.101 C 
ENDBRANCH  17  22
ENDBRANCH  15  18
ENDBRANCH   1  15
TORSDOF 4
