REMARK  Name = ZINC63044095
REMARK  3 active torsions:
REMARK  status: ('A' for Active; 'I' for Inactive)
REMARK    1  A    between atoms: C_4  and  C_7
REMARK    2  A    between atoms: C_7  and  C_9
REMARK    3  A    between atoms: C_9  and  C_10
REMARK                            x       y       z     vdW  Elec       q    Type
REMARK                         _______ _______ _______ _____ _____    ______ ____
ROOT
ATOM      1  C   UNL     1       3.845  -1.482  -1.350  0.00  0.00    +0.076 C 
ENDROOT
BRANCH   1   2
ATOM      2  C   UNL     1       5.210  -2.117  -1.422  0.00  0.00    +0.066 A 
ATOM      3  C   UNL     1       5.383  -3.400  -1.030  0.00  0.00    +0.134 A 
ATOM      4  N   UNL     1       6.582  -3.982  -1.084  0.00  0.00    -0.258 NA
ATOM      5  C   UNL     1       7.637  -3.335  -1.520  0.00  0.00    +0.160 A 
ATOM      6  C   UNL     1       7.507  -1.998  -1.940  0.00  0.00    +0.197 A 
ATOM      7  N   UNL     1       6.272  -1.406  -1.886  0.00  0.00    -0.194 N 
ATOM      8  N   UNL     1       6.462  -0.106  -2.366  0.00  0.00    -0.039 NA
ATOM      9  N   UNL     1       7.713   0.005  -2.667  0.00  0.00    -0.022 NA
ATOM     10  N   UNL     1       8.341  -1.090  -2.417  0.00  0.00    -0.107 NA
ENDBRANCH   1   2
BRANCH   1  11
ATOM     11  C   UNL     1       3.711  -0.707  -0.038  0.00  0.00    +0.092 C 
ATOM     12 BR   UNL     1       3.780  -1.962   1.474  0.00  0.00    -0.083 Br
BRANCH  11  16
ATOM     13  C   UNL     1      -0.017   1.378   0.010  0.00  0.00    +0.000 A 
ATOM     14  C   UNL     1       1.171   2.086   0.002  0.00  0.00    +0.000 A 
ATOM     15  C   UNL     1       2.377   1.411  -0.013  0.00  0.00    +0.005 A 
ATOM     16  C   UNL     1       2.396   0.029  -0.020  0.00  0.00    -0.034 A 
ATOM     17  C   UNL     1       1.208  -0.679  -0.012  0.00  0.00    +0.005 A 
ATOM     18  C   UNL     1       0.002  -0.004   0.002  0.00  0.00    +0.000 A 
ENDBRANCH  11  16
ENDBRANCH   1  11
TORSDOF 3
