REMARK  Name = ZINC27291662
REMARK  9 active torsions:
REMARK  status: ('A' for Active; 'I' for Inactive)
REMARK    1  A    between atoms: C_1  and  C_2
REMARK    2  A    between atoms: C_7  and  C_8
REMARK    3  A    between atoms: C_8  and  C_9
REMARK    4  A    between atoms: C_8  and  C_10
REMARK    5  A    between atoms: C_11  and  C_16
REMARK    6  A    between atoms: C_16  and  N_17
REMARK    7  A    between atoms: N_22  and  C_25
REMARK    8  A    between atoms: C_25  and  C_27
REMARK    9  A    between atoms: C_25  and  C_28
REMARK                            x       y       z     vdW  Elec       q    Type
REMARK                         _______ _______ _______ _____ _____    ______ ____
ROOT
ATOM      1  C   UNL     1       0.107  -5.118   1.375  0.00  0.00    +0.154 C 
ENDROOT
BRANCH   1   9
ATOM      2  C   UNL     1      -0.435   1.471   0.660  0.00  0.00    +0.044 C 
ATOM      3  C   UNL     1      -0.350  -0.028   0.530  0.00  0.00    -0.044 A 
ATOM      4  C   UNL     1      -0.474  -0.613  -0.713  0.00  0.00    +0.050 A 
ATOM      5  C   UNL     1      -0.397  -1.994  -0.837  0.00  0.00    +0.140 A 
ATOM      6  C   UNL     1      -0.193  -2.779   0.312  0.00  0.00    +0.023 A 
ATOM      7  C   UNL     1      -0.070  -2.166   1.563  0.00  0.00    +0.016 A 
ATOM      8  C   UNL     1      -0.143  -0.805   1.660  0.00  0.00    -0.041 A 
ATOM      9  C   UNL     1      -0.112  -4.236   0.173  0.00  0.00    -0.012 A 
ATOM     10  C   UNL     1      -0.239  -4.769  -1.069  0.00  0.00    +0.098 A 
ATOM     11  C   UNL     1      -0.443  -3.921  -2.179  0.00  0.00    +0.338 A 
ATOM     12  O   UNL     1      -0.556  -4.412  -3.288  0.00  0.00    -0.245 OA
ATOM     13  O   UNL     1      -0.516  -2.588  -2.044  0.00  0.00    -0.422 OA
BRANCH   8  14
ATOM     14  C   UNL     1      -0.004  -0.143   3.007  0.00  0.00    +0.013 C 
ATOM     15  C   UNL     1      -1.016  -0.751   3.981  0.00  0.00    +0.012 C 
ATOM     16  C   UNL     1       1.413  -0.364   3.540  0.00  0.00    +0.012 C 
ENDBRANCH   8  14
ENDBRANCH   1   9
BRANCH   1  17
ATOM     17  N   UNL     1       1.541  -5.214   1.655  0.00  0.00    -0.213 N 
ATOM     18  C   UNL     1       2.381  -6.140   1.145  0.00  0.00    +0.310 C 
ATOM     19  O   UNL     1       2.106  -7.040   0.379  0.00  0.00    -0.264 OA
ATOM     20  C   UNL     1       3.727  -5.821   1.725  0.00  0.00    +0.310 C 
ATOM     21  O   UNL     1       4.770  -6.408   1.527  0.00  0.00    -0.264 OA
ATOM     22  N   UNL     1       3.532  -4.742   2.514  0.00  0.00    -0.210 N 
ATOM     23  C   UNL     1       2.237  -4.393   2.458  0.00  0.00    +0.319 C 
ATOM     24  O   UNL     1       1.755  -3.454   3.060  0.00  0.00    -0.252 OA
BRANCH  22  25
ATOM     25  C   UNL     1       4.566  -4.062   3.297  0.00  0.00    +0.113 C 
ATOM     26  C   UNL     1       5.876  -4.847   3.205  0.00  0.00    +0.034 C 
BRANCH  25  27
ATOM     27  C   UNL     1       4.774  -2.671   2.755  0.00  0.00    -0.027 A 
ATOM     28  C   UNL     1       4.864  -2.468   1.391  0.00  0.00    +0.005 A 
ATOM     29  C   UNL     1       5.055  -1.193   0.893  0.00  0.00    +0.000 A 
ATOM     30  C   UNL     1       5.155  -0.120   1.760  0.00  0.00    +0.000 A 
ATOM     31  C   UNL     1       5.064  -0.324   3.124  0.00  0.00    +0.000 A 
ATOM     32  C   UNL     1       4.869  -1.599   3.622  0.00  0.00    +0.005 A 
ENDBRANCH  25  27
ENDBRANCH  22  25
ENDBRANCH   1  17
TORSDOF 5
