REMARK  Name = ZINC28104114
REMARK  9 active torsions:
REMARK  status: ('A' for Active; 'I' for Inactive)
REMARK    1  A    between atoms: C_1  and  C_2
REMARK    2  A    between atoms: C_4  and  C_29
REMARK    3  A    between atoms: C_6  and  N_8
REMARK    4  A    between atoms: N_8  and  C_9
REMARK    5  A    between atoms: C_9  and  C_10
REMARK    6  A    between atoms: C_10  and  C_11
REMARK    7  A    between atoms: C_13  and  C_15
REMARK    8  A    between atoms: C_15  and  C_17
REMARK    9  A    between atoms: C_15  and  N_18
REMARK                            x       y       z     vdW  Elec       q    Type
REMARK                         _______ _______ _______ _____ _____    ______ ____
ROOT
ATOM      1  N   UNL     1       1.289   1.700   0.370  0.00  0.00    -0.272 N 
ATOM      2  C   UNL     1       0.027   1.339   0.067  0.00  0.00    +0.206 C 
ATOM      3  O   UNL     1      -0.241   0.172  -0.122  0.00  0.00    -0.277 OA
ENDROOT
BRANCH   1   9
ATOM      4  C   UNL     1       2.653  -3.018   0.154  0.00  0.00    +0.044 C 
ATOM      5  C   UNL     1       2.961  -1.573   0.452  0.00  0.00    -0.048 A 
ATOM      6  C   UNL     1       4.218  -1.214   0.902  0.00  0.00    +0.006 A 
ATOM      7  C   UNL     1       4.505   0.111   1.176  0.00  0.00    -0.048 A 
ATOM      8  C   UNL     1       3.537   1.079   1.001  0.00  0.00    +0.027 A 
ATOM      9  C   UNL     1       2.273   0.722   0.549  0.00  0.00    +0.037 A 
ATOM     10  C   UNL     1       1.986  -0.610   0.281  0.00  0.00    +0.027 A 
ATOM     11  C   UNL     1       5.877   0.498   1.667  0.00  0.00    +0.044 C 
ENDBRANCH   1   9
BRANCH   2  12
ATOM     12  C   UNL     1      -1.051   2.387  -0.044  0.00  0.00    +0.017 C 
ATOM     13  C   UNL     1      -0.902   3.133  -1.371  0.00  0.00    -0.004 C 
BRANCH  12  14
ATOM     14  N   UNL     1      -2.369   1.742   0.011  0.00  0.00    +0.389 N 
ATOM     15  C   UNL     1      -2.542   0.802  -1.107  0.00  0.00    -0.059 C 
ATOM     16  C   UNL     1      -3.892   0.094  -0.970  0.00  0.00    +0.088 C 
ATOM     17  N   UNL     1      -4.968   1.095  -0.956  0.00  0.00    -0.313 N 
ATOM     18  C   UNL     1      -4.795   2.034   0.161  0.00  0.00    +0.088 C 
ATOM     19  C   UNL     1      -3.445   2.742   0.025  0.00  0.00    -0.059 C 
ATOM     20  C   UNL     1      -6.212   0.485  -0.905  0.00  0.00    +0.160 A 
ATOM     21  N   UNL     1      -7.178   0.646  -0.021  0.00  0.00    -0.233 NA
ATOM     22  C   UNL     1      -8.315  -0.017  -0.123  0.00  0.00    +0.120 A 
ATOM     23  C   UNL     1      -8.467  -0.881  -1.155  0.00  0.00    +0.068 A 
ATOM     24  S   UNL     1      -6.896  -0.691  -1.984  0.00  0.00    -0.061 S 
ATOM     25  H   UNL     1      -2.426   1.169   0.948  0.00  0.00    -0.081 HD
ENDBRANCH  12  14
ENDBRANCH   2  12
BRANCH   1  26
ATOM     26  C   UNL     1       1.632   3.118   0.512  0.00  0.00    +0.128 C 
BRANCH  26  27
ATOM     27  C   UNL     1       1.351   3.568   1.948  0.00  0.00    +0.138 C 
BRANCH  27  28
ATOM     28  C   UNL     1       1.695   4.992   2.091  0.00  0.00    +0.064 C 
ATOM     29  N   UNL     1       1.961   6.091   2.201  0.00  0.00    -0.197 NA
ENDBRANCH  27  28
ENDBRANCH  26  27
ENDBRANCH   1  26
TORSDOF 6
