REMARK  Name = ZINC01836094
REMARK  6 active torsions:
REMARK  status: ('A' for Active; 'I' for Inactive)
REMARK    1  A    between atoms: C_1  and  C_2
REMARK    2  A    between atoms: C_2  and  C_22
REMARK    3  A    between atoms: C_3  and  N_10
REMARK    4  A    between atoms: N_8  and  C_9
REMARK    5  A    between atoms: C_11  and  C_12
REMARK    6  A    between atoms: C_16  and  N_18
REMARK                            x       y       z     vdW  Elec       q    Type
REMARK                         _______ _______ _______ _____ _____    ______ ____
ROOT
ATOM      1  N   UNL     1      -3.450   3.843   0.477  0.00  0.00    -0.156 N 
ATOM      2  C   UNL     1      -2.557   4.665   0.924  0.00  0.00    +0.137 C 
ATOM      3  O   UNL     1      -3.119   2.482   0.269  0.00  0.00    -0.168 OA
ENDROOT
BRANCH   1   6
ATOM      4  C   UNL     1      -5.131   2.565   1.933  0.00  0.00    +0.034 C 
ATOM      5  C   UNL     1      -5.855   3.545   1.008  0.00  0.00    +0.063 C 
ATOM      6  C   UNL     1      -4.804   4.320   0.186  0.00  0.00    +0.213 C 
ATOM      7  S   UNL     1      -5.308   3.880  -1.521  0.00  0.00    -0.072 S 
ATOM      8  C   UNL     1      -6.699   2.832  -1.149  0.00  0.00    +0.111 C 
ATOM      9  S   UNL     1      -7.713   2.024  -2.267  0.00  0.00    -0.028 S 
ATOM     10  N   UNL     1      -6.789   2.807   0.189  0.00  0.00    -0.314 N 
ATOM     11  C   UNL     1      -7.846   2.021   0.828  0.00  0.00    +0.131 C 
ATOM     12  C   UNL     1      -6.637   4.540   1.868  0.00  0.00    +0.034 C 
ENDBRANCH   1   6
BRANCH   2  13
ATOM     13  C   UNL     1      -1.235   4.160   1.346  0.00  0.00    -0.004 A 
ATOM     14  C   UNL     1      -1.017   2.787   1.475  0.00  0.00    +0.009 A 
ATOM     15  C   UNL     1       0.218   2.323   1.876  0.00  0.00    +0.003 A 
ATOM     16  C   UNL     1       1.244   3.214   2.139  0.00  0.00    +0.033 A 
ATOM     17  C   UNL     1       1.036   4.576   2.008  0.00  0.00    +0.127 A 
ATOM     18  C   UNL     1      -0.197   5.054   1.613  0.00  0.00    +0.042 A 
BRANCH  17  19
ATOM     19  N   UNL     1       2.139   5.521   2.292  0.00  0.00    +0.056 N 
ATOM     20  O   UNL     1       3.227   5.101   2.640  0.00  0.00    -0.126 OA
ATOM     21  O   UNL     1       1.957   6.721   2.177  0.00  0.00    -0.126 OA
ENDBRANCH  17  19
ENDBRANCH   2  13
TORSDOF 3
