REMARK  Name = ZINC32933284
REMARK  9 active torsions:
REMARK  status: ('A' for Active; 'I' for Inactive)
REMARK    1  A    between atoms: C_1  and  C_2
REMARK    2  A    between atoms: N_6  and  C_24
REMARK    3  A    between atoms: C_7  and  C_23
REMARK    4  A    between atoms: C_8  and  C_9
REMARK    5  A    between atoms: C_9  and  O_11
REMARK    6  A    between atoms: O_11  and  C_12
REMARK    7  A    between atoms: C_12  and  C_13
REMARK    8  A    between atoms: N_15  and  C_16
REMARK    9  A    between atoms: C_16  and  C_21
REMARK                            x       y       z     vdW  Elec       q    Type
REMARK                         _______ _______ _______ _____ _____    ______ ____
ROOT
ATOM      1  C   UNL     1      -1.413   3.865   0.094  0.00  0.00    +0.045 C 
ATOM      2  C   UNL     1      -0.013   4.422   0.049  0.00  0.00    -0.030 A 
ATOM      3  C   UNL     1       0.245   5.589  -0.601  0.00  0.00    +0.074 A 
ATOM      4  C   UNL     1       1.559   6.091  -0.629  0.00  0.00    +0.256 A 
ATOM      5  O   UNL     1       1.795   7.137  -1.211  0.00  0.00    -0.267 OA
ATOM      6  N   UNL     1       2.558   5.426  -0.020  0.00  0.00    -0.281 N 
ATOM      7  C   UNL     1       2.326   4.271   0.634  0.00  0.00    +0.038 A 
ATOM      8  C   UNL     1       1.053   3.739   0.683  0.00  0.00    +0.082 A 
ATOM      9  C   UNL     1       3.465   3.553   1.312  0.00  0.00    +0.065 C 
ENDROOT
BRANCH   6  10
ATOM     10  C   UNL     1       3.858   5.946  -0.062  0.00  0.00    +0.050 A 
ATOM     11  C   UNL     1       4.246   6.923   0.844  0.00  0.00    +0.026 A 
ATOM     12  C   UNL     1       5.531   7.429   0.804  0.00  0.00    +0.002 A 
ATOM     13  C   UNL     1       6.426   6.972  -0.146  0.00  0.00    +0.000 A 
ATOM     14  C   UNL     1       6.040   6.003  -1.054  0.00  0.00    +0.002 A 
ATOM     15  C   UNL     1       4.759   5.489  -1.015  0.00  0.00    +0.026 A 
ENDBRANCH   6  10
BRANCH   8  16
ATOM     16  C   UNL     1       0.805   2.473   1.395  0.00  0.00    +0.342 C 
ATOM     17  O   UNL     1       1.737   1.832   1.838  0.00  0.00    -0.245 OA
BRANCH  16  18
ATOM     18  O   UNL     1      -0.457   2.026   1.555  0.00  0.00    -0.452 OA
BRANCH  18  19
ATOM     19  C   UNL     1      -0.627   0.772   2.266  0.00  0.00    +0.328 C 
BRANCH  19  20
ATOM     20  C   UNL     1      -2.093   0.435   2.347  0.00  0.00    +0.252 C 
ATOM     21  O   UNL     1      -2.914   1.179   1.854  0.00  0.00    -0.272 OA
ATOM     22  N   UNL     1      -2.492  -0.693   2.967  0.00  0.00    -0.295 N 
ATOM     23  H   UNL     1      -1.748  -1.367   3.415  0.00  0.00    +0.150 HD
BRANCH  22  24
ATOM     24  C   UNL     1      -3.918  -1.021   3.046  0.00  0.00    +0.121 C 
ATOM     25  C   UNL     1      -4.668   0.068   3.841  0.00  0.00    +0.041 C 
ATOM     26  C   UNL     1      -5.732  -0.717   4.648  0.00  0.00    +0.003 C 
ATOM     27  C   UNL     1      -4.976  -2.007   5.049  0.00  0.00    +0.003 C 
ATOM     28  C   UNL     1      -4.114  -2.340   3.813  0.00  0.00    +0.041 C 
BRANCH  24  29
ATOM     29  C   UNL     1      -4.484  -1.135   1.692  0.00  0.00    +0.088 C 
ATOM     30  N   UNL     1      -4.921  -1.224   0.647  0.00  0.00    -0.194 NA
ENDBRANCH  24  29
ENDBRANCH  22  24
ENDBRANCH  19  20
ENDBRANCH  18  19
ENDBRANCH  16  18
ENDBRANCH   8  16
TORSDOF 7
