REMARK  Name = ZINC36150676
REMARK  3 active torsions:
REMARK  status: ('A' for Active; 'I' for Inactive)
REMARK    1  A    between atoms: C_1  and  C_2
REMARK    2  A    between atoms: C_4  and  C_19
REMARK    3  A    between atoms: C_10  and  C_13
REMARK                            x       y       z     vdW  Elec       q    Type
REMARK                         _______ _______ _______ _____ _____    ______ ____
ROOT
ATOM      1  C   UNL     1      -0.019   1.526   0.010  0.00  0.00    +0.030 C 
ATOM      2  C   UNL     1       0.002  -0.004   0.002  0.00  0.00    +0.098 C 
ATOM      3  C   UNL     1       0.707  -0.492  -1.273  0.00  0.00    +0.073 C 
ATOM      4  S   UNL     1       0.439  -2.297  -1.374  0.00  0.00    -0.080 S 
ATOM      5  C   UNL     1       0.662  -2.753   0.320  0.00  0.00    +0.209 A 
ATOM      6  N   UNL     1       0.776  -3.936   0.845  0.00  0.00    -0.121 NA
ATOM      7  N   UNL     1       0.910  -3.824   2.123  0.00  0.00    -0.132 NA
ATOM      8  C   UNL     1       0.890  -2.566   2.469  0.00  0.00    +0.154 A 
ATOM      9  N   UNL     1       0.740  -1.831   1.329  0.00  0.00    -0.225 N 
ATOM     10  N   UNL     1       0.696  -0.482   1.197  0.00  0.00    -0.277 N 
ATOM     11  C   UNL     1       2.204  -0.189  -1.191  0.00  0.00    +0.021 C 
ATOM     12  H   UNL     1       1.619  -0.080   1.264  0.00  0.00    +0.167 HD
ENDROOT
BRANCH   8  13
ATOM     13  C   UNL     1       1.010  -2.024   3.870  0.00  0.00    +0.059 C 
ATOM     14  C   UNL     1       2.348  -2.457   4.472  0.00  0.00    +0.011 C 
ATOM     15  C   UNL     1       2.470  -1.907   5.894  0.00  0.00    +0.001 C 
ATOM     16  C   UNL     1       1.325  -2.452   6.751  0.00  0.00    +0.000 C 
ATOM     17  C   UNL     1      -0.013  -2.018   6.150  0.00  0.00    +0.001 C 
ATOM     18  C   UNL     1      -0.135  -2.568   4.727  0.00  0.00    +0.011 C 
ENDBRANCH   8  13
TORSDOF 1
