REMARK  Name = ZINC06194959
REMARK  7 active torsions:
REMARK  status: ('A' for Active; 'I' for Inactive)
REMARK    1  A    between atoms: C_1  and  C_2
REMARK    2  A    between atoms: C_6  and  C_15
REMARK    3  A    between atoms: C_13  and  C_14
REMARK    4  A    between atoms: C_15  and  C_17
REMARK    5  A    between atoms: C_15  and  N_28
REMARK    6  A    between atoms: N_21  and  C_22
REMARK    7  A    between atoms: C_36  and  C_38
REMARK                            x       y       z     vdW  Elec       q    Type
REMARK                         _______ _______ _______ _____ _____    ______ ____
ROOT
ATOM      1  C   UNL     1      -3.735   6.449   0.069  0.00  0.00    +0.179 C 
ENDROOT
BRANCH   1   7
ATOM      2  C   UNL     1      -0.131  -0.077  -0.095  0.00  0.00    +0.044 C 
ATOM      3  C   UNL     1      -0.121   1.428  -0.033  0.00  0.00    -0.047 A 
ATOM      4  C   UNL     1      -1.302   2.114  -0.043  0.00  0.00    +0.013 A 
ATOM      5  C   UNL     1      -1.293   3.511   0.019  0.00  0.00    -0.001 A 
ATOM      6  C   UNL     1      -2.541   4.278   0.014  0.00  0.00    +0.021 A 
ATOM      7  C   UNL     1      -2.470   5.630   0.071  0.00  0.00    +0.045 A 
ATOM      8  C   UNL     1      -1.216   6.275   0.133  0.00  0.00    +0.255 A 
ATOM      9  O   UNL     1      -1.175   7.492   0.183  0.00  0.00    -0.268 OA
ATOM     10  N   UNL     1      -0.065   5.580   0.137  0.00  0.00    -0.322 N 
ATOM     11  H   UNL     1       0.780   6.054   0.179  0.00  0.00    +0.169 HD
ATOM     12  C   UNL     1      -0.068   4.202   0.081  0.00  0.00    +0.049 A 
ATOM     13  C   UNL     1       1.122   3.483   0.085  0.00  0.00    +0.030 A 
ATOM     14  C   UNL     1       1.089   2.106   0.028  0.00  0.00    -0.046 A 
ATOM     15  C   UNL     1       2.380   1.328   0.033  0.00  0.00    +0.044 C 
ENDBRANCH   1   7
BRANCH   1  16
ATOM     16  N   UNL     1      -3.777   7.289   1.274  0.00  0.00    -0.312 N 
ATOM     17  C   UNL     1      -4.958   8.041   1.321  0.00  0.00    +0.034 A 
ATOM     18  C   UNL     1      -5.642   8.697   0.299  0.00  0.00    +0.023 A 
ATOM     19  C   UNL     1      -6.800   9.394   0.575  0.00  0.00    +0.002 A 
ATOM     20  C   UNL     1      -7.291   9.445   1.867  0.00  0.00    +0.000 A 
ATOM     21  C   UNL     1      -6.619   8.793   2.886  0.00  0.00    +0.005 A 
ATOM     22  C   UNL     1      -5.462   8.094   2.614  0.00  0.00    -0.025 A 
ATOM     23  C   UNL     1      -4.536   7.295   3.510  0.00  0.00    +0.059 C 
ATOM     24  C   UNL     1      -3.715   6.463   2.498  0.00  0.00    +0.076 C 
ATOM     25  C   UNL     1      -2.269   6.304   2.974  0.00  0.00    +0.028 C 
ENDBRANCH   1  16
BRANCH   1  26
ATOM     26  C   UNL     1      -3.764   7.326  -1.156  0.00  0.00    +0.177 A 
ATOM     27  N   UNL     1      -3.064   8.416  -1.356  0.00  0.00    -0.111 NA
ATOM     28  N   UNL     1      -3.368   8.877  -2.520  0.00  0.00    -0.023 NA
ATOM     29  N   UNL     1      -4.244   8.110  -3.068  0.00  0.00    -0.044 NA
ATOM     30  N   UNL     1      -4.511   7.139  -2.261  0.00  0.00    -0.224 N 
BRANCH  30  31
ATOM     31  C   UNL     1      -5.451   6.042  -2.500  0.00  0.00    +0.111 C 
ATOM     32  C   UNL     1      -5.015   5.256  -3.738  0.00  0.00    +0.027 C 
ATOM     33  C   UNL     1      -5.997   4.110  -3.988  0.00  0.00    +0.002 C 
ATOM     34  C   UNL     1      -7.399   4.680  -4.214  0.00  0.00    +0.000 C 
ATOM     35  C   UNL     1      -7.835   5.466  -2.975  0.00  0.00    +0.002 C 
ATOM     36  C   UNL     1      -6.853   6.612  -2.726  0.00  0.00    +0.027 C 
ENDBRANCH  30  31
ENDBRANCH   1  26
TORSDOF 4
