REMARK  Name = ZINC02141555
REMARK  3 active torsions:
REMARK  status: ('A' for Active; 'I' for Inactive)
REMARK    1  A    between atoms: C_4  and  N_14
REMARK    2  A    between atoms: C_6  and  N_7
REMARK    3  A    between atoms: C_8  and  C_10
REMARK                            x       y       z     vdW  Elec       q    Type
REMARK                         _______ _______ _______ _____ _____    ______ ____
ROOT
ATOM      1  C   UNL     1      -2.286  -0.279   0.192  0.00  0.00    +0.026 A 
ATOM      2  C   UNL     1      -3.442  -1.029   0.287  0.00  0.00    +0.042 A 
ATOM      3  C   UNL     1      -4.677  -0.402   0.290  0.00  0.00    +0.154 A 
ATOM      4  C   UNL     1      -4.755   0.978   0.203  0.00  0.00    +0.163 A 
ATOM      5  C   UNL     1      -3.601   1.732   0.113  0.00  0.00    +0.059 A 
ATOM      6  C   UNL     1      -2.362   1.105   0.110  0.00  0.00    +0.036 A 
ATOM      7  F   UNL     1      -5.806  -1.137   0.378  0.00  0.00    -0.203 F 
ENDROOT
BRANCH   6   8
ATOM      8  N   UNL     1      -1.191   1.867   0.018  0.00  0.00    -0.282 N 
ATOM      9  C   UNL     1      -1.125   3.076   0.609  0.00  0.00    +0.269 C 
ATOM     10  O   UNL     1      -2.107   3.541   1.149  0.00  0.00    -0.271 OA
ATOM     11  H   UNL     1      -0.426   1.524  -0.471  0.00  0.00    +0.155 HD
BRANCH   9  12
ATOM     12  C   UNL     1       0.169   3.848   0.605  0.00  0.00    +0.267 C 
ATOM     13 CL   UNL     1      -0.061   5.411   1.474  0.00  0.00    -0.074 Cl
ATOM     14 CL   UNL     1       1.447   2.882   1.432  0.00  0.00    -0.074 Cl
ATOM     15 CL   UNL     1       0.669   4.174  -1.096  0.00  0.00    -0.074 Cl
ENDBRANCH   9  12
ENDBRANCH   6   8
BRANCH   4  16
ATOM     16  N   UNL     1      -6.075   1.646   0.207  0.00  0.00    +0.059 N 
ATOM     17  O   UNL     1      -6.145   2.860   0.131  0.00  0.00    -0.126 OA
ATOM     18  O   UNL     1      -7.093   0.982   0.287  0.00  0.00    -0.126 OA
ENDBRANCH   4  16
TORSDOF 3
