REMARK  Name = ZINC05993295
REMARK  11 active torsions:
REMARK  status: ('A' for Active; 'I' for Inactive)
REMARK    1  A    between atoms: C_1  and  C_2
REMARK    2  A    between atoms: C_4  and  C_28
REMARK    3  A    between atoms: C_5  and  N_9
REMARK    4  A    between atoms: C_6  and  C_8
REMARK    5  A    between atoms: C_10  and  C_12
REMARK    6  A    between atoms: C_12  and  N_13
REMARK    7  A    between atoms: C_14  and  C_16
REMARK    8  A    between atoms: C_16  and  S_17
REMARK    9  A    between atoms: S_17  and  C_18
REMARK   10  A    between atoms: C_21  and  C_24
REMARK   11  A    between atoms: N_22  and  N_23
REMARK                            x       y       z     vdW  Elec       q    Type
REMARK                         _______ _______ _______ _____ _____    ______ ____
ROOT
ATOM      1  N   UNL     1      -2.983   5.194   8.084  0.00  0.00    -0.306 N 
ATOM      2  C   UNL     1      -2.414   5.638   6.946  0.00  0.00    +0.224 C 
ATOM      3  O   UNL     1      -3.021   6.396   6.220  0.00  0.00    -0.275 OA
ATOM      4  H   UNL     1      -2.497   4.587   8.665  0.00  0.00    +0.149 HD
ENDROOT
BRANCH   1   5
ATOM      5  C   UNL     1      -4.335   5.627   8.445  0.00  0.00    +0.200 C 
BRANCH   5   7
ATOM      6  N   UNL     1      -5.946   5.247  10.283  0.00  0.00    -0.284 N 
ATOM      7  C   UNL     1      -4.734   4.992   9.752  0.00  0.00    +0.234 C 
ATOM      8  O   UNL     1      -3.965   4.250  10.326  0.00  0.00    -0.274 OA
ATOM      9  H   UNL     1      -6.541   5.880   9.851  0.00  0.00    +0.155 HD
BRANCH   6  14
ATOM     10  C   UNL     1      -7.571   2.620  15.041  0.00  0.00    +0.044 C 
ATOM     11  C   UNL     1      -7.139   3.318  13.777  0.00  0.00    -0.050 A 
ATOM     12  C   UNL     1      -7.210   4.696  13.691  0.00  0.00    +0.008 A 
ATOM     13  C   UNL     1      -6.816   5.339  12.534  0.00  0.00    -0.029 A 
ATOM     14  C   UNL     1      -6.346   4.599  11.457  0.00  0.00    +0.039 A 
ATOM     15  C   UNL     1      -6.281   3.215  11.544  0.00  0.00    -0.029 A 
ATOM     16  C   UNL     1      -6.673   2.579  12.706  0.00  0.00    +0.008 A 
ATOM     17  C   UNL     1      -5.778   2.408  10.375  0.00  0.00    +0.045 C 
ATOM     18  C   UNL     1      -6.894   6.841  12.442  0.00  0.00    +0.045 C 
ENDBRANCH   6  14
ENDBRANCH   5   7
ENDBRANCH   1   5
BRANCH   2  19
ATOM     19  C   UNL     1      -1.022   5.193   6.575  0.00  0.00    +0.173 C 
BRANCH  19  20
ATOM     20  S   UNL     1      -0.543   5.956   5.005  0.00  0.00    -0.075 S 
BRANCH  20  21
ATOM     21  C   UNL     1       1.074   5.282   4.819  0.00  0.00    +0.209 A 
ATOM     22  N   UNL     1       1.678   4.461   5.647  0.00  0.00    -0.121 NA
ATOM     23  N   UNL     1       2.846   4.168   5.197  0.00  0.00    -0.123 NA
ATOM     24  C   UNL     1       3.059   4.787   4.070  0.00  0.00    +0.255 A 
ATOM     25  N   UNL     1       1.937   5.516   3.787  0.00  0.00    -0.220 N 
BRANCH  24  26
ATOM     26  C   UNL     1       4.309   4.709   3.231  0.00  0.00    +0.454 C 
ATOM     27  F   UNL     1       5.085   3.624   3.652  0.00  0.00    -0.163 F 
ATOM     28  F   UNL     1       5.042   5.891   3.376  0.00  0.00    -0.163 F 
ATOM     29  F   UNL     1       3.958   4.538   1.888  0.00  0.00    -0.163 F 
ENDBRANCH  24  26
BRANCH  25  30
ATOM     30  N   UNL     1       1.724   6.312   2.698  0.00  0.00    -0.295 N 
ATOM     31  H   UNL     1       1.308   5.788   1.943  0.00  0.00    +0.163 HD
ATOM     32  H   UNL     1       1.157   7.111   2.940  0.00  0.00    +0.163 HD
ENDBRANCH  25  30
ENDBRANCH  20  21
ENDBRANCH  19  20
ENDBRANCH   2  19
TORSDOF 8
