REMARK  Name = ZINC50594548
REMARK  4 active torsions:
REMARK  status: ('A' for Active; 'I' for Inactive)
REMARK    1  A    between atoms: C_1  and  C_2
REMARK    2  A    between atoms: C_4  and  C_16
REMARK    3  A    between atoms: N_5  and  C_7
REMARK    4  A    between atoms: C_12  and  N_13
REMARK                            x       y       z     vdW  Elec       q    Type
REMARK                         _______ _______ _______ _____ _____    ______ ____
ROOT
ATOM      1  C   UNL     1       0.243  -3.236   1.444  0.00  0.00    +0.096 A 
ATOM      2  C   UNL     1       1.208  -4.195   1.166  0.00  0.00    +0.030 A 
ATOM      3  C   UNL     1       1.309  -5.321   1.959  0.00  0.00    +0.002 A 
ATOM      4  C   UNL     1       0.450  -5.494   3.030  0.00  0.00    +0.002 A 
ATOM      5  C   UNL     1      -0.512  -4.540   3.309  0.00  0.00    +0.035 A 
ATOM      6  C   UNL     1      -0.613  -3.409   2.523  0.00  0.00    +0.151 A 
ENDROOT
BRANCH   1  11
ATOM      7  C   UNL     1       0.153   1.527   0.060  0.00  0.00    +0.069 C 
ATOM      8  C   UNL     1       0.101   0.021   0.041  0.00  0.00    +0.075 A 
ATOM      9  C   UNL     1      -0.124  -0.776  -1.088  0.00  0.00    +0.062 A 
ATOM     10  C   UNL     1      -0.097  -2.071  -0.696  0.00  0.00    +0.056 A 
ATOM     11  N   UNL     1       0.139  -2.091   0.641  0.00  0.00    -0.233 N 
ATOM     12  N   UNL     1       0.263  -0.765   1.074  0.00  0.00    -0.170 NA
ATOM     13  C   UNL     1      -0.292  -3.274  -1.584  0.00  0.00    +0.067 C 
ATOM     14 BR   UNL     1      -0.416  -0.152  -2.849  0.00  0.00    -0.047 Br
ENDBRANCH   1  11
BRANCH   6  15
ATOM     15  N   UNL     1      -1.639  -2.385   2.826  0.00  0.00    +0.059 N 
ATOM     16  O   UNL     1      -2.313  -2.483   3.825  0.00  0.00    -0.126 OA
ATOM     17  O   UNL     1      -1.802  -1.452   2.075  0.00  0.00    -0.126 OA
ENDBRANCH   6  15
TORSDOF 2
