REMARK  Name = ZINC33045272
REMARK  6 active torsions:
REMARK  status: ('A' for Active; 'I' for Inactive)
REMARK    1  A    between atoms: C_1  and  C_2
REMARK    2  A    between atoms: C_2  and  C_3
REMARK    3  A    between atoms: C_2  and  C_4
REMARK    4  A    between atoms: C_2  and  C_5
REMARK    5  A    between atoms: C_11  and  N_13
REMARK    6  A    between atoms: C_14  and  C_16
REMARK                            x       y       z     vdW  Elec       q    Type
REMARK                         _______ _______ _______ _____ _____    ______ ____
ROOT
ATOM      1  N   UNL     1      -0.267   1.798  -3.638  0.00  0.00    -0.312 N 
ATOM      2  C   UNL     1       0.237   1.741  -2.389  0.00  0.00    +0.218 C 
ATOM      3  O   UNL     1       1.327   1.246  -2.197  0.00  0.00    -0.275 OA
ATOM      4  H   UNL     1      -1.255   2.247  -3.812  0.00  0.00    +0.149 HD
ENDROOT
BRANCH   2   5
ATOM      5  C   UNL     1      -0.554   2.294  -1.232  0.00  0.00    +0.092 C 
ATOM      6  C   UNL     1       0.238   2.106   0.064  0.00  0.00    +0.016 C 
ATOM      7  C   UNL     1      -0.550   2.697   1.236  0.00  0.00    +0.020 C 
ATOM      8  C   UNL     1      -1.884   1.957   1.373  0.00  0.00    +0.109 C 
ATOM      9  N   UNL     1      -2.588   2.009   0.085  0.00  0.00    -0.285 N 
ATOM     10  C   UNL     1      -1.888   1.550  -1.123  0.00  0.00    +0.122 C 
ATOM     11  C   UNL     1      -3.853   2.470   0.011  0.00  0.00    +0.300 C 
ATOM     12  O   UNL     1      -4.391   2.599  -1.071  0.00  0.00    -0.253 OA
ATOM     13  N   UNL     1      -4.520   2.789   1.138  0.00  0.00    -0.313 N 
ATOM     14  H   UNL     1      -5.552   3.165   1.079  0.00  0.00    +0.146 HD
ATOM     15  H   UNL     1      -4.033   2.673   2.118  0.00  0.00    +0.146 HD
ENDBRANCH   2   5
BRANCH   1  21
ATOM     16  C   UNL     1      -0.457   0.700  -5.815  0.00  0.00    +0.015 C 
ATOM     17  C   UNL     1       0.346   0.139  -6.990  0.00  0.00    +0.006 C 
ATOM     18  C   UNL     1       1.189   1.255  -7.611  0.00  0.00    +0.000 C 
ATOM     19  C   UNL     1       2.148   1.815  -6.559  0.00  0.00    +0.002 C 
ATOM     20  C   UNL     1       1.345   2.376  -5.384  0.00  0.00    +0.022 C 
ATOM     21  C   UNL     1       0.502   1.260  -4.763  0.00  0.00    +0.077 C 
BRANCH  16  23
ATOM     22  C   UNL     1      -2.219   0.175  -4.123  0.00  0.00    +0.011 C 
ATOM     23  C   UNL     1      -1.300  -0.416  -5.194  0.00  0.00    -0.033 C 
ATOM     24  C   UNL     1      -2.146  -1.081  -6.282  0.00  0.00    +0.011 C 
ATOM     25  C   UNL     1      -0.378  -1.457  -4.557  0.00  0.00    +0.011 C 
ENDBRANCH  16  23
ENDBRANCH   1  21
TORSDOF 3
