REMARK  Name = ZINC02410807
REMARK  8 active torsions:
REMARK  status: ('A' for Active; 'I' for Inactive)
REMARK    1  A    between atoms: C_1  and  C_2
REMARK    2  A    between atoms: C_2  and  C_28
REMARK    3  A    between atoms: C_9  and  N_25
REMARK    4  A    between atoms: C_11  and  S_13
REMARK    5  A    between atoms: S_13  and  C_14
REMARK    6  A    between atoms: C_14  and  C_15
REMARK    7  A    between atoms: N_17  and  C_18
REMARK    8  A    between atoms: C_18  and  C_19
REMARK                            x       y       z     vdW  Elec       q    Type
REMARK                         _______ _______ _______ _____ _____    ______ ____
ROOT
ATOM      1  C   UNL     1      -1.252   1.262  -0.397  0.00  0.00    +0.041 C 
ATOM      2  C   UNL     1      -1.097  -0.260  -0.425  0.00  0.00    +0.068 C 
ATOM      3  C   UNL     1      -0.052  -0.644  -1.476  0.00  0.00    +0.071 C 
ATOM      4  C   UNL     1       0.249  -2.134  -1.325  0.00  0.00    -0.020 A 
ATOM      5  C   UNL     1      -0.091  -2.766  -0.177  0.00  0.00    +0.021 A 
ATOM      6  S   UNL     1       0.420  -4.449  -0.402  0.00  0.00    -0.071 S 
ATOM      7  C   UNL     1       1.087  -4.306  -2.029  0.00  0.00    +0.115 A 
ATOM      8  C   UNL     1       0.888  -2.938  -2.350  0.00  0.00    +0.051 A 
ATOM      9  C   UNL     1       1.334  -2.505  -3.632  0.00  0.00    +0.129 A 
ATOM     10  N   UNL     1       1.894  -3.436  -4.400  0.00  0.00    -0.207 NA
ATOM     11  C   UNL     1       2.048  -4.700  -4.036  0.00  0.00    +0.191 A 
ATOM     12  N   UNL     1       1.652  -5.169  -2.849  0.00  0.00    -0.214 NA
ATOM     13  C   UNL     1      -0.756  -2.146   1.012  0.00  0.00    +0.203 C 
ATOM     14  O   UNL     1      -0.688  -0.719   0.866  0.00  0.00    -0.368 OA
ATOM     15  C   UNL     1      -2.439  -0.899  -0.790  0.00  0.00    +0.041 C 
ENDROOT
BRANCH   9  16
ATOM     16  N   UNL     1       1.194  -1.195  -4.053  0.00  0.00    -0.343 N 
ATOM     17  H   UNL     1       0.928  -0.509  -3.421  0.00  0.00    +0.144 HD
ATOM     18  H   UNL     1       1.360  -0.963  -4.980  0.00  0.00    +0.144 HD
ENDBRANCH   9  16
BRANCH  11  19
ATOM     19  S   UNL     1       2.809  -5.815  -5.168  0.00  0.00    -0.077 S 
BRANCH  19  20
ATOM     20  C   UNL     1       3.180  -4.786  -6.615  0.00  0.00    +0.173 C 
BRANCH  20  21
ATOM     21  C   UNL     1       3.843  -5.628  -7.674  0.00  0.00    +0.223 C 
ATOM     22  O   UNL     1       4.046  -6.807  -7.473  0.00  0.00    -0.275 OA
ATOM     23  N   UNL     1       4.211  -5.072  -8.845  0.00  0.00    -0.312 N 
ATOM     24  H   UNL     1       4.048  -4.129  -9.007  0.00  0.00    +0.149 HD
BRANCH  23  25
ATOM     25  C   UNL     1       4.855  -5.890  -9.875  0.00  0.00    +0.135 C 
BRANCH  25  26
ATOM     26  C   UNL     1       5.168  -5.022 -11.095  0.00  0.00    +0.135 C 
ATOM     27  C   UNL     1       5.819  -5.878 -12.211  0.00  0.00    +0.035 C 
ATOM     28  C   UNL     1       5.454  -5.046 -13.471  0.00  0.00    +0.031 C 
ATOM     29  C   UNL     1       4.066  -4.480 -13.099  0.00  0.00    +0.160 C 
ATOM     30  O   UNL     1       3.953  -4.514 -11.670  0.00  0.00    -0.375 OA
ENDBRANCH  25  26
ENDBRANCH  23  25
ENDBRANCH  20  21
ENDBRANCH  19  20
ENDBRANCH  11  19
TORSDOF 6
