REMARK  Name = ZINC35462801
REMARK  5 active torsions:
REMARK  status: ('A' for Active; 'I' for Inactive)
REMARK    1  A    between atoms: C_1  and  C_2
REMARK    2  A    between atoms: C_2  and  O_3
REMARK    3  A    between atoms: O_3  and  C_4
REMARK    4  A    between atoms: C_7  and  N_10
REMARK    5  A    between atoms: C_11  and  C_13
REMARK                            x       y       z     vdW  Elec       q    Type
REMARK                         _______ _______ _______ _____ _____    ______ ____
ROOT
ATOM      1  C   UNL     1       1.651  -7.929  -3.195  0.00  0.00    +0.247 C 
ATOM      2  N   UNL     1       2.069  -8.210  -4.566  0.00  0.00    -0.319 N 
ATOM      3  C   UNL     1       3.365  -8.002  -5.029  0.00  0.00    +0.058 A 
ATOM      4  C   UNL     1       3.573  -7.850  -6.398  0.00  0.00    +0.063 A 
ATOM      5  C   UNL     1       4.850  -7.659  -6.890  0.00  0.00    +0.125 A 
ATOM      6  C   UNL     1       5.931  -7.618  -6.026  0.00  0.00    +0.040 A 
ATOM      7  C   UNL     1       5.730  -7.761  -4.665  0.00  0.00    +0.033 A 
ATOM      8  C   UNL     1       4.456  -7.943  -4.171  0.00  0.00    +0.126 A 
ATOM      9  S   UNL     1       4.201  -8.085  -2.427  0.00  0.00    +0.062 S 
ATOM     10  O   UNL     1       5.006  -9.166  -1.977  0.00  0.00    -0.153 OA
ATOM     11  O   UNL     1       4.298  -6.776  -1.885  0.00  0.00    -0.153 OA
ATOM     12  N   UNL     1       2.607  -8.564  -2.266  0.00  0.00    -0.161 NA
ATOM     13  F   UNL     1       5.044  -7.512  -8.219  0.00  0.00    -0.205 F 
ATOM     14  H   UNL     1       1.410  -8.560  -5.186  0.00  0.00    +0.148 HD
ATOM     15  H   UNL     1       2.328  -9.218  -1.606  0.00  0.00    +0.151 HD
ENDROOT
BRANCH   1  17
ATOM     16  N   UNL     1       1.034  -5.933  -1.872  0.00  0.00    -0.283 N 
ATOM     17  C   UNL     1       1.635  -6.440  -2.966  0.00  0.00    +0.254 C 
ATOM     18  O   UNL     1       2.165  -5.698  -3.765  0.00  0.00    -0.272 OA
ATOM     19  H   UNL     1       0.676  -6.528  -1.195  0.00  0.00    +0.155 HD
BRANCH  16  23
ATOM     20  C   UNL     1       0.709  -1.803  -1.397  0.00  0.00    +0.121 A 
ATOM     21  C   UNL     1       0.660  -2.361  -2.666  0.00  0.00    +0.047 A 
ATOM     22  C   UNL     1       0.767  -3.728  -2.824  0.00  0.00    +0.027 A 
ATOM     23  C   UNL     1       0.925  -4.545  -1.712  0.00  0.00    +0.034 A 
ATOM     24  C   UNL     1       0.974  -3.986  -0.442  0.00  0.00    +0.027 A 
ATOM     25  C   UNL     1       0.872  -2.618  -0.286  0.00  0.00    +0.047 A 
BRANCH  20  26
ATOM     26  O   UNL     1       0.603  -0.456  -1.242  0.00  0.00    -0.492 OA
BRANCH  26  28
ATOM     27  C   UNL     1       0.336   1.803  -2.057  0.00  0.00    +0.048 C 
ATOM     28  C   UNL     1       0.436   0.322  -2.428  0.00  0.00    +0.225 C 
ENDBRANCH  26  28
ENDBRANCH  20  26
ENDBRANCH  16  23
ENDBRANCH   1  17
TORSDOF 4
