REMARK  Name = ZINC45665921
REMARK  6 active torsions:
REMARK  status: ('A' for Active; 'I' for Inactive)
REMARK    1  A    between atoms: C_1  and  C_2
REMARK    2  A    between atoms: N_5  and  S_11
REMARK    3  A    between atoms: C_7  and  C_9
REMARK    4  A    between atoms: C_7  and  C_10
REMARK    5  A    between atoms: S_11  and  C_14
REMARK    6  A    between atoms: C_16  and  N_21
REMARK                            x       y       z     vdW  Elec       q    Type
REMARK                         _______ _______ _______ _____ _____    ______ ____
ROOT
ATOM      1  S   UNL     1       0.438  -2.962  -2.386  0.00  0.00    +0.062 S 
ATOM      2  O   UNL     1       0.199  -4.236  -1.805  0.00  0.00    -0.153 OA
ATOM      3  O   UNL     1      -0.552  -2.266  -3.131  0.00  0.00    -0.153 OA
ENDROOT
BRANCH   1   7
ATOM      4  C   UNL     1      -0.019   1.526   0.010  0.00  0.00    +0.039 C 
ATOM      5  C   UNL     1       0.002  -0.004   0.002  0.00  0.00    +0.132 C 
ATOM      6  C   UNL     1       0.722  -0.499  -1.258  0.00  0.00    +0.140 C 
ATOM      7  N   UNL     1       0.894  -1.957  -1.151  0.00  0.00    -0.171 NA
ATOM      8  C   UNL     1       1.483  -2.495   0.085  0.00  0.00    +0.144 C 
ATOM      9  C   UNL     1       0.726  -1.903   1.280  0.00  0.00    +0.079 C 
ATOM     10  O   UNL     1       0.695  -0.479   1.159  0.00  0.00    -0.368 OA
ATOM     11  C   UNL     1       1.437  -2.290   2.578  0.00  0.00    +0.042 C 
ATOM     12  C   UNL     1      -0.705  -2.444   1.298  0.00  0.00    +0.042 C 
ENDBRANCH   1   7
BRANCH   1  13
ATOM     13  C   UNL     1       1.831  -3.146  -3.449  0.00  0.00    +0.125 A 
ATOM     14  C   UNL     1       2.431  -4.382  -3.593  0.00  0.00    +0.052 A 
ATOM     15  C   UNL     1       3.529  -4.527  -4.431  0.00  0.00    +0.026 A 
ATOM     16  C   UNL     1       4.021  -3.427  -5.122  0.00  0.00    +0.024 A 
ATOM     17  C   UNL     1       3.417  -2.193  -4.975  0.00  0.00    +0.024 A 
ATOM     18  C   UNL     1       2.320  -2.054  -4.143  0.00  0.00    +0.067 A 
ATOM     19 CL   UNL     1       1.560  -0.503  -3.965  0.00  0.00    -0.082 Cl
BRANCH  15  20
ATOM     20  N   UNL     1       4.137  -5.776  -4.578  0.00  0.00    -0.358 N 
ATOM     21  H   UNL     1       3.793  -6.543  -4.094  0.00  0.00    +0.142 HD
ATOM     22  H   UNL     1       4.904  -5.876  -5.163  0.00  0.00    +0.142 HD
ENDBRANCH  15  20
ENDBRANCH   1  13
TORSDOF 3
