REMARK  Name = ZINC20793038
REMARK  6 active torsions:
REMARK  status: ('A' for Active; 'I' for Inactive)
REMARK    1  A    between atoms: C_1  and  C_2
REMARK    2  A    between atoms: C_8  and  N_10
REMARK    3  A    between atoms: C_11  and  C_13
REMARK    4  A    between atoms: C_13  and  S_14
REMARK    5  A    between atoms: S_14  and  C_15
REMARK    6  A    between atoms: N_19  and  C_30
REMARK                            x       y       z     vdW  Elec       q    Type
REMARK                         _______ _______ _______ _____ _____    ______ ____
ROOT
ATOM      1  C   UNL     1      -2.580   1.813   2.663  0.00  0.00    +0.172 A 
ATOM      2  N   UNL     1      -1.912   2.394   3.620  0.00  0.00    -0.202 NA
ATOM      3  C   UNL     1      -0.583   2.625   3.477  0.00  0.00    +0.190 A 
ATOM      4  N   UNL     1       0.348   3.173   4.214  0.00  0.00    -0.143 NA
ATOM      5  N   UNL     1       1.586   3.140   3.566  0.00  0.00    -0.194 N 
ATOM      6  C   UNL     1       1.468   2.549   2.357  0.00  0.00    +0.284 A 
ATOM      7  O   UNL     1       2.357   2.358   1.544  0.00  0.00    -0.265 OA
ATOM      8  C   UNL     1       0.061   2.184   2.221  0.00  0.00    +0.106 A 
ATOM      9  C   UNL     1      -0.703   1.564   1.256  0.00  0.00    +0.037 A 
ATOM     10  N   UNL     1      -2.018   1.408   1.471  0.00  0.00    -0.323 N 
ATOM     11  C   UNL     1      -2.941   0.821   0.490  0.00  0.00    +0.124 C 
ATOM     12  C   UNL     1      -2.248  -0.207  -0.401  0.00  0.00    +0.022 C 
ATOM     13  C   UNL     1      -1.734   0.504  -1.657  0.00  0.00    +0.002 C 
ATOM     14  C   UNL     1      -0.740   1.586  -1.244  0.00  0.00    +0.006 C 
ATOM     15  C   UNL     1      -0.013   1.086   0.008  0.00  0.00    +0.054 C 
ENDROOT
BRANCH   5  16
ATOM     16  C   UNL     1       2.777   3.649   4.094  0.00  0.00    +0.069 A 
ATOM     17  C   UNL     1       3.983   3.010   3.833  0.00  0.00    +0.028 A 
ATOM     18  C   UNL     1       5.158   3.516   4.351  0.00  0.00    +0.002 A 
ATOM     19  C   UNL     1       5.135   4.653   5.138  0.00  0.00    +0.000 A 
ATOM     20  C   UNL     1       3.936   5.290   5.404  0.00  0.00    +0.002 A 
ATOM     21  C   UNL     1       2.757   4.791   4.885  0.00  0.00    +0.028 A 
ENDBRANCH   5  16
BRANCH   1  22
ATOM     22  S   UNL     1      -4.303   1.533   2.907  0.00  0.00    -0.078 S 
BRANCH  22  23
ATOM     23  C   UNL     1      -4.502   2.229   4.566  0.00  0.00    +0.173 C 
BRANCH  23  25
ATOM     24  N   UNL     1      -6.326   2.550   6.206  0.00  0.00    -0.312 N 
ATOM     25  C   UNL     1      -5.940   2.096   4.997  0.00  0.00    +0.224 C 
ATOM     26  O   UNL     1      -6.750   1.582   4.255  0.00  0.00    -0.275 OA
ATOM     27  H   UNL     1      -5.592   3.016   6.878  0.00  0.00    +0.149 HD
BRANCH  24  34
ATOM     28  C   UNL     1      -7.822   4.880   7.055  0.00  0.00    +0.009 C 
ATOM     29  C   UNL     1      -8.046   3.495   7.665  0.00  0.00    +0.006 C 
ATOM     30  C   UNL     1      -7.132   3.319   8.880  0.00  0.00    +0.005 C 
ATOM     31  C   UNL     1      -7.355   1.934   9.490  0.00  0.00    +0.000 C 
ATOM     32  C   UNL     1      -7.034   0.860   8.449  0.00  0.00    +0.002 C 
ATOM     33  C   UNL     1      -7.948   1.035   7.235  0.00  0.00    +0.022 C 
ATOM     34  C   UNL     1      -7.724   2.420   6.625  0.00  0.00    +0.076 C 
ENDBRANCH  24  34
ENDBRANCH  23  25
ENDBRANCH  22  23
ENDBRANCH   1  22
TORSDOF 5
