REMARK  Name = ZINC48706302
REMARK  4 active torsions:
REMARK  status: ('A' for Active; 'I' for Inactive)
REMARK    1  A    between atoms: C_1  and  N_2
REMARK    2  A    between atoms: N_2  and  C_3
REMARK    3  A    between atoms: N_2  and  C_11
REMARK    4  A    between atoms: C_3  and  N_4
REMARK                            x       y       z     vdW  Elec       q    Type
REMARK                         _______ _______ _______ _____ _____    ______ ____
ROOT
ATOM      1  C   UNL     1       0.176   1.437   0.226  0.00  0.00    -0.093 C 
ATOM      2  N   UNL     1       0.002  -0.004   0.002  0.00  0.00    +0.392 N 
ATOM      3  H   UNL     1       0.426  -0.516   0.761  0.00  0.00    -0.079 HD
ENDROOT
BRANCH   2   4
ATOM      4  C   UNL     1       0.644  -0.384  -1.264  0.00  0.00    -0.036 C 
ATOM      5  C   UNL     1       0.655  -1.919  -1.419  0.00  0.00    -0.006 C 
ATOM      6  C   UNL     1       2.023  -2.304  -0.817  0.00  0.00    +0.034 C 
ATOM      7  C   UNL     1       2.894  -1.080  -0.999  0.00  0.00    -0.046 A 
ATOM      8  C   UNL     1       2.101   0.026  -1.257  0.00  0.00    -0.058 A 
ATOM      9  C   UNL     1       2.686   1.265  -1.460  0.00  0.00    +0.002 A 
ATOM     10  C   UNL     1       4.059   1.403  -1.405  0.00  0.00    +0.000 A 
ATOM     11  C   UNL     1       4.853   0.301  -1.148  0.00  0.00    +0.000 A 
ATOM     12  C   UNL     1       4.271  -0.942  -0.945  0.00  0.00    +0.004 A 
ENDBRANCH   2   4
BRANCH   2  13
ATOM     13  C   UNL     1      -1.431  -0.321  -0.062  0.00  0.00    +0.034 C 
BRANCH  13  14
ATOM     14  N   UNL     1      -2.047  -0.062   1.242  0.00  0.00    -0.198 NA
ATOM     15  C   UNL     1      -2.917   1.072   1.604  0.00  0.00    +0.108 C 
ATOM     16  C   UNL     1      -3.906   0.670   2.714  0.00  0.00    +0.041 C 
ATOM     17  C   UNL     1      -3.047  -0.100   3.762  0.00  0.00    +0.186 C 
ATOM     18  S   UNL     1      -1.912  -0.997   2.627  0.00  0.00    +0.030 S 
ATOM     19  O   UNL     1      -2.445  -2.268   2.279  0.00  0.00    -0.158 OA
ATOM     20  O   UNL     1      -0.563  -0.856   3.051  0.00  0.00    -0.158 OA
ENDBRANCH  13  14
ENDBRANCH   2  13
TORSDOF 3
