REMARK  Name = ZINC58893929
REMARK  3 active torsions:
REMARK  status: ('A' for Active; 'I' for Inactive)
REMARK    1  A    between atoms: C_4  and  N_13
REMARK    2  A    between atoms: C_6  and  N_7
REMARK    3  A    between atoms: C_22  and  C_24
REMARK                            x       y       z     vdW  Elec       q    Type
REMARK                         _______ _______ _______ _____ _____    ______ ____
ROOT
ATOM      1  N   UNL     1       3.644  -0.685  -0.089  0.00  0.00    -0.268 N 
ATOM      2  C   UNL     1       3.668  -2.031  -0.017  0.00  0.00    +0.307 C 
ATOM      3  O   UNL     1       2.626  -2.657  -0.010  0.00  0.00    -0.252 OA
ATOM      4  N   UNL     1       4.846  -2.682   0.047  0.00  0.00    -0.282 N 
ATOM      5  C   UNL     1       6.114  -1.947  -0.061  0.00  0.00    +0.128 C 
ATOM      6  C   UNL     1       6.972  -2.266   1.169  0.00  0.00    +0.127 C 
ATOM      7  N   UNL     1       7.012  -3.724   1.349  0.00  0.00    -0.296 N 
ATOM      8  C   UNL     1       5.744  -4.459   1.457  0.00  0.00    +0.127 C 
ATOM      9  C   UNL     1       4.886  -4.139   0.232  0.00  0.00    +0.128 C 
ATOM     10  C   UNL     1       8.190  -4.375   1.413  0.00  0.00    +0.245 C 
ATOM     11  O   UNL     1       9.230  -3.757   1.322  0.00  0.00    -0.273 OA
ATOM     12  H   UNL     1       4.476  -0.186  -0.115  0.00  0.00    +0.156 HD
ENDROOT
BRANCH   1  16
ATOM     13  C   UNL     1       0.000   1.343  -0.195  0.00  0.00    +0.025 A 
ATOM     14  C   UNL     1       1.143   1.997   0.223  0.00  0.00    +0.023 A 
ATOM     15  C   UNL     1       2.352   1.327   0.259  0.00  0.00    +0.062 A 
ATOM     16  C   UNL     1       2.420  -0.007  -0.125  0.00  0.00    +0.055 A 
ATOM     17  C   UNL     1       1.274  -0.666  -0.545  0.00  0.00    +0.048 A 
ATOM     18  C   UNL     1       0.062   0.010  -0.580  0.00  0.00    +0.038 A 
ATOM     19 CL   UNL     1       3.786   2.153   0.785  0.00  0.00    -0.082 Cl
BRANCH  18  20
ATOM     20  N   UNL     1      -1.097  -0.652  -1.003  0.00  0.00    -0.271 N 
ATOM     21  C   UNL     1      -1.169  -2.087  -1.299  0.00  0.00    +0.114 C 
ATOM     22  C   UNL     1      -2.674  -2.434  -1.292  0.00  0.00    +0.029 C 
ATOM     23  C   UNL     1      -3.314  -1.069  -1.637  0.00  0.00    +0.098 C 
ATOM     24  C   UNL     1      -2.287  -0.055  -1.185  0.00  0.00    +0.220 C 
ATOM     25  O   UNL     1      -2.506   1.126  -1.013  0.00  0.00    -0.275 OA
ENDBRANCH  18  20
ENDBRANCH   1  16
BRANCH  10  26
ATOM     26  C   UNL     1       8.215  -5.870   1.597  0.00  0.00    +0.204 C 
ATOM     27  C   UNL     1       7.633  -6.238   2.979  0.00  0.00    +0.043 C 
ATOM     28  C   UNL     1       8.565  -7.395   3.432  0.00  0.00    +0.031 C 
ATOM     29  C   UNL     1       9.913  -6.946   2.814  0.00  0.00    +0.161 C 
ATOM     30  O   UNL     1       9.567  -6.342   1.555  0.00  0.00    -0.367 OA
ENDBRANCH  10  26
TORSDOF 3
