REMARK  Name = ZINC39353692
REMARK  9 active torsions:
REMARK  status: ('A' for Active; 'I' for Inactive)
REMARK    1  A    between atoms: C_1  and  C_2
REMARK    2  A    between atoms: C_4  and  C_37
REMARK    3  A    between atoms: C_6  and  C_8
REMARK    4  A    between atoms: C_15  and  C_26
REMARK    5  A    between atoms: C_17  and  O_24
REMARK    6  A    between atoms: O_24  and  C_25
REMARK    7  A    between atoms: N_28  and  C_29
REMARK    8  A    between atoms: C_29  and  C_31
REMARK    9  A    between atoms: C_29  and  C_32
REMARK                            x       y       z     vdW  Elec       q    Type
REMARK                         _______ _______ _______ _____ _____    ______ ____
ROOT
ATOM      1  C   UNL     1       1.091  -0.780   2.058  0.00  0.00    +0.244 C 
ATOM      2  O   UNL     1       0.074  -1.111   1.486  0.00  0.00    -0.273 OA
ATOM      3  N   UNL     1       1.097   0.320   2.837  0.00  0.00    -0.298 N 
ATOM      4  C   UNL     1       2.325   0.781   3.427  0.00  0.00    +0.110 C 
ATOM      5  C   UNL     1       3.090   1.760   2.550  0.00  0.00    +0.042 C 
ATOM      6  C   UNL     1       2.515   3.162   2.622  0.00  0.00    +0.097 C 
ATOM      7  C   UNL     1       3.212   4.119   1.674  0.00  0.00    +0.161 C 
ATOM      8  C   UNL     1       2.815   3.876   0.244  0.00  0.00    +0.116 C 
ATOM      9  C   UNL     1       1.584   3.438  -0.059  0.00  0.00    +0.109 C 
ATOM     10  C   UNL     1       0.665   3.155   0.985  0.00  0.00    +0.243 C 
ATOM     11  O   UNL     1      -0.524   3.075   0.738  0.00  0.00    -0.271 OA
ATOM     12  N   UNL     1       1.090   2.976   2.241  0.00  0.00    -0.292 N 
ATOM     13  C   UNL     1       0.243   2.528   3.353  0.00  0.00    +0.127 C 
ATOM     14  C   UNL     1      -0.184   1.079   3.091  0.00  0.00    +0.127 C 
ENDROOT
BRANCH   1  20
ATOM     15  C   UNL     1       2.459  -2.459   4.459  0.00  0.00    +0.042 C 
ATOM     16  C   UNL     1       2.413  -2.668   2.967  0.00  0.00    -0.038 C 
ATOM     17  C   UNL     1       2.418  -3.832   2.320  0.00  0.00    +0.024 C 
ATOM     18  C   UNL     1       2.364  -3.588   0.878  0.00  0.00    +0.034 C 
ATOM     19  N   UNL     1       2.326  -2.323   0.622  0.00  0.00    -0.271 NA
ATOM     20  C   UNL     1       2.346  -1.598   1.899  0.00  0.00    +0.217 C 
ATOM     21  C   UNL     1       2.353  -4.671  -0.170  0.00  0.00    +0.065 C 
ENDBRANCH   1  20
BRANCH   7  22
ATOM     22  C   UNL     1       2.851   5.533   2.049  0.00  0.00    +0.226 C 
ATOM     23  O   UNL     1       2.107   5.742   2.984  0.00  0.00    -0.275 OA
ATOM     24  N   UNL     1       3.353   6.567   1.344  0.00  0.00    -0.305 N 
ATOM     25  H   UNL     1       3.947   6.400   0.596  0.00  0.00    +0.149 HD
BRANCH  24  26
ATOM     26  C   UNL     1       3.001   7.941   1.709  0.00  0.00    +0.136 C 
ATOM     27  C   UNL     1       3.937   8.431   2.815  0.00  0.00    +0.036 C 
BRANCH  26  28
ATOM     28  C   UNL     1       3.141   8.833   0.501  0.00  0.00    +0.125 A 
ATOM     29  C   UNL     1       2.308   9.833   0.161  0.00  0.00    +0.046 A 
ATOM     30  C   UNL     1       2.814  10.398  -1.032  0.00  0.00    +0.041 A 
ATOM     31  C   UNL     1       3.925   9.710  -1.349  0.00  0.00    +0.195 A 
ATOM     32  O   UNL     1       4.122   8.767  -0.414  0.00  0.00    -0.466 OA
ENDBRANCH  26  28
ENDBRANCH  24  26
ENDBRANCH   7  22
BRANCH   8  33
ATOM     33  O   UNL     1       3.706   4.100  -0.743  0.00  0.00    -0.498 OA
ATOM     34  C   UNL     1       3.269   3.851  -2.080  0.00  0.00    +0.276 C 
ENDBRANCH   8  33
TORSDOF 5
