REMARK  Name = ZINC48214421
REMARK  10 active torsions:
REMARK  status: ('A' for Active; 'I' for Inactive)
REMARK    1  A    between atoms: C_1  and  C_2
REMARK    2  A    between atoms: C_2  and  N_3
REMARK    3  A    between atoms: N_6  and  C_9
REMARK    4  A    between atoms: C_9  and  C_10
REMARK    5  A    between atoms: C_13  and  N_16
REMARK    6  A    between atoms: N_19  and  C_20
REMARK    7  A    between atoms: C_20  and  C_22
REMARK    8  A    between atoms: C_20  and  C_23
REMARK    9  A    between atoms: C_28  and  O_29
REMARK   10  A    between atoms: O_29  and  C_30
REMARK                            x       y       z     vdW  Elec       q    Type
REMARK                         _______ _______ _______ _____ _____    ______ ____
ROOT
ATOM      1  C   UNL     1       1.331  -4.041   4.785  0.00  0.00    -0.033 A 
ATOM      2  C   UNL     1       0.337  -4.685   5.498  0.00  0.00    +0.007 A 
ATOM      3  C   UNL     1       0.289  -6.065   5.527  0.00  0.00    +0.023 A 
ATOM      4  C   UNL     1       1.241  -6.806   4.838  0.00  0.00    +0.035 A 
ATOM      5  C   UNL     1       2.238  -6.155   4.123  0.00  0.00    +0.023 A 
ATOM      6  C   UNL     1       2.277  -4.775   4.094  0.00  0.00    +0.007 A 
ENDROOT
BRANCH   4   7
ATOM      7  N   UNL     1       1.196  -8.204   4.866  0.00  0.00    -0.269 N 
ATOM      8  C   UNL     1       0.009  -8.839   4.929  0.00  0.00    +0.304 C 
ATOM      9  O   UNL     1      -1.025  -8.202   4.867  0.00  0.00    -0.252 OA
ATOM     10  N   UNL     1      -0.032 -10.180   5.062  0.00  0.00    -0.292 N 
ATOM     11  H   UNL     1       2.019  -8.716   4.839  0.00  0.00    +0.156 HD
ATOM     12  H   UNL     1       0.793 -10.687   5.112  0.00  0.00    +0.151 HD
BRANCH  10  13
ATOM     13  C   UNL     1      -1.322 -10.870   5.131  0.00  0.00    +0.105 C 
ATOM     14  C   UNL     1      -1.789 -11.222   3.717  0.00  0.00    +0.033 C 
BRANCH  13  15
ATOM     15  C   UNL     1      -1.174 -12.133   5.940  0.00  0.00    +0.014 A 
ATOM     16  C   UNL     1       0.050 -12.770   6.008  0.00  0.00    +0.009 A 
ATOM     17  C   UNL     1       0.187 -13.929   6.750  0.00  0.00    +0.001 A 
ATOM     18  C   UNL     1      -0.900 -14.453   7.425  0.00  0.00    +0.004 A 
ATOM     19  C   UNL     1      -2.126 -13.819   7.360  0.00  0.00    +0.046 A 
ATOM     20  C   UNL     1      -2.264 -12.653   6.621  0.00  0.00    +0.125 A 
BRANCH  20  21
ATOM     21  O   UNL     1      -3.468 -12.024   6.561  0.00  0.00    -0.495 OA
ATOM     22  C   UNL     1      -4.546 -12.617   7.287  0.00  0.00    +0.277 C 
ENDBRANCH  20  21
ENDBRANCH  13  15
ENDBRANCH  10  13
ENDBRANCH   4   7
BRANCH   1  23
ATOM     23  C   UNL     1       1.379  -2.535   4.756  0.00  0.00    +0.119 C 
BRANCH  23  27
ATOM     24  N   UNL     1       0.149  -0.488   1.268  0.00  0.00    +0.381 N 
ATOM     25  C   UNL     1      -0.478  -0.117   2.543  0.00  0.00    -0.063 C 
ATOM     26  C   UNL     1       0.407  -0.583   3.701  0.00  0.00    +0.066 C 
ATOM     27  N   UNL     1       0.580  -2.041   3.627  0.00  0.00    -0.302 NA
ATOM     28  C   UNL     1       1.184  -2.429   2.344  0.00  0.00    +0.066 C 
ATOM     29  C   UNL     1       0.293  -1.948   1.197  0.00  0.00    -0.063 C 
ATOM     30  H   UNL     1       1.059  -0.058   1.203  0.00  0.00    -0.082 HD
BRANCH  24  32
ATOM     31  C   UNL     1      -0.740   1.504   0.156  0.00  0.00    -0.017 C 
ATOM     32  C   UNL     1      -0.692  -0.025   0.156  0.00  0.00    -0.082 C 
ENDBRANCH  24  32
ENDBRANCH  23  27
ENDBRANCH   1  23
TORSDOF 7
