REMARK  Name = ZINC00150470
REMARK  6 active torsions:
REMARK  status: ('A' for Active; 'I' for Inactive)
REMARK    1  A    between atoms: C_1  and  C_2
REMARK    2  A    between atoms: N_13  and  C_16
REMARK    3  A    between atoms: C_16  and  C_18
REMARK    4  A    between atoms: C_16  and  C_19
REMARK    5  A    between atoms: C_19  and  O_21
REMARK    6  A    between atoms: O_21  and  C_22
REMARK                            x       y       z     vdW  Elec       q    Type
REMARK                         _______ _______ _______ _____ _____    ______ ____
ROOT
ATOM      1  C   UNL     1       3.821  -0.470   0.048  0.00  0.00    +0.008 C 
ATOM      2  C   UNL     1       2.474   0.189   0.355  0.00  0.00    -0.009 C 
ATOM      3  C   UNL     1       1.375  -0.478  -0.476  0.00  0.00    +0.008 C 
ATOM      4  C   UNL     1       0.002  -0.004   0.002  0.00  0.00    +0.037 C 
ATOM      5  C   UNL     1      -0.019   1.522   0.010  0.00  0.00    -0.023 A 
ATOM      6  C   UNL     1       1.140   2.226   0.003  0.00  0.00    -0.004 A 
ATOM      7  S   UNL     1       0.646   3.931   0.017  0.00  0.00    -0.071 S 
ATOM      8  C   UNL     1      -1.104   3.697   0.033  0.00  0.00    +0.138 A 
ATOM      9  C   UNL     1      -1.248   2.292   0.032  0.00  0.00    +0.079 A 
ATOM     10  C   UNL     1      -2.586   1.768   0.049  0.00  0.00    +0.279 A 
ATOM     11  O   UNL     1      -2.815   0.571   0.046  0.00  0.00    -0.265 OA
ATOM     12  N   UNL     1      -3.577   2.692   0.069  0.00  0.00    -0.197 N 
ATOM     13  N   UNL     1      -3.321   4.064   0.073  0.00  0.00    -0.061 NA
ATOM     14  N   UNL     1      -2.120   4.554   0.048  0.00  0.00    -0.123 NA
ATOM     15  C   UNL     1       2.533   1.678  -0.013  0.00  0.00    +0.046 C 
ENDROOT
BRANCH  12  16
ATOM     16  C   UNL     1      -4.968   2.234   0.088  0.00  0.00    +0.218 C 
ATOM     17  C   UNL     1      -5.659   2.753   1.350  0.00  0.00    +0.045 C 
BRANCH  16  18
ATOM     18  C   UNL     1      -5.686   2.758  -1.129  0.00  0.00    +0.332 C 
ATOM     19  O   UNL     1      -5.096   3.444  -1.930  0.00  0.00    -0.248 OA
BRANCH  18  20
ATOM     20  O   UNL     1      -6.981   2.463  -1.324  0.00  0.00    -0.466 OA
ATOM     21  C   UNL     1      -7.607   3.002  -2.518  0.00  0.00    +0.280 C 
ENDBRANCH  18  20
ENDBRANCH  16  18
ENDBRANCH  12  16
TORSDOF 3
