REMARK  Name = ZINC63270043
REMARK  9 active torsions:
REMARK  status: ('A' for Active; 'I' for Inactive)
REMARK    1  A    between atoms: C_1  and  C_2
REMARK    2  A    between atoms: C_14  and  C_19
REMARK    3  A    between atoms: C_16  and  C_18
REMARK    4  A    between atoms: C_19  and  C_20
REMARK    5  A    between atoms: C_20  and  C_21
REMARK    6  A    between atoms: N_23  and  C_24
REMARK    7  A    between atoms: C_24  and  C_26
REMARK    8  A    between atoms: C_24  and  C_27
REMARK    9  A    between atoms: C_27  and  C_28
REMARK                            x       y       z     vdW  Elec       q    Type
REMARK                         _______ _______ _______ _____ _____    ______ ____
ROOT
ATOM      1  C   UNL     1      -2.383  -4.056   6.367  0.00  0.00    +0.096 C 
ENDROOT
BRANCH   1   2
ATOM      2  C   UNL     1      -3.880  -4.188   6.252  0.00  0.00    +0.213 C 
ATOM      3  O   UNL     1      -4.507  -3.403   5.572  0.00  0.00    -0.276 OA
ATOM      4  N   UNL     1      -4.522  -5.176   6.905  0.00  0.00    -0.312 N 
ATOM      5  H   UNL     1      -4.020  -5.804   7.449  0.00  0.00    +0.149 HD
BRANCH   4   6
ATOM      6  C   UNL     1      -5.977  -5.304   6.794  0.00  0.00    +0.074 C 
ATOM      7  C   UNL     1      -6.324  -6.107   5.538  0.00  0.00    +0.028 C 
BRANCH   6   8
ATOM      8  C   UNL     1      -6.522  -6.026   8.028  0.00  0.00    +0.055 C 
BRANCH   8   9
ATOM      9  C   UNL     1      -6.288  -5.176   9.250  0.00  0.00    -0.040 C 
ATOM     10  C   UNL     1      -7.162  -4.316   9.821  0.00  0.00    -0.001 A 
ATOM     11  C   UNL     1      -8.537  -3.927   9.486  0.00  0.00    +0.010 A 
ATOM     12  C   UNL     1      -9.169  -3.018  10.263  0.00  0.00    +0.001 A 
ATOM     13  C   UNL     1      -8.545  -2.438  11.376  0.00  0.00    +0.002 A 
ATOM     14  C   UNL     1      -7.284  -2.745  11.747  0.00  0.00    +0.026 A 
ATOM     15  C   UNL     1      -6.526  -3.690  11.002  0.00  0.00    +0.043 A 
ATOM     16  N   UNL     1      -5.306  -4.146  11.156  0.00  0.00    -0.380 N 
ATOM     17  C   UNL     1      -5.033  -5.119  10.092  0.00  0.00    +0.144 C 
ATOM     18  H   UNL     1      -4.689  -3.887  11.858  0.00  0.00    +0.160 HD
ENDBRANCH   8   9
ENDBRANCH   6   8
ENDBRANCH   4   6
ENDBRANCH   1   2
BRANCH   1  19
ATOM     19  C   UNL     1      -1.911  -2.862   5.535  0.00  0.00    +0.024 C 
BRANCH  19  33
ATOM     20  C   UNL     1      -0.018   1.503   0.010  0.00  0.00    +0.047 C 
ATOM     21  C   UNL     1       0.002  -0.004   0.002  0.00  0.00    -0.005 A 
ATOM     22  C   UNL     1       0.009  -0.802  -1.074  0.00  0.00    +0.199 A 
ATOM     23  O   UNL     1       0.028  -2.092  -0.694  0.00  0.00    -0.463 OA
ATOM     24  C   UNL     1       0.033  -2.197   0.651  0.00  0.00    +0.139 A 
ATOM     25  C   UNL     1       0.025  -0.892   1.171  0.00  0.00    +0.024 A 
ATOM     26  C   UNL     1       0.039  -0.690   2.549  0.00  0.00    +0.019 A 
ATOM     27  C   UNL     1       0.059  -1.762   3.403  0.00  0.00    -0.001 A 
ATOM     28  C   UNL     1       0.064  -3.056   2.897  0.00  0.00    +0.139 A 
ATOM     29  C   UNL     1       0.048  -3.273   1.526  0.00  0.00    +0.093 A 
ATOM     30  O   UNL     1       0.063  -4.144   3.715  0.00  0.00    -0.425 OA
ATOM     31  C   UNL     1       0.281  -3.937   5.029  0.00  0.00    +0.316 C 
ATOM     32  O   UNL     1       0.978  -4.678   5.680  0.00  0.00    -0.250 OA
ATOM     33  C   UNL     1      -0.391  -2.729   5.652  0.00  0.00    +0.106 C 
ATOM     34  C   UNL     1       0.084  -1.490   4.887  0.00  0.00    +0.033 C 
ATOM     35  C   UNL     1       1.510  -1.142   5.316  0.00  0.00    +0.013 C 
ENDBRANCH  19  33
ENDBRANCH   1  19
TORSDOF 6
