REMARK  Name = ZINC46651582
REMARK  7 active torsions:
REMARK  status: ('A' for Active; 'I' for Inactive)
REMARK    1  A    between atoms: C_1  and  C_2
REMARK    2  A    between atoms: C_10  and  C_11
REMARK    3  A    between atoms: C_11  and  C_13
REMARK    4  A    between atoms: C_11  and  N_14
REMARK    5  A    between atoms: C_15  and  C_17
REMARK    6  A    between atoms: C_18  and  C_24
REMARK    7  A    between atoms: N_20  and  C_23
REMARK                            x       y       z     vdW  Elec       q    Type
REMARK                         _______ _______ _______ _____ _____    ______ ____
ROOT
ATOM      1  C   UNL     1       0.030  -0.352   2.503  0.00  0.00    +0.137 C 
ATOM      2  C   UNL     1      -1.354  -0.570   3.116  0.00  0.00    +0.036 C 
ENDROOT
BRANCH   1  12
ATOM      3  C   UNL     1      -0.018   1.503   0.010  0.00  0.00    +0.048 C 
ATOM      4  C   UNL     1       0.002  -0.004   0.002  0.00  0.00    +0.000 A 
ATOM      5  C   UNL     1       0.009  -0.879  -1.177  0.00  0.00    +0.023 A 
ATOM      6  C   UNL     1       0.000  -0.660  -2.553  0.00  0.00    +0.012 A 
ATOM      7  C   UNL     1       0.011  -1.726  -3.409  0.00  0.00    +0.001 A 
ATOM      8  C   UNL     1       0.031  -3.023  -2.916  0.00  0.00    +0.004 A 
ATOM      9  C   UNL     1       0.040  -3.259  -1.558  0.00  0.00    +0.047 A 
ATOM     10  C   UNL     1       0.029  -2.190  -0.671  0.00  0.00    +0.136 A 
ATOM     11  O   UNL     1       0.033  -2.100   0.674  0.00  0.00    -0.458 OA
ATOM     12  C   UNL     1       0.023  -0.814   1.069  0.00  0.00    +0.129 A 
ENDBRANCH   1  12
BRANCH   1  13
ATOM     13  N   UNL     1       1.025  -1.119   3.258  0.00  0.00    -0.302 N 
ATOM     14  C   UNL     1       1.577  -0.595   4.370  0.00  0.00    +0.249 C 
ATOM     15  O   UNL     1       1.250   0.514   4.747  0.00  0.00    -0.270 OA
ATOM     16  H   UNL     1       1.286  -2.003   2.958  0.00  0.00    +0.150 HD
BRANCH  14  17
ATOM     17  C   UNL     1       2.577  -1.365   5.130  0.00  0.00    +0.096 A 
ATOM     18  C   UNL     1       3.977  -1.342   4.938  0.00  0.00    +0.074 A 
ATOM     19  N   UNL     1       4.517  -2.157   5.802  0.00  0.00    -0.175 NA
ATOM     20  N   UNL     1       3.504  -2.733   6.577  0.00  0.00    -0.255 N 
ATOM     21  C   UNL     1       2.322  -2.243   6.168  0.00  0.00    +0.139 A 
ATOM     22 CL   UNL     1       0.763  -2.641   6.818  0.00  0.00    -0.062 Cl
ATOM     23  C   UNL     1       3.701  -3.703   7.657  0.00  0.00    +0.174 C 
ATOM     24  C   UNL     1       4.717  -0.520   3.915  0.00  0.00    +0.068 C 
ENDBRANCH  14  17
ENDBRANCH   1  13
TORSDOF 3
