REMARK  Name = ZINC42685589
REMARK  3 active torsions:
REMARK  status: ('A' for Active; 'I' for Inactive)
REMARK    1  A    between atoms: C_4  and  C_7
REMARK    2  A    between atoms: C_16  and  C_28
REMARK    3  A    between atoms: C_19  and  C_22
REMARK                            x       y       z     vdW  Elec       q    Type
REMARK                         _______ _______ _______ _____ _____    ______ ____
ROOT
ATOM      1  C   UNL     1       4.084   0.187   0.173  0.00  0.00    +0.282 C 
ATOM      2  O   UNL     1       4.846   0.633   1.296  0.00  0.00    -0.345 OA
ATOM      3  C   UNL     1       4.284   0.295   2.571  0.00  0.00    +0.197 C 
ATOM      4  C   UNL     1       4.111  -1.222   2.626  0.00  0.00    +0.179 C 
ATOM      5  C   UNL     1       3.242  -1.649   1.433  0.00  0.00    +0.188 C 
ATOM      6  O   UNL     1       3.890  -1.231   0.238  0.00  0.00    -0.338 OA
ATOM      7  C   UNL     1       3.068  -3.166   1.488  0.00  0.00    +0.215 C 
ATOM      8  O   UNL     1       2.506  -3.504   2.764  0.00  0.00    -0.334 OA
ATOM      9  C   UNL     1       3.268  -3.059   3.886  0.00  0.00    +0.283 C 
ATOM     10  O   UNL     1       3.463  -1.640   3.825  0.00  0.00    -0.339 OA
ENDROOT
BRANCH   1  14
ATOM     11  C   UNL     1       0.283   2.137   0.178  0.00  0.00    +0.000 A 
ATOM     12  C   UNL     1       1.376   2.750   0.762  0.00  0.00    +0.000 A 
ATOM     13  C   UNL     1       2.606   2.119   0.761  0.00  0.00    +0.008 A 
ATOM     14  C   UNL     1       2.743   0.875   0.176  0.00  0.00    +0.008 A 
ATOM     15  C   UNL     1       1.651   0.261  -0.408  0.00  0.00    +0.008 A 
ATOM     16  C   UNL     1       0.421   0.892  -0.407  0.00  0.00    +0.000 A 
ENDBRANCH   1  14
BRANCH   9  17
ATOM     17  C   UNL     1       4.611  -3.743   3.881  0.00  0.00    +0.008 A 
ATOM     18  C   UNL     1       5.759  -3.014   4.132  0.00  0.00    +0.008 A 
ATOM     19  C   UNL     1       6.990  -3.642   4.127  0.00  0.00    +0.000 A 
ATOM     20  C   UNL     1       7.074  -4.998   3.872  0.00  0.00    +0.000 A 
ATOM     21  C   UNL     1       5.926  -5.727   3.622  0.00  0.00    +0.000 A 
ATOM     22  C   UNL     1       4.694  -5.100   3.631  0.00  0.00    +0.008 A 
ENDBRANCH   9  17
BRANCH   7  23
ATOM     23  C   UNL     1       4.408  -3.838   1.327  0.00  0.00    +0.257 C 
ATOM     24  O   UNL     1       4.535  -4.751   0.547  0.00  0.00    -0.298 OA
ENDBRANCH   7  23
TORSDOF 3
