REMARK  Name = ZINC11009429
REMARK  8 active torsions:
REMARK  status: ('A' for Active; 'I' for Inactive)
REMARK    1  A    between atoms: C_1  and  C_2
REMARK    2  A    between atoms: C_7  and  N_8
REMARK    3  A    between atoms: C_18  and  S_19
REMARK    4  A    between atoms: S_19  and  C_20
REMARK    5  A    between atoms: C_20  and  C_22
REMARK    6  A    between atoms: C_20  and  C_23
REMARK    7  A    between atoms: N_25  and  C_26
REMARK    8  A    between atoms: C_28  and  C_31
REMARK                            x       y       z     vdW  Elec       q    Type
REMARK                         _______ _______ _______ _____ _____    ______ ____
ROOT
ATOM      1  N   UNL     1       2.357   3.889   0.000  0.00  0.00    -0.255 N 
ATOM      2  C   UNL     1       2.941   4.233   1.172  0.00  0.00    +0.267 A 
ATOM      3  O   UNL     1       2.440   3.928   2.239  0.00  0.00    -0.267 OA
ATOM      4  C   UNL     1       4.202   4.982   1.109  0.00  0.00    +0.065 A 
ATOM      5  C   UNL     1       4.880   5.377   2.262  0.00  0.00    +0.017 A 
ATOM      6  C   UNL     1       6.049   6.077   2.153  0.00  0.00    +0.021 A 
ATOM      7  C   UNL     1       6.569   6.401   0.904  0.00  0.00    +0.043 A 
ATOM      8  C   UNL     1       5.919   6.024  -0.250  0.00  0.00    +0.048 A 
ATOM      9  C   UNL     1       4.723   5.307  -0.165  0.00  0.00    +0.080 A 
ATOM     10  N   UNL     1       4.050   4.916  -1.272  0.00  0.00    -0.223 NA
ATOM     11  C   UNL     1       2.928   4.244  -1.190  0.00  0.00    +0.177 A 
ATOM     12 CL   UNL     1       8.056   7.292   0.800  0.00  0.00    -0.083 Cl
ENDROOT
BRANCH   1  19
ATOM     13  C   UNL     1      -0.085   5.351   0.031  0.00  0.00    +0.046 C 
ATOM     14  C   UNL     1      -0.059   3.845   0.022  0.00  0.00    -0.026 A 
ATOM     15  C   UNL     1      -1.243   3.133   0.030  0.00  0.00    +0.005 A 
ATOM     16  C   UNL     1      -1.220   1.750   0.017  0.00  0.00    +0.000 A 
ATOM     17  C   UNL     1      -0.013   1.076   0.008  0.00  0.00    +0.002 A 
ATOM     18  C   UNL     1       1.174   1.782   0.000  0.00  0.00    +0.026 A 
ATOM     19  C   UNL     1       1.155   3.170   0.008  0.00  0.00    +0.055 A 
ENDBRANCH   1  19
BRANCH  11  20
ATOM     20  S   UNL     1       2.119   3.775  -2.684  0.00  0.00    -0.075 S 
BRANCH  20  21
ATOM     21  C   UNL     1       3.267   4.474  -3.896  0.00  0.00    +0.137 C 
ATOM     22  C   UNL     1       4.614   3.755  -3.797  0.00  0.00    +0.029 C 
BRANCH  21  23
ATOM     23  C   UNL     1       2.703   4.295  -5.282  0.00  0.00    +0.233 C 
ATOM     24  O   UNL     1       1.848   3.460  -5.486  0.00  0.00    -0.274 OA
ATOM     25  N   UNL     1       3.150   5.063  -6.296  0.00  0.00    -0.253 N 
ATOM     26  H   UNL     1       3.834   5.731  -6.133  0.00  0.00    +0.158 HD
BRANCH  25  27
ATOM     27  C   UNL     1       2.631   4.899  -7.572  0.00  0.00    +0.224 A 
ATOM     28  C   UNL     1       2.978   5.595  -8.693  0.00  0.00    +0.092 A 
ATOM     29  C   UNL     1       2.164   5.042  -9.702  0.00  0.00    +0.082 A 
ATOM     30  N   UNL     1       1.444   4.117  -9.132  0.00  0.00    -0.081 NA
ATOM     31  O   UNL     1       1.692   4.019  -7.952  0.00  0.00    -0.339 OA
ATOM     32  C   UNL     1       2.134   5.439 -11.155  0.00  0.00    +0.069 C 
ENDBRANCH  25  27
ENDBRANCH  21  23
ENDBRANCH  20  21
ENDBRANCH  11  20
TORSDOF 5
