REMARK  Name = ZINC00061473
REMARK  2 active torsions:
REMARK  status: ('A' for Active; 'I' for Inactive)
REMARK    1  A    between atoms: C_4  and  N_7
REMARK    2  A    between atoms: C_15  and  C_17
REMARK                            x       y       z     vdW  Elec       q    Type
REMARK                         _______ _______ _______ _____ _____    ______ ____
ROOT
ATOM      1  N   UNL     1       0.002  -0.004   0.002  0.00  0.00    -0.214 N 
ATOM      2  C   UNL     1       1.300  -0.413  -0.013  0.00  0.00    +0.174 A 
ATOM      3  C   UNL     1       2.087   0.753  -0.014  0.00  0.00    +0.123 A 
ATOM      4  C   UNL     1       1.207   1.850   0.001  0.00  0.00    +0.152 A 
ATOM      5  N   UNL     1      -0.017   1.397   0.010  0.00  0.00    -0.172 NA
ATOM      6  C   UNL     1       3.541   0.600  -0.028  0.00  0.00    +0.351 A 
ATOM      7  O   UNL     1       4.278   1.569  -0.029  0.00  0.00    -0.244 OA
ATOM      8  O   UNL     1       4.038  -0.658  -0.039  0.00  0.00    -0.403 OA
ATOM      9  C   UNL     1       3.211  -1.717  -0.037  0.00  0.00    +0.235 A 
ATOM     10  N   UNL     1       1.907  -1.607  -0.024  0.00  0.00    -0.192 NA
ENDROOT
BRANCH   9  11
ATOM     11  C   UNL     1       3.802  -3.069  -0.050  0.00  0.00    +0.055 A 
ATOM     12  C   UNL     1       5.190  -3.229  -0.063  0.00  0.00    +0.014 A 
ATOM     13  C   UNL     1       5.735  -4.495  -0.074  0.00  0.00    +0.001 A 
ATOM     14  C   UNL     1       4.912  -5.608  -0.072  0.00  0.00    +0.001 A 
ATOM     15  C   UNL     1       3.537  -5.459  -0.059  0.00  0.00    +0.021 A 
ATOM     16  C   UNL     1       2.976  -4.197  -0.042  0.00  0.00    +0.053 A 
ATOM     17 CL   UNL     1       1.250  -4.011  -0.018  0.00  0.00    -0.083 Cl
ENDBRANCH   9  11
BRANCH   1  21
ATOM     18  C   UNL     1      -3.341  -2.491   0.021  0.00  0.00    +0.000 A 
ATOM     19  C   UNL     1      -3.367  -1.296   0.716  0.00  0.00    +0.002 A 
ATOM     20  C   UNL     1      -2.261  -0.469   0.711  0.00  0.00    +0.028 A 
ATOM     21  C   UNL     1      -1.121  -0.840   0.009  0.00  0.00    +0.068 A 
ATOM     22  C   UNL     1      -1.101  -2.039  -0.692  0.00  0.00    +0.028 A 
ATOM     23  C   UNL     1      -2.208  -2.864  -0.678  0.00  0.00    +0.002 A 
ENDBRANCH   1  21
TORSDOF 2
