REMARK  Name = ZINC09378684
REMARK  7 active torsions:
REMARK  status: ('A' for Active; 'I' for Inactive)
REMARK    1  A    between atoms: C_1  and  C_2
REMARK    2  A    between atoms: C_5  and  N_8
REMARK    3  A    between atoms: C_9  and  C_32
REMARK    4  A    between atoms: C_12  and  S_13
REMARK    5  A    between atoms: S_13  and  C_14
REMARK    6  A    between atoms: C_14  and  C_15
REMARK    7  A    between atoms: C_25  and  C_27
REMARK                            x       y       z     vdW  Elec       q    Type
REMARK                         _______ _______ _______ _____ _____    ______ ____
ROOT
ATOM      1  C   UNL     1       2.228   7.410   4.597  0.00  0.00    +0.227 C 
ATOM      2  O   UNL     1       2.456   6.305   5.042  0.00  0.00    -0.275 OA
ATOM      3  N   UNL     1       2.484   8.503   5.341  0.00  0.00    -0.289 N 
ATOM      4  C   UNL     1       2.340   9.848   4.766  0.00  0.00    +0.114 C 
ATOM      5  C   UNL     1       1.200  10.568   5.513  0.00  0.00    +0.062 C 
ATOM      6  C   UNL     1       1.344  10.301   6.976  0.00  0.00    -0.003 A 
ATOM      7  C   UNL     1       2.090   9.336   7.581  0.00  0.00    -0.012 A 
ATOM      8  C   UNL     1       2.049   9.294   8.974  0.00  0.00    +0.013 A 
ATOM      9  C   UNL     1       1.295  10.187   9.655  0.00  0.00    +0.046 A 
ATOM     10  S   UNL     1       0.586  11.156   8.333  0.00  0.00    -0.101 S 
ATOM     11  C   UNL     1       2.918   8.368   6.739  0.00  0.00    +0.144 C 
ENDROOT
BRANCH  11  12
ATOM     12  C   UNL     1       2.689   6.955   7.210  0.00  0.00    +0.015 A 
ATOM     13  C   UNL     1       3.587   6.057   7.683  0.00  0.00    +0.013 A 
ATOM     14  C   UNL     1       3.145   4.804   8.065  0.00  0.00    +0.008 A 
ATOM     15  C   UNL     1       1.828   4.507   7.945  0.00  0.00    +0.045 A 
ATOM     16  S   UNL     1       1.166   6.027   7.282  0.00  0.00    -0.099 S 
ENDBRANCH  11  12
BRANCH   1  17
ATOM     17  C   UNL     1       1.657   7.559   3.210  0.00  0.00    +0.173 C 
BRANCH  17  18
ATOM     18  S   UNL     1       1.426   5.923   2.473  0.00  0.00    -0.076 S 
BRANCH  18  23
ATOM     19  N   UNL     1       0.394   5.536  -0.102  0.00  0.00    -0.274 N 
ATOM     20  C   UNL     1      -0.059   6.341  -1.113  0.00  0.00    +0.135 A 
ATOM     21  N   UNL     1       0.056   7.574  -0.708  0.00  0.00    -0.133 NA
ATOM     22  N   UNL     1       0.546   7.606   0.479  0.00  0.00    -0.122 NA
ATOM     23  C   UNL     1       0.768   6.384   0.904  0.00  0.00    +0.197 A 
ATOM     24  C   UNL     1      -0.591   5.885  -2.448  0.00  0.00    +0.088 C 
BRANCH  19  29
ATOM     25  C   UNL     1       0.646  -0.135  -0.082  0.00  0.00    +0.044 C 
ATOM     26  C   UNL     1       0.579   1.371  -0.087  0.00  0.00    -0.050 A 
ATOM     27  C   UNL     1      -0.647   2.007  -0.148  0.00  0.00    +0.005 A 
ATOM     28  C   UNL     1      -0.712   3.387  -0.148  0.00  0.00    +0.026 A 
ATOM     29  C   UNL     1       0.456   4.135  -0.097  0.00  0.00    +0.050 A 
ATOM     30  C   UNL     1       1.686   3.494  -0.042  0.00  0.00    +0.026 A 
ATOM     31  C   UNL     1       1.744   2.114  -0.037  0.00  0.00    +0.005 A 
ENDBRANCH  19  29
ENDBRANCH  18  23
ENDBRANCH  17  18
ENDBRANCH   1  17
TORSDOF 5
