REMARK  Name = ZINC63738367
REMARK  10 active torsions:
REMARK  status: ('A' for Active; 'I' for Inactive)
REMARK    1  A    between atoms: C_1  and  C_2
REMARK    2  A    between atoms: C_2  and  C_3
REMARK    3  A    between atoms: C_3  and  C_5
REMARK    4  A    between atoms: C_3  and  N_6
REMARK    5  A    between atoms: C_7  and  C_9
REMARK    6  A    between atoms: C_9  and  C_11
REMARK    7  A    between atoms: C_9  and  C_12
REMARK    8  A    between atoms: C_18  and  C_20
REMARK    9  A    between atoms: C_26  and  O_30
REMARK   10  A    between atoms: O_30  and  C_31
REMARK                            x       y       z     vdW  Elec       q    Type
REMARK                         _______ _______ _______ _____ _____    ______ ____
ROOT
ATOM      1  C   UNL     1      -5.606   0.381   2.428  0.00  0.00    +0.004 C 
ATOM      2  C   UNL     1      -5.942   1.418   1.354  0.00  0.00    +0.023 C 
ATOM      3  C   UNL     1      -7.457   1.443   1.130  0.00  0.00    +0.108 C 
ATOM      4  N   UNL     1      -8.123   1.672   2.420  0.00  0.00    -0.300 N 
ATOM      5  C   UNL     1      -7.802   0.787   3.547  0.00  0.00    +0.108 C 
ATOM      6  C   UNL     1      -6.283   0.769   3.745  0.00  0.00    +0.023 C 
ATOM      7  C   UNL     1      -9.009   2.676   2.566  0.00  0.00    +0.242 C 
ATOM      8  O   UNL     1      -9.265   3.401   1.627  0.00  0.00    -0.273 OA
ENDROOT
BRANCH   7   9
ATOM      9  C   UNL     1      -9.684   2.899   3.895  0.00  0.00    +0.190 C 
ATOM     10  C   UNL     1     -10.518   1.693   4.265  0.00  0.00    +0.016 C 
ATOM     11  C   UNL     1     -11.792   2.134   4.364  0.00  0.00    -0.003 A 
ATOM     12  C   UNL     1     -13.054   1.456   4.689  0.00  0.00    +0.013 A 
ATOM     13  C   UNL     1     -14.197   2.175   4.712  0.00  0.00    +0.046 A 
ATOM     14  C   UNL     1     -14.208   3.554   4.432  0.00  0.00    +0.122 A 
ATOM     15  C   UNL     1     -13.081   4.245   4.125  0.00  0.00    +0.071 A 
ATOM     16  C   UNL     1     -11.828   3.586   4.074  0.00  0.00    +0.047 A 
ATOM     17  N   UNL     1     -10.619   4.026   3.806  0.00  0.00    -0.370 N 
ATOM     18  H   UNL     1     -10.384   4.941   3.585  0.00  0.00    +0.161 HD
BRANCH  14  19
ATOM     19  O   UNL     1     -15.390   4.219   4.472  0.00  0.00    -0.495 OA
ATOM     20  C   UNL     1     -16.552   3.455   4.799  0.00  0.00    +0.277 C 
ENDBRANCH  14  19
ENDBRANCH   7   9
BRANCH   1  21
ATOM     21  C   UNL     1      -4.090   0.329   2.630  0.00  0.00    +0.075 C 
ATOM     22  C   UNL     1      -3.754  -0.709   3.703  0.00  0.00    +0.017 C 
BRANCH  21  24
ATOM     23  N   UNL     1      -2.082  -0.162   1.273  0.00  0.00    -0.313 N 
ATOM     24  C   UNL     1      -3.424  -0.053   1.334  0.00  0.00    +0.216 C 
ATOM     25  O   UNL     1      -4.095  -0.264   0.346  0.00  0.00    -0.276 OA
ATOM     26  H   UNL     1      -1.545   0.006   2.063  0.00  0.00    +0.149 HD
BRANCH  23  27
ATOM     27  C   UNL     1      -1.433  -0.534   0.013  0.00  0.00    +0.070 C 
ATOM     28  C   UNL     1      -1.416  -2.058  -0.121  0.00  0.00    +0.028 C 
BRANCH  27  30
ATOM     29  C   UNL     1      -0.019   1.526   0.010  0.00  0.00    +0.005 C 
ATOM     30  C   UNL     1       0.002  -0.004   0.002  0.00  0.00    +0.018 C 
ENDBRANCH  27  30
ENDBRANCH  23  27
ENDBRANCH  21  24
ENDBRANCH   1  21
TORSDOF 6
