REMARK  Name = ZINC02629438
REMARK  2 active torsions:
REMARK  status: ('A' for Active; 'I' for Inactive)
REMARK    1  A    between atoms: C_5  and  C_6
REMARK    2  A    between atoms: C_19  and  C_21
REMARK                            x       y       z     vdW  Elec       q    Type
REMARK                         _______ _______ _______ _____ _____    ______ ____
ROOT
ATOM      1  C   UNL     1      -1.246  -0.785   0.010  0.00  0.00    +0.014 C 
ATOM      2  C   UNL     1      -1.202  -2.125  -0.099  0.00  0.00    -0.026 C 
ATOM      3  C   UNL     1       0.121  -2.859  -0.112  0.00  0.00    +0.037 C 
ATOM      4  C   UNL     1       0.007  -3.958  -1.179  0.00  0.00    +0.009 C 
ATOM      5  C   UNL     1      -1.095  -4.927  -0.768  0.00  0.00    +0.035 C 
ATOM      6  C   UNL     1      -2.404  -4.214  -0.521  0.00  0.00    -0.019 C 
ATOM      7  C   UNL     1      -2.444  -2.918  -0.203  0.00  0.00    +0.038 C 
ATOM      8  N   UNL     1      -3.655  -2.242   0.034  0.00  0.00    -0.282 N 
ATOM      9  C   UNL     1      -4.826  -2.873  -0.346  0.00  0.00    +0.240 A 
ATOM     10  N   UNL     1      -6.042  -2.427  -0.478  0.00  0.00    -0.092 NA
ATOM     11  N   UNL     1      -6.824  -3.375  -0.867  0.00  0.00    -0.021 NA
ATOM     12  N   UNL     1      -6.162  -4.478  -1.005  0.00  0.00    -0.042 NA
ATOM     13  N   UNL     1      -4.840  -4.193  -0.666  0.00  0.00    -0.202 N 
ATOM     14  C   UNL     1      -3.664  -5.047  -0.638  0.00  0.00    +0.171 C 
ATOM     15  H   UNL     1      -3.669  -1.366   0.450  0.00  0.00    +0.155 HD
ENDROOT
BRANCH   1  20
ATOM     16  C   UNL     1       0.159   1.318  -0.193  0.00  0.00    +0.015 A 
ATOM     17  C   UNL     1       1.312   1.956   0.095  0.00  0.00    +0.046 A 
ATOM     18  S   UNL     1       2.213   0.740   1.037  0.00  0.00    -0.104 S 
ATOM     19  C   UNL     1       1.012  -0.578   1.010  0.00  0.00    +0.053 A 
ATOM     20  C   UNL     1      -0.014  -0.028   0.286  0.00  0.00    -0.018 A 
ENDBRANCH   1  20
BRANCH  14  21
ATOM     21  C   UNL     1      -3.764  -5.966   0.552  0.00  0.00    -0.012 A 
ATOM     22  C   UNL     1      -3.791  -7.337   0.379  0.00  0.00    +0.013 A 
ATOM     23  C   UNL     1      -3.882  -8.136   1.470  0.00  0.00    +0.045 A 
ATOM     24  S   UNL     1      -3.934  -6.943   2.797  0.00  0.00    -0.105 S 
ATOM     25  C   UNL     1      -3.825  -5.461   1.808  0.00  0.00    +0.051 A 
ENDBRANCH  14  21
TORSDOF 2
