REMARK  Name = ZINC67295564
REMARK  5 active torsions:
REMARK  status: ('A' for Active; 'I' for Inactive)
REMARK    1  A    between atoms: C_1  and  C_2
REMARK    2  A    between atoms: C_5  and  N_9
REMARK    3  A    between atoms: C_11  and  C_20
REMARK    4  A    between atoms: N_22  and  C_23
REMARK    5  A    between atoms: C_23  and  C_24
REMARK                            x       y       z     vdW  Elec       q    Type
REMARK                         _______ _______ _______ _____ _____    ______ ____
ROOT
ATOM      1  N   UNL     1       0.061  -4.144  -0.030  0.00  0.00    -0.325 N 
ATOM      2  C   UNL     1       0.879  -4.794   0.769  0.00  0.00    +0.212 A 
ATOM      3  C   UNL     1       0.844  -6.267   0.858  0.00  0.00    +0.097 A 
ATOM      4  C   UNL     1       2.019  -6.907   1.229  0.00  0.00    +0.030 A 
ATOM      5  C   UNL     1       3.187  -6.065   1.499  0.00  0.00    +0.018 A 
ATOM      6  C   UNL     1       4.464  -6.626   1.617  0.00  0.00    +0.011 A 
ATOM      7  C   UNL     1       5.538  -5.820   1.866  0.00  0.00    +0.001 A 
ATOM      8  C   UNL     1       5.374  -4.449   2.003  0.00  0.00    +0.004 A 
ATOM      9  C   UNL     1       4.123  -3.875   1.892  0.00  0.00    +0.047 A 
ATOM     10  C   UNL     1       3.018  -4.675   1.641  0.00  0.00    +0.137 A 
ATOM     11  O   UNL     1       1.785  -4.131   1.532  0.00  0.00    -0.439 OA
ATOM     12  H   UNL     1      -0.520  -4.634  -0.633  0.00  0.00    +0.169 HD
ENDROOT
BRANCH   1  17
ATOM     13  C   UNL     1      -0.073   1.499   0.049  0.00  0.00    +0.045 C 
ATOM     14  C   UNL     1      -0.037  -0.007   0.028  0.00  0.00    -0.032 A 
ATOM     15  C   UNL     1      -0.016  -0.679  -1.181  0.00  0.00    +0.007 A 
ATOM     16  C   UNL     1       0.017  -2.057  -1.208  0.00  0.00    +0.026 A 
ATOM     17  C   UNL     1       0.029  -2.777  -0.010  0.00  0.00    +0.043 A 
ATOM     18  C   UNL     1       0.008  -2.093   1.207  0.00  0.00    +0.046 A 
ATOM     19  C   UNL     1      -0.020  -0.713   1.220  0.00  0.00    +0.046 A 
ATOM     20 CL   UNL     1      -0.040   0.140   2.732  0.00  0.00    -0.083 Cl
ENDBRANCH   1  17
BRANCH   3  21
ATOM     21  C   UNL     1      -0.385  -7.026   0.565  0.00  0.00    +0.250 C 
ATOM     22  O   UNL     1      -1.374  -6.447   0.158  0.00  0.00    -0.270 OA
ATOM     23  N   UNL     1      -0.412  -8.361   0.749  0.00  0.00    -0.304 N 
ATOM     24  H   UNL     1       0.350  -8.812   1.143  0.00  0.00    +0.149 HD
BRANCH  23  25
ATOM     25  C   UNL     1      -1.594  -9.130   0.353  0.00  0.00    +0.179 C 
BRANCH  25  26
ATOM     26  C   UNL     1      -1.371 -10.588   0.663  0.00  0.00    +0.122 A 
ATOM     27  C   UNL     1      -1.687 -11.205   1.816  0.00  0.00    +0.046 A 
ATOM     28  C   UNL     1      -1.308 -12.559   1.674  0.00  0.00    +0.041 A 
ATOM     29  C   UNL     1      -0.782 -12.689   0.442  0.00  0.00    +0.195 A 
ATOM     30  O   UNL     1      -0.829 -11.493  -0.168  0.00  0.00    -0.466 OA
ENDBRANCH  25  26
ENDBRANCH  23  25
ENDBRANCH   3  21
TORSDOF 4
