REMARK  Name = ZINC09794137
REMARK  9 active torsions:
REMARK  status: ('A' for Active; 'I' for Inactive)
REMARK    1  A    between atoms: C_1  and  C_2
REMARK    2  A    between atoms: C_2  and  C_3
REMARK    3  A    between atoms: C_3  and  C_5
REMARK    4  A    between atoms: C_3  and  C_6
REMARK    5  A    between atoms: C_9  and  C_12
REMARK    6  A    between atoms: C_12  and  C_14
REMARK    7  A    between atoms: C_12  and  N_17
REMARK    8  A    between atoms: C_14  and  C_15
REMARK    9  A    between atoms: C_14  and  C_16
REMARK                            x       y       z     vdW  Elec       q    Type
REMARK                         _______ _______ _______ _____ _____    ______ ____
ROOT
ATOM      1  N   UNL     1      -0.011   0.966   0.007  0.00  0.00    -0.292 N 
ATOM      2  C   UNL     1       1.147   1.655   0.000  0.00  0.00    +0.303 C 
ATOM      3  O   UNL     1       1.131   2.868  -0.085  0.00  0.00    -0.253 OA
ATOM      4  N   UNL     1       2.322   1.001   0.087  0.00  0.00    -0.283 N 
ATOM      5  C   UNL     1       3.591   1.738   0.184  0.00  0.00    +0.128 C 
ATOM      6  C   UNL     1       4.378   1.185   1.384  0.00  0.00    +0.127 C 
ATOM      7  N   UNL     1       4.514  -0.271   1.245  0.00  0.00    -0.297 N 
ATOM      8  C   UNL     1       3.204  -0.934   1.278  0.00  0.00    +0.127 C 
ATOM      9  C   UNL     1       2.369  -0.469   0.081  0.00  0.00    +0.128 C 
ATOM     10  C   UNL     1       5.356  -0.785   2.216  0.00  0.00    +0.218 A 
ATOM     11  N   UNL     1       4.913  -1.746   3.013  0.00  0.00    -0.223 NA
ATOM     12  C   UNL     1       5.693  -2.263   3.947  0.00  0.00    +0.116 A 
ATOM     13  C   UNL     1       6.984  -1.779   4.094  0.00  0.00    +0.039 A 
ATOM     14  C   UNL     1       7.413  -0.769   3.248  0.00  0.00    +0.116 A 
ATOM     15  N   UNL     1       6.584  -0.300   2.330  0.00  0.00    -0.223 NA
ATOM     16  H   UNL     1       0.002  -0.004  -0.003  0.00  0.00    +0.151 HD
ENDROOT
BRANCH   1  17
ATOM     17  C   UNL     1      -1.290   1.681   0.024  0.00  0.00    +0.107 C 
BRANCH  17  21
ATOM     18  C   UNL     1      -4.327  -0.792  -1.681  0.00  0.00    -0.045 A 
ATOM     19  C   UNL     1      -4.300   0.562  -1.960  0.00  0.00    +0.004 A 
ATOM     20  C   UNL     1      -3.317   1.362  -1.408  0.00  0.00    +0.006 A 
ATOM     21  C   UNL     1      -2.361   0.809  -0.577  0.00  0.00    -0.027 A 
ATOM     22  C   UNL     1      -2.385  -0.546  -0.302  0.00  0.00    +0.006 A 
ATOM     23  C   UNL     1      -3.371  -1.345  -0.850  0.00  0.00    +0.004 A 
BRANCH  18  24
ATOM     24  C   UNL     1      -5.398  -1.665  -2.283  0.00  0.00    +0.016 C 
ATOM     25  C   UNL     1      -4.748  -2.752  -3.140  0.00  0.00    +0.012 C 
BRANCH  24  27
ATOM     26  C   UNL     1      -7.377  -3.102  -1.772  0.00  0.00    +0.004 C 
ATOM     27  C   UNL     1      -6.213  -2.316  -1.164  0.00  0.00    +0.004 C 
ENDBRANCH  24  27
ENDBRANCH  18  24
ENDBRANCH  17  21
BRANCH  17  28
ATOM     28  C   UNL     1      -1.662   2.025   1.468  0.00  0.00    +0.008 C 
ATOM     29  C   UNL     1      -0.575   2.911   2.078  0.00  0.00    +0.009 C 
ATOM     30  C   UNL     1      -2.998   2.772   1.485  0.00  0.00    +0.009 C 
ENDBRANCH  17  28
ENDBRANCH   1  17
TORSDOF 5
