REMARK  Name = ZINC49370554
REMARK  4 active torsions:
REMARK  status: ('A' for Active; 'I' for Inactive)
REMARK    1  A    between atoms: C_1  and  C_2
REMARK    2  A    between atoms: C_5  and  C_8
REMARK    3  A    between atoms: C_8  and  C_10
REMARK    4  A    between atoms: N_18  and  C_19
REMARK                            x       y       z     vdW  Elec       q    Type
REMARK                         _______ _______ _______ _____ _____    ______ ____
ROOT
ATOM      1  C   UNL     1       0.079  -5.004   1.280  0.00  0.00    +0.063 C 
ATOM      2  C   UNL     1       1.519  -5.132   1.782  0.00  0.00    +0.030 C 
ATOM      3  C   UNL     1       1.524  -5.877   3.120  0.00  0.00    +0.110 C 
ATOM      4  N   UNL     1       0.828  -7.160   2.950  0.00  0.00    -0.286 N 
ATOM      5  C   UNL     1      -0.530  -7.158   2.389  0.00  0.00    +0.110 C 
ATOM      6  C   UNL     1      -0.512  -6.398   1.059  0.00  0.00    +0.030 C 
ATOM      7  C   UNL     1       1.424  -8.317   3.302  0.00  0.00    +0.302 C 
ATOM      8  O   UNL     1       2.581  -8.315   3.676  0.00  0.00    -0.253 OA
ATOM      9  N   UNL     1       0.737  -9.475   3.240  0.00  0.00    -0.302 N 
ATOM     10  C   UNL     1       1.348 -10.715   3.724  0.00  0.00    +0.129 C 
ATOM     11  H   UNL     1      -0.161  -9.487   2.874  0.00  0.00    +0.150 HD
ENDROOT
BRANCH   1  12
ATOM     12  C   UNL     1       0.066  -4.241  -0.020  0.00  0.00    +0.166 C 
ATOM     13  O   UNL     1       0.073  -4.840  -1.074  0.00  0.00    -0.292 OA
BRANCH  12  18
ATOM     14  C   UNL     1      -0.016   1.507   0.021  0.00  0.00    +0.044 C 
ATOM     15  C   UNL     1       0.006  -0.000   0.010  0.00  0.00    -0.050 A 
ATOM     16  C   UNL     1       0.014  -0.680  -1.195  0.00  0.00    +0.004 A 
ATOM     17  C   UNL     1       0.034  -2.059  -1.214  0.00  0.00    +0.011 A 
ATOM     18  C   UNL     1       0.046  -2.770  -0.009  0.00  0.00    +0.018 A 
ATOM     19  C   UNL     1       0.037  -2.076   1.205  0.00  0.00    +0.011 A 
ATOM     20  C   UNL     1       0.023  -0.697   1.206  0.00  0.00    +0.004 A 
ENDBRANCH  12  18
ENDBRANCH   1  12
TORSDOF 2
