REMARK  Name = ZINC31620248
REMARK  7 active torsions:
REMARK  status: ('A' for Active; 'I' for Inactive)
REMARK    1  A    between atoms: C_1  and  C_2
REMARK    2  A    between atoms: C_2  and  C_25
REMARK    3  A    between atoms: N_5  and  C_9
REMARK    4  A    between atoms: C_9  and  C_10
REMARK    5  A    between atoms: C_10  and  C_12
REMARK    6  A    between atoms: C_15  and  O_18
REMARK    7  A    between atoms: O_18  and  C_19
REMARK                            x       y       z     vdW  Elec       q    Type
REMARK                         _______ _______ _______ _____ _____    ______ ____
ROOT
ATOM      1  C   UNL     1       2.879  -2.026  -1.370  0.00  0.00    +0.197 C 
ENDROOT
BRANCH   1   6
ATOM      2  C   UNL     1      -0.108   1.320   0.028  0.00  0.00    +0.050 C 
ATOM      3  C   UNL     1      -0.024  -0.208   0.066  0.00  0.00    +0.168 C 
ATOM      4  C   UNL     1       0.775  -0.727  -1.113  0.00  0.00    +0.254 C 
ATOM      5  O   UNL     1       0.513  -0.596  -2.289  0.00  0.00    -0.272 OA
ATOM      6  N   UNL     1       1.836  -1.365  -0.581  0.00  0.00    -0.216 N 
ATOM      7  C   UNL     1       1.820  -1.321   0.756  0.00  0.00    +0.310 C 
ATOM      8  O   UNL     1       2.672  -1.827   1.459  0.00  0.00    -0.252 OA
ATOM      9  N   UNL     1       0.754  -0.655   1.235  0.00  0.00    -0.279 N 
ATOM     10  H   UNL     1       0.539  -0.499   2.168  0.00  0.00    +0.152 HD
BRANCH   3  11
ATOM     11  C   UNL     1      -1.404  -0.813   0.084  0.00  0.00    +0.137 A 
ATOM     12  C   UNL     1      -2.129  -1.084   1.184  0.00  0.00    +0.047 A 
ATOM     13  C   UNL     1      -3.352  -1.640   0.741  0.00  0.00    +0.041 A 
ATOM     14  C   UNL     1      -3.300  -1.675  -0.603  0.00  0.00    +0.195 A 
ATOM     15  O   UNL     1      -2.120  -1.167  -0.995  0.00  0.00    -0.465 OA
ENDBRANCH   3  11
ENDBRANCH   1   6
BRANCH   1  16
ATOM     16  C   UNL     1       3.980  -1.042  -1.672  0.00  0.00    +0.181 C 
ATOM     17  O   UNL     1       3.901   0.099  -1.268  0.00  0.00    -0.290 OA
BRANCH  16  18
ATOM     18  C   UNL     1       5.148  -1.464  -2.455  0.00  0.00    +0.019 A 
ATOM     19  C   UNL     1       5.239  -2.779  -2.928  0.00  0.00    +0.015 A 
ATOM     20  C   UNL     1       6.332  -3.169  -3.659  0.00  0.00    +0.047 A 
ATOM     21  C   UNL     1       7.349  -2.260  -3.931  0.00  0.00    +0.128 A 
ATOM     22  C   UNL     1       7.264  -0.953  -3.463  0.00  0.00    +0.047 A 
ATOM     23  C   UNL     1       6.172  -0.551  -2.737  0.00  0.00    +0.015 A 
BRANCH  21  24
ATOM     24  O   UNL     1       8.428  -2.650  -4.654  0.00  0.00    -0.456 OA
BRANCH  24  25
ATOM     25  C   UNL     1       8.241  -2.958  -5.964  0.00  0.00    +0.128 A 
ATOM     26  C   UNL     1       9.284  -3.487  -6.710  0.00  0.00    +0.046 A 
ATOM     27  C   UNL     1       9.091  -3.799  -8.042  0.00  0.00    +0.004 A 
ATOM     28  C   UNL     1       7.859  -3.583  -8.632  0.00  0.00    +0.000 A 
ATOM     29  C   UNL     1       6.818  -3.055  -7.891  0.00  0.00    +0.004 A 
ATOM     30  C   UNL     1       7.004  -2.747  -6.558  0.00  0.00    +0.046 A 
ENDBRANCH  24  25
ENDBRANCH  21  24
ENDBRANCH  16  18
ENDBRANCH   1  16
TORSDOF 6
