REMARK  Name = ZINC08273031
REMARK  9 active torsions:
REMARK  status: ('A' for Active; 'I' for Inactive)
REMARK    1  A    between atoms: C_1  and  C_2
REMARK    2  A    between atoms: C_2  and  O_3
REMARK    3  A    between atoms: O_3  and  C_4
REMARK    4  A    between atoms: C_9  and  C_10
REMARK    5  A    between atoms: C_10  and  N_11
REMARK    6  A    between atoms: C_12  and  C_14
REMARK    7  A    between atoms: C_18  and  O_20
REMARK    8  A    between atoms: O_20  and  C_21
REMARK    9  A    between atoms: C_27  and  C_30
REMARK                            x       y       z     vdW  Elec       q    Type
REMARK                         _______ _______ _______ _____ _____    ______ ____
ROOT
ATOM      1  N   UNL     1       0.568  -2.898   1.333  0.00  0.00    -0.307 N 
ATOM      2  C   UNL     1       1.714  -3.571   1.560  0.00  0.00    +0.245 C 
ATOM      3  O   UNL     1       2.288  -4.120   0.639  0.00  0.00    -0.270 OA
ATOM      4  H   UNL     1       0.110  -2.460   2.068  0.00  0.00    +0.149 HD
ENDROOT
BRANCH   2   5
ATOM      5  C   UNL     1       2.271  -3.643   2.925  0.00  0.00    +0.044 A 
ATOM      6  C   UNL     1       3.458  -4.340   3.161  0.00  0.00    +0.062 A 
ATOM      7  C   UNL     1       3.980  -4.405   4.441  0.00  0.00    +0.166 A 
ATOM      8  C   UNL     1       3.324  -3.775   5.493  0.00  0.00    +0.204 A 
ATOM      9  C   UNL     1       2.138  -3.080   5.259  0.00  0.00    +0.166 A 
ATOM     10  C   UNL     1       1.615  -3.008   3.982  0.00  0.00    +0.062 A 
ATOM     11  O   UNL     1       3.826  -3.826   6.756  0.00  0.00    -0.482 OA
ATOM     12  C   UNL     1       4.803  -4.839   7.020  0.00  0.00    +0.270 C 
ATOM     13  C   UNL     1       5.828  -4.827   5.878  0.00  0.00    +0.270 C 
ATOM     14  O   UNL     1       5.136  -5.093   4.653  0.00  0.00    -0.485 OA
BRANCH   9  15
ATOM     15  O   UNL     1       1.497  -2.467   6.290  0.00  0.00    -0.491 OA
ATOM     16  C   UNL     1       0.287  -1.772   5.981  0.00  0.00    +0.277 C 
ENDBRANCH   9  15
ENDBRANCH   2   5
BRANCH   1  17
ATOM     17  C   UNL     1       0.015  -2.827  -0.021  0.00  0.00    +0.143 C 
BRANCH  17  23
ATOM     18  C   UNL     1      -1.201  -0.638   0.010  0.00  0.00    +0.126 A 
ATOM     19  C   UNL     1      -2.378   0.099   0.025  0.00  0.00    +0.053 A 
ATOM     20  C   UNL     1      -3.593  -0.548   0.031  0.00  0.00    +0.001 A 
ATOM     21  C   UNL     1      -3.662  -1.935   0.018  0.00  0.00    +0.125 A 
ATOM     22  C   UNL     1      -2.478  -2.669   0.007  0.00  0.00    +0.054 A 
ATOM     23  C   UNL     1      -1.259  -2.023  -0.003  0.00  0.00    +0.015 A 
ATOM     24  O   UNL     1      -4.954  -2.365   0.011  0.00  0.00    -0.488 OA
ATOM     25  C   UNL     1      -5.810  -1.300   0.460  0.00  0.00    +0.175 C 
ATOM     26  C   UNL     1      -5.019  -0.033   0.057  0.00  0.00    +0.083 C 
ATOM     27  C   UNL     1      -6.000  -1.361   1.977  0.00  0.00    +0.052 C 
BRANCH  18  28
ATOM     28  O   UNL     1       0.002  -0.004   0.002  0.00  0.00    -0.492 OA
BRANCH  28  30
ATOM     29  C   UNL     1       1.418   1.954  -0.001  0.00  0.00    +0.048 C 
ATOM     30  C   UNL     1      -0.017   1.425   0.010  0.00  0.00    +0.225 C 
ENDBRANCH  28  30
ENDBRANCH  18  28
ENDBRANCH  17  23
ENDBRANCH   1  17
TORSDOF 6
