REMARK  Name = ZINC64202227
REMARK  5 active torsions:
REMARK  status: ('A' for Active; 'I' for Inactive)
REMARK    1  A    between atoms: C_1  and  C_2
REMARK    2  A    between atoms: C_2  and  S_3
REMARK    3  A    between atoms: S_3  and  N_6
REMARK    4  A    between atoms: C_15  and  C_17
REMARK    5  A    between atoms: C_22  and  C_25
REMARK                            x       y       z     vdW  Elec       q    Type
REMARK                         _______ _______ _______ _____ _____    ______ ____
ROOT
ATOM      1  C   UNL     1      -1.184  -1.786  -2.628  0.00  0.00    +0.235 C 
ATOM      2  O   UNL     1      -0.831  -0.630  -2.524  0.00  0.00    -0.274 OA
ATOM      3  N   UNL     1      -2.323  -2.086  -3.284  0.00  0.00    -0.296 N 
ATOM      4  C   UNL     1      -3.217  -1.030  -3.788  0.00  0.00    +0.113 C 
ATOM      5  C   UNL     1      -3.273  -1.146  -5.314  0.00  0.00    +0.054 C 
ATOM      6  C   UNL     1      -3.466  -2.576  -5.722  0.00  0.00    -0.043 C 
ATOM      7  C   UNL     1      -3.216  -3.616  -4.936  0.00  0.00    -0.004 C 
ATOM      8  C   UNL     1      -2.719  -3.480  -3.528  0.00  0.00    +0.135 C 
ENDROOT
BRANCH   1  18
ATOM      9  N   UNL     1      -0.677  -3.034  -0.598  0.00  0.00    -0.165 NA
ATOM     10  C   UNL     1      -0.024  -4.125   0.134  0.00  0.00    +0.145 C 
ATOM     11  C   UNL     1       1.442  -4.166  -0.219  0.00  0.00    -0.028 A 
ATOM     12  C   UNL     1       2.271  -4.970   0.552  0.00  0.00    +0.005 A 
ATOM     13  C   UNL     1       3.619  -5.057   0.273  0.00  0.00    +0.000 A 
ATOM     14  C   UNL     1       4.147  -4.340  -0.784  0.00  0.00    +0.000 A 
ATOM     15  C   UNL     1       3.326  -3.538  -1.548  0.00  0.00    +0.004 A 
ATOM     16  C   UNL     1       1.968  -3.443  -1.265  0.00  0.00    -0.041 A 
ATOM     17  C   UNL     1       1.138  -2.527  -2.125  0.00  0.00    +0.065 C 
ATOM     18  C   UNL     1      -0.349  -2.886  -2.025  0.00  0.00    +0.170 C 
BRANCH   9  19
ATOM     19  S   UNL     1      -1.746  -2.014   0.151  0.00  0.00    +0.033 S 
ATOM     20  O   UNL     1      -1.456  -0.730  -0.383  0.00  0.00    -0.158 OA
ATOM     21  O   UNL     1      -1.585  -2.275   1.538  0.00  0.00    -0.158 OA
BRANCH  19  23
ATOM     22  C   UNL     1      -4.465  -1.817   0.378  0.00  0.00    +0.029 C 
ATOM     23  C   UNL     1      -3.383  -2.566  -0.403  0.00  0.00    +0.182 C 
ENDBRANCH  19  23
ENDBRANCH   9  19
ENDBRANCH   1  18
BRANCH   6  24
ATOM     24  C   UNL     1      -3.944  -2.832  -7.024  0.00  0.00    -0.016 C 
ATOM     25  C   UNL     1      -4.131  -1.910  -8.046  0.00  0.00    +0.003 A 
ATOM     26  C   UNL     1      -3.923  -0.513  -8.122  0.00  0.00    +0.010 A 
ATOM     27  C   UNL     1      -4.198   0.145  -9.275  0.00  0.00    +0.001 A 
ATOM     28  C   UNL     1      -4.686  -0.523 -10.403  0.00  0.00    +0.002 A 
ATOM     29  C   UNL     1      -4.909  -1.859 -10.403  0.00  0.00    +0.026 A 
ATOM     30  C   UNL     1      -4.645  -2.619  -9.232  0.00  0.00    +0.043 A 
ATOM     31  N   UNL     1      -4.776  -3.903  -8.979  0.00  0.00    -0.380 N 
ATOM     32  C   UNL     1      -4.353  -4.170  -7.601  0.00  0.00    +0.149 C 
ATOM     33  H   UNL     1      -5.096  -4.569  -9.607  0.00  0.00    +0.160 HD
ENDBRANCH   6  24
TORSDOF 4
