REMARK  Name = ZINC07614292
REMARK  9 active torsions:
REMARK  status: ('A' for Active; 'I' for Inactive)
REMARK    1  A    between atoms: C_1  and  C_2
REMARK    2  A    between atoms: C_2  and  O_3
REMARK    3  A    between atoms: O_3  and  C_4
REMARK    4  A    between atoms: C_12  and  N_16
REMARK    5  A    between atoms: C_13  and  C_14
REMARK    6  A    between atoms: C_17  and  C_19
REMARK    7  A    between atoms: C_19  and  C_20
REMARK    8  A    between atoms: C_23  and  O_26
REMARK    9  A    between atoms: O_26  and  C_27
REMARK                            x       y       z     vdW  Elec       q    Type
REMARK                         _______ _______ _______ _____ _____    ______ ____
ROOT
ATOM      1  C   UNL     1       2.220   7.771   8.682  0.00  0.00    +0.403 C 
ATOM      2  O   UNL     1       2.379   8.905   9.088  0.00  0.00    -0.226 OA
ATOM      3  N   UNL     1       1.385   7.536   7.650  0.00  0.00    -0.262 N 
ATOM      4  C   UNL     1       0.655   8.632   6.995  0.00  0.00    +0.116 C 
ATOM      5  C   UNL     1       1.123   8.764   5.544  0.00  0.00    +0.056 C 
ATOM      6  C   UNL     1       1.135   7.387   4.894  0.00  0.00    -0.015 A 
ATOM      7  C   UNL     1       1.159   6.259   5.638  0.00  0.00    +0.013 A 
ATOM      8  S   UNL     1       1.169   4.937   4.461  0.00  0.00    -0.075 S 
ATOM      9  C   UNL     1       1.140   5.866   2.999  0.00  0.00    +0.090 A 
ATOM     10  C   UNL     1       1.130   7.176   3.456  0.00  0.00    +0.084 A 
ATOM     11  C   UNL     1       1.171   6.170   7.134  0.00  0.00    +0.153 C 
ENDROOT
BRANCH   9  12
ATOM     12  N   UNL     1       1.135   5.411   1.688  0.00  0.00    -0.279 N 
ATOM     13  C   UNL     1       1.153   4.087   1.434  0.00  0.00    +0.222 C 
ATOM     14  O   UNL     1       1.174   3.294   2.351  0.00  0.00    -0.275 OA
ATOM     15  H   UNL     1       1.118   6.045   0.954  0.00  0.00    +0.155 HD
BRANCH  13  16
ATOM     16  C   UNL     1       1.147   3.593   0.011  0.00  0.00    +0.131 C 
BRANCH  16  17
ATOM     17  C   UNL     1       1.171   2.086   0.002  0.00  0.00    -0.038 A 
ATOM     18  C   UNL     1      -0.017   1.377   0.010  0.00  0.00    +0.007 A 
ATOM     19  C   UNL     1       0.002  -0.004   0.002  0.00  0.00    +0.046 A 
ATOM     20  C   UNL     1       1.213  -0.680  -0.013  0.00  0.00    +0.120 A 
ATOM     21  C   UNL     1       2.403   0.033  -0.021  0.00  0.00    +0.046 A 
ATOM     22  C   UNL     1       2.379   1.415  -0.013  0.00  0.00    +0.007 A 
BRANCH  20  23
ATOM     23  O   UNL     1       1.234  -2.039  -0.020  0.00  0.00    -0.495 OA
ATOM     24  C   UNL     1       2.518  -2.668  -0.036  0.00  0.00    +0.277 C 
ENDBRANCH  20  23
ENDBRANCH  16  17
ENDBRANCH  13  16
ENDBRANCH   9  12
BRANCH  10  25
ATOM     25  C   UNL     1       1.110   8.279   2.544  0.00  0.00    +0.102 C 
ATOM     26  N   UNL     1       1.094   9.155   1.821  0.00  0.00    -0.191 NA
ENDBRANCH  10  25
BRANCH   1  27
ATOM     27  O   UNL     1       2.876   6.749   9.263  0.00  0.00    -0.451 OA
BRANCH  27  29
ATOM     28  C   UNL     1       4.411   5.797  10.896  0.00  0.00    +0.048 C 
ATOM     29  C   UNL     1       3.758   7.076  10.369  0.00  0.00    +0.230 C 
ENDBRANCH  27  29
ENDBRANCH   1  27
TORSDOF 7
