REMARK  Name = ZINC02957742
REMARK  7 active torsions:
REMARK  status: ('A' for Active; 'I' for Inactive)
REMARK    1  A    between atoms: C_1  and  C_2
REMARK    2  A    between atoms: C_5  and  N_8
REMARK    3  A    between atoms: C_9  and  C_11
REMARK    4  A    between atoms: C_12  and  N_27
REMARK    5  A    between atoms: N_13  and  C_16
REMARK    6  A    between atoms: C_19  and  O_22
REMARK    7  A    between atoms: O_22  and  C_23
REMARK                            x       y       z     vdW  Elec       q    Type
REMARK                         _______ _______ _______ _____ _____    ______ ____
ROOT
ATOM      1  C   UNL     1       4.494   0.510  -0.380  0.00  0.00    +0.189 A 
ATOM      2  C   UNL     1       3.545   1.490  -0.649  0.00  0.00    +0.152 A 
ATOM      3  N   UNL     1       2.409   1.109  -0.001  0.00  0.00    -0.198 N 
ATOM      4  N   UNL     1       2.697  -0.103   0.641  0.00  0.00    -0.058 NA
ATOM      5  N   UNL     1       3.919  -0.424   0.400  0.00  0.00    -0.122 NA
ENDROOT
BRANCH   3   6
ATOM      6  C   UNL     1       1.185   1.795   0.016  0.00  0.00    +0.069 A 
ATOM      7  C   UNL     1      -0.008   1.085   0.033  0.00  0.00    +0.031 A 
ATOM      8  C   UNL     1      -1.212   1.761   0.045  0.00  0.00    +0.048 A 
ATOM      9  C   UNL     1      -1.230   3.148   0.050  0.00  0.00    +0.130 A 
ATOM     10  C   UNL     1      -0.037   3.857   0.032  0.00  0.00    +0.048 A 
ATOM     11  C   UNL     1       1.167   3.183   0.015  0.00  0.00    +0.031 A 
BRANCH   9  12
ATOM     12  O   UNL     1      -2.416   3.813   0.067  0.00  0.00    -0.406 OA
BRANCH  12  13
ATOM     13  C   UNL     1      -3.604   3.019   0.086  0.00  0.00    +0.575 C 
ATOM     14  F   UNL     1      -3.608   2.212   1.228  0.00  0.00    -0.133 F 
ATOM     15  F   UNL     1      -4.724   3.857   0.102  0.00  0.00    -0.133 F 
ATOM     16  F   UNL     1      -3.642   2.211  -1.056  0.00  0.00    -0.133 F 
ENDBRANCH  12  13
ENDBRANCH   9  12
ENDBRANCH   3   6
BRANCH   1  18
ATOM     17  N   UNL     1       6.698  -0.522  -0.535  0.00  0.00    -0.280 N 
ATOM     18  C   UNL     1       5.878   0.495  -0.867  0.00  0.00    +0.272 C 
ATOM     19  O   UNL     1       6.286   1.400  -1.570  0.00  0.00    -0.268 OA
ATOM     20  H   UNL     1       6.394  -1.209   0.079  0.00  0.00    +0.155 HD
BRANCH  17  25
ATOM     21  C   UNL     1      11.921  -0.788  -2.731  0.00  0.00    +0.044 C 
ATOM     22  C   UNL     1      10.534  -0.718  -2.147  0.00  0.00    -0.050 A 
ATOM     23  C   UNL     1       9.973   0.510  -1.848  0.00  0.00    +0.005 A 
ATOM     24  C   UNL     1       8.701   0.579  -1.313  0.00  0.00    +0.023 A 
ATOM     25  C   UNL     1       7.986  -0.588  -1.076  0.00  0.00    +0.034 A 
ATOM     26  C   UNL     1       8.554  -1.820  -1.373  0.00  0.00    +0.023 A 
ATOM     27  C   UNL     1       9.824  -1.881  -1.913  0.00  0.00    +0.005 A 
ENDBRANCH  17  25
ENDBRANCH   1  18
BRANCH   2  28
ATOM     28  N   UNL     1       3.719   2.623  -1.417  0.00  0.00    -0.341 N 
ATOM     29  H   UNL     1       2.985   3.245  -1.538  0.00  0.00    +0.144 HD
ATOM     30  H   UNL     1       4.577   2.797  -1.836  0.00  0.00    +0.144 HD
ENDBRANCH   2  28
TORSDOF 6
