REMARK  Name = ZINC45449659
REMARK  6 active torsions:
REMARK  status: ('A' for Active; 'I' for Inactive)
REMARK    1  A    between atoms: C_1  and  C_2
REMARK    2  A    between atoms: C_4  and  C_24
REMARK    3  A    between atoms: C_6  and  C_23
REMARK    4  A    between atoms: C_10  and  C_11
REMARK    5  A    between atoms: C_15  and  C_22
REMARK    6  A    between atoms: C_19  and  C_21
REMARK                            x       y       z     vdW  Elec       q    Type
REMARK                         _______ _______ _______ _____ _____    ______ ____
ROOT
ATOM      1  C   UNL     1       2.932   0.672  -0.949  0.00  0.00    +0.046 C 
ATOM      2  C   UNL     1       1.939  -0.416  -0.628  0.00  0.00    -0.020 A 
ATOM      3  C   UNL     1       1.247  -1.065  -1.664  0.00  0.00    +0.032 A 
ATOM      4  C   UNL     1       1.325  -0.858  -3.063  0.00  0.00    +0.050 A 
ATOM      5  N   UNL     1       0.578  -1.584  -3.865  0.00  0.00    -0.237 NA
ATOM      6  C   UNL     1      -0.252  -2.510  -3.415  0.00  0.00    +0.128 A 
ATOM      7  N   UNL     1      -0.374  -2.754  -2.124  0.00  0.00    -0.225 NA
ATOM      8  C   UNL     1       0.337  -2.074  -1.252  0.00  0.00    +0.113 A 
ATOM      9  S   UNL     1       0.491  -2.065   0.515  0.00  0.00    -0.064 S 
ATOM     10  C   UNL     1       1.717  -0.777   0.664  0.00  0.00    +0.080 A 
ATOM     11  C   UNL     1      -1.076  -3.303  -4.397  0.00  0.00    +0.088 C 
ATOM     12  C   UNL     1       2.254   0.186  -3.627  0.00  0.00    +0.066 C 
ENDROOT
BRANCH  10  13
ATOM     13  C   UNL     1       2.333  -0.236   1.884  0.00  0.00    +0.254 C 
ATOM     14  O   UNL     1       2.410   0.968   2.044  0.00  0.00    -0.269 OA
ATOM     15  N   UNL     1       2.813  -1.073   2.825  0.00  0.00    -0.290 N 
ATOM     16  C   UNL     1       2.682  -2.531   2.679  0.00  0.00    +0.139 C 
ATOM     17  C   UNL     1       4.060  -3.165   2.903  0.00  0.00    +0.133 C 
ATOM     18  O   UNL     1       4.597  -2.697   4.142  0.00  0.00    -0.373 OA
ATOM     19  C   UNL     1       4.823  -1.286   4.186  0.00  0.00    +0.182 C 
ATOM     20  C   UNL     1       3.489  -0.556   4.025  0.00  0.00    +0.099 C 
ATOM     21  C   UNL     1       3.741   0.945   3.868  0.00  0.00    +0.030 C 
ATOM     22  C   UNL     1       3.920  -4.688   2.948  0.00  0.00    +0.039 C 
ENDBRANCH  10  13
TORSDOF 1
