REMARK  Name = ZINC38732399
REMARK  7 active torsions:
REMARK  status: ('A' for Active; 'I' for Inactive)
REMARK    1  A    between atoms: C_1  and  C_2
REMARK    2  A    between atoms: C_2  and  C_3
REMARK    3  A    between atoms: C_2  and  C_4
REMARK    4  A    between atoms: C_2  and  C_5
REMARK    5  A    between atoms: C_8  and  N_11
REMARK    6  A    between atoms: C_12  and  C_14
REMARK    7  A    between atoms: C_20  and  C_22
REMARK                            x       y       z     vdW  Elec       q    Type
REMARK                         _______ _______ _______ _____ _____    ______ ____
ROOT
ATOM      1  C   UNL     1       5.682  -3.065  -0.111  0.00  0.00    +0.087 C 
ATOM      2  C   UNL     1       5.210  -4.476   0.247  0.00  0.00    +0.013 C 
ATOM      3  C   UNL     1       5.963  -4.968   1.484  0.00  0.00    +0.001 C 
ATOM      4  C   UNL     1       7.465  -4.991   1.192  0.00  0.00    +0.001 C 
ATOM      5  C   UNL     1       7.937  -3.580   0.835  0.00  0.00    +0.013 C 
ATOM      6  C   UNL     1       7.184  -3.089  -0.403  0.00  0.00    +0.087 C 
ENDROOT
BRANCH   6   7
ATOM      7  C   UNL     1       7.649  -1.699  -0.755  0.00  0.00    +0.219 C 
ATOM      8  O   UNL     1       7.027  -0.734  -0.363  0.00  0.00    -0.275 OA
ATOM      9  N   UNL     1       8.756  -1.528  -1.505  0.00  0.00    -0.298 N 
ATOM     10  C   UNL     1       9.459  -2.686  -2.075  0.00  0.00    +0.126 C 
ATOM     11  C   UNL     1       9.573  -2.492  -3.592  0.00  0.00    +0.125 C 
ATOM     12  N   UNL     1      10.098  -1.145  -3.855  0.00  0.00    -0.314 N 
ATOM     13  C   UNL     1       9.395   0.013  -3.285  0.00  0.00    +0.125 C 
ATOM     14  C   UNL     1       9.277  -0.181  -1.772  0.00  0.00    +0.126 C 
ATOM     15  C   UNL     1      11.240  -0.969  -4.628  0.00  0.00    +0.099 A 
ATOM     16  C   UNL     1      11.812  -2.062  -5.271  0.00  0.00    +0.042 A 
ATOM     17  C   UNL     1      12.948  -1.873  -6.037  0.00  0.00    +0.005 A 
ATOM     18  C   UNL     1      13.475  -0.592  -6.136  0.00  0.00    +0.018 A 
ATOM     19  C   UNL     1      12.855   0.447  -5.471  0.00  0.00    +0.084 A 
ATOM     20  N   UNL     1      11.769   0.238  -4.751  0.00  0.00    -0.350 N 
ATOM     21  H   UNL     1      11.351   0.987  -4.297  0.00  0.00    +0.166 HD
ENDBRANCH   6   7
BRANCH   1  23
ATOM     22  N   UNL     1       3.597  -2.478  -1.304  0.00  0.00    -0.312 N 
ATOM     23  C   UNL     1       4.941  -2.581  -1.330  0.00  0.00    +0.217 C 
ATOM     24  O   UNL     1       5.553  -2.284  -2.334  0.00  0.00    -0.275 OA
ATOM     25  H   UNL     1       3.107  -2.716  -0.501  0.00  0.00    +0.149 HD
BRANCH  22  29
ATOM     26  C   UNL     1       0.706  -0.515  -1.207  0.00  0.00    -0.005 C 
ATOM     27  C   UNL     1       0.735  -2.045  -1.202  0.00  0.00    +0.006 C 
ATOM     28  C   UNL     1       1.444  -2.545  -2.462  0.00  0.00    +0.022 C 
ATOM     29  C   UNL     1       2.876  -2.007  -2.490  0.00  0.00    +0.073 C 
ATOM     30  C   UNL     1       2.846  -0.478  -2.494  0.00  0.00    +0.022 C 
ATOM     31  C   UNL     1       2.138   0.022  -1.234  0.00  0.00    +0.006 C 
BRANCH  26  33
ATOM     32  C   UNL     1      -0.033   1.515   0.049  0.00  0.00    +0.011 C 
ATOM     33  C   UNL     1      -0.003  -0.015   0.054  0.00  0.00    -0.035 C 
ATOM     34  C   UNL     1       0.750  -0.506   1.291  0.00  0.00    +0.011 C 
ATOM     35  C   UNL     1      -1.435  -0.552   0.081  0.00  0.00    +0.011 C 
ENDBRANCH  26  33
ENDBRANCH  22  29
ENDBRANCH   1  23
TORSDOF 4
