REMARK  Name = ZINC65815420
REMARK  5 active torsions:
REMARK  status: ('A' for Active; 'I' for Inactive)
REMARK    1  A    between atoms: C_1  and  C_2
REMARK    2  A    between atoms: C_2  and  N_3
REMARK    3  A    between atoms: N_3  and  C_4
REMARK    4  A    between atoms: C_4  and  C_5
REMARK    5  A    between atoms: C_11  and  C_14
REMARK                            x       y       z     vdW  Elec       q    Type
REMARK                         _______ _______ _______ _____ _____    ______ ____
ROOT
ATOM      1  N   UNL     1      -0.891  -0.781   1.605  0.00  0.00    -0.286 N 
ATOM      2  C   UNL     1      -1.637  -1.426   0.686  0.00  0.00    +0.305 C 
ATOM      3  O   UNL     1      -1.264  -1.481  -0.470  0.00  0.00    -0.252 OA
ATOM      4  N   UNL     1      -2.797  -2.010   1.048  0.00  0.00    -0.285 N 
ATOM      5  C   UNL     1      -3.434  -3.010   0.181  0.00  0.00    +0.110 C 
ATOM      6  C   UNL     1      -4.883  -2.584  -0.080  0.00  0.00    +0.032 C 
ATOM      7  C   UNL     1      -5.595  -2.366   1.257  0.00  0.00    +0.078 C 
ATOM      8  C   UNL     1      -4.896  -1.248   2.033  0.00  0.00    +0.032 C 
ATOM      9  C   UNL     1      -3.444  -1.662   2.320  0.00  0.00    +0.110 C 
ENDROOT
BRANCH   7  10
ATOM     10  C   UNL     1      -7.030  -1.981   1.005  0.00  0.00    +0.219 C 
ATOM     11  O   UNL     1      -7.342  -1.460  -0.045  0.00  0.00    -0.275 OA
ATOM     12  N   UNL     1      -7.966  -2.215   1.946  0.00  0.00    -0.298 N 
ATOM     13  C   UNL     1      -7.542  -2.722   3.219  0.00  0.00    +0.111 C 
ATOM     14  C   UNL     1      -8.375  -2.216   4.358  0.00  0.00    +0.007 C 
ATOM     15  C   UNL     1      -8.627  -0.720   4.287  0.00  0.00    +0.008 C 
ATOM     16  C   UNL     1      -9.846  -0.331   3.474  0.00  0.00    -0.009 C 
ATOM     17  C   UNL     1     -11.072  -1.144   3.899  0.00  0.00    +0.007 C 
ATOM     18  C   UNL     1     -10.736  -2.620   3.678  0.00  0.00    -0.009 C 
ATOM     19  C   UNL     1      -9.618  -3.009   4.647  0.00  0.00    +0.008 C 
ATOM     20  C   UNL     1     -10.340  -2.893   2.245  0.00  0.00    +0.026 C 
ATOM     21  C   UNL     1      -9.354  -1.937   1.623  0.00  0.00    +0.077 C 
ATOM     22  C   UNL     1      -9.653  -0.484   1.972  0.00  0.00    +0.026 C 
ENDBRANCH   7  10
BRANCH   1  24
ATOM     23  C   UNL     1       1.506  -0.805   1.124  0.00  0.00    +0.024 C 
ATOM     24  C   UNL     1       0.238   0.049   1.180  0.00  0.00    +0.106 C 
ENDBRANCH   1  24
BRANCH   1  25
ATOM     25  C   UNL     1      -1.211  -0.910   3.029  0.00  0.00    +0.106 C 
ATOM     26  C   UNL     1      -1.726   0.429   3.559  0.00  0.00    +0.024 C 
ENDBRANCH   1  25
TORSDOF 3
