REMARK  Name = ZINC46852622
REMARK  9 active torsions:
REMARK  status: ('A' for Active; 'I' for Inactive)
REMARK    1  A    between atoms: C_1  and  C_2
REMARK    2  A    between atoms: C_2  and  C_4
REMARK    3  A    between atoms: C_2  and  N_20
REMARK    4  A    between atoms: C_4  and  N_5
REMARK    5  A    between atoms: N_8  and  C_9
REMARK    6  A    between atoms: N_8  and  C_10
REMARK    7  A    between atoms: C_10  and  C_12
REMARK    8  A    between atoms: C_10  and  C_13
REMARK    9  A    between atoms: N_23  and  C_26
REMARK                            x       y       z     vdW  Elec       q    Type
REMARK                         _______ _______ _______ _____ _____    ______ ____
ROOT
ATOM      1  C   UNL     1      -1.104  -0.221  -0.271  0.00  0.00    +0.090 C 
ENDROOT
BRANCH   1   2
ATOM      2  N   UNL     1      -1.165  -1.665  -0.507  0.00  0.00    -0.301 N 
ATOM      3  C   UNL     1      -2.324  -2.238  -0.887  0.00  0.00    +0.302 C 
ATOM      4  O   UNL     1      -3.320  -1.556  -1.034  0.00  0.00    -0.253 OA
ATOM      5  N   UNL     1      -2.379  -3.567  -1.105  0.00  0.00    -0.282 N 
ATOM      6  C   UNL     1      -1.179  -4.389  -0.928  0.00  0.00    +0.134 C 
ATOM      7  H   UNL     1      -0.370  -2.209  -0.390  0.00  0.00    +0.150 HD
BRANCH   5   8
ATOM      8  C   UNL     1      -3.639  -4.190  -1.518  0.00  0.00    +0.104 C 
ATOM      9  C   UNL     1      -3.417  -4.984  -2.807  0.00  0.00    +0.033 C 
BRANCH   8  10
ATOM     10  C   UNL     1      -4.120  -5.118  -0.433  0.00  0.00    -0.027 A 
ATOM     11  C   UNL     1      -5.398  -4.983   0.075  0.00  0.00    +0.008 A 
ATOM     12  C   UNL     1      -5.840  -5.834   1.071  0.00  0.00    +0.038 A 
ATOM     13  C   UNL     1      -5.003  -6.823   1.558  0.00  0.00    +0.123 A 
ATOM     14  C   UNL     1      -3.722  -6.957   1.048  0.00  0.00    +0.038 A 
ATOM     15  C   UNL     1      -3.284  -6.108   0.050  0.00  0.00    +0.008 A 
ATOM     16  F   UNL     1      -5.434  -7.655   2.531  0.00  0.00    -0.205 F 
ENDBRANCH   8  10
ENDBRANCH   5   8
ENDBRANCH   1   2
BRANCH   1  18
ATOM     17  C   UNL     1       0.385   1.675   0.385  0.00  0.00    -0.012 C 
ATOM     18  C   UNL     1       0.339   0.188   0.030  0.00  0.00    -0.054 C 
BRANCH  18  19
ATOM     19  N   UNL     1       0.846  -0.602   1.160  0.00  0.00    +0.384 N 
ATOM     20  C   UNL     1       2.248  -0.248   1.412  0.00  0.00    -0.059 C 
ATOM     21  C   UNL     1       2.812  -1.151   2.515  0.00  0.00    +0.086 C 
ATOM     22  N   UNL     1       1.938  -1.047   3.694  0.00  0.00    -0.333 N 
ATOM     23  C   UNL     1       0.490  -1.226   3.502  0.00  0.00    +0.086 C 
ATOM     24  C   UNL     1       0.037  -0.319   2.353  0.00  0.00    -0.059 C 
ATOM     25  H   UNL     1       0.783  -1.584   0.938  0.00  0.00    -0.081 HD
BRANCH  22  26
ATOM     26  C   UNL     1       2.468  -0.786   4.960  0.00  0.00    +0.030 A 
ATOM     27  C   UNL     1       1.645  -0.815   6.078  0.00  0.00    +0.023 A 
ATOM     28  C   UNL     1       2.173  -0.557   7.328  0.00  0.00    +0.002 A 
ATOM     29  C   UNL     1       3.519  -0.270   7.467  0.00  0.00    +0.000 A 
ATOM     30  C   UNL     1       4.341  -0.241   6.355  0.00  0.00    +0.002 A 
ATOM     31  C   UNL     1       3.821  -0.503   5.103  0.00  0.00    +0.023 A 
ENDBRANCH  22  26
ENDBRANCH  18  19
ENDBRANCH   1  18
TORSDOF 6
