REMARK  Name = ZINC66794442
REMARK  3 active torsions:
REMARK  status: ('A' for Active; 'I' for Inactive)
REMARK    1  A    between atoms: N_8  and  C_11
REMARK    2  A    between atoms: C_11  and  N_12
REMARK    3  A    between atoms: C_16  and  C_19
REMARK                            x       y       z     vdW  Elec       q    Type
REMARK                         _______ _______ _______ _____ _____    ______ ____
ROOT
ATOM      1  N   UNL     1       3.662  -3.909  -1.394  0.00  0.00    -0.279 NA
ATOM      2  C   UNL     1       4.633  -3.275  -2.298  0.00  0.00    +0.114 C 
ATOM      3  C   UNL     1       4.496  -3.885  -3.695  0.00  0.00    +0.176 C 
ATOM      4  O   UNL     1       4.679  -5.301  -3.612  0.00  0.00    -0.369 OA
ATOM      5  C   UNL     1       3.749  -5.951  -2.741  0.00  0.00    +0.162 C 
ATOM      6  C   UNL     1       3.879  -5.362  -1.333  0.00  0.00    +0.122 C 
ENDROOT
BRANCH   5   7
ATOM      7  C   UNL     1       4.047  -7.428  -2.699  0.00  0.00    -0.015 A 
ATOM      8  C   UNL     1       5.358  -7.867  -2.663  0.00  0.00    +0.006 A 
ATOM      9  C   UNL     1       5.633  -9.221  -2.625  0.00  0.00    +0.003 A 
ATOM     10  C   UNL     1       4.598 -10.137  -2.621  0.00  0.00    +0.038 A 
ATOM     11  C   UNL     1       3.285  -9.698  -2.656  0.00  0.00    +0.124 A 
ATOM     12  C   UNL     1       3.011  -8.341  -2.689  0.00  0.00    +0.044 A 
ATOM     13  F   UNL     1       2.273 -10.593  -2.654  0.00  0.00    -0.205 F 
ENDBRANCH   5   7
BRANCH   1  14
ATOM     14  C   UNL     1       3.722  -3.312  -0.054  0.00  0.00    +0.235 C 
BRANCH  14  22
ATOM     15  C   UNL     1      -0.016   1.351   0.009  0.00  0.00    +0.005 A 
ATOM     16  C   UNL     1       1.197   2.070   0.002  0.00  0.00    +0.018 A 
ATOM     17  C   UNL     1       2.375   1.423  -0.013  0.00  0.00    +0.098 A 
ATOM     18  N   UNL     1       2.421   0.049  -0.022  0.00  0.00    -0.251 N 
ATOM     19  C   UNL     1       1.248  -0.682  -0.014  0.00  0.00    +0.162 A 
ATOM     20  C   UNL     1       0.002  -0.004   0.002  0.00  0.00    +0.049 A 
ATOM     21  N   UNL     1       1.553  -1.958  -0.024  0.00  0.00    -0.148 NA
ATOM     22  N   UNL     1       2.950  -2.066  -0.039  0.00  0.00    -0.198 N 
ATOM     23  C   UNL     1       3.456  -0.816  -0.037  0.00  0.00    +0.352 A 
ATOM     24  O   UNL     1       4.638  -0.520  -0.048  0.00  0.00    -0.244 OA
ENDBRANCH  14  22
ENDBRANCH   1  14
TORSDOF 3
