REMARK  Name = ZINC02685279
REMARK  7 active torsions:
REMARK  status: ('A' for Active; 'I' for Inactive)
REMARK    1  A    between atoms: C_1  and  C_2
REMARK    2  A    between atoms: C_4  and  C_23
REMARK    3  A    between atoms: C_5  and  N_9
REMARK    4  A    between atoms: C_6  and  C_8
REMARK    5  A    between atoms: N_9  and  S_10
REMARK    6  A    between atoms: S_10  and  C_13
REMARK    7  A    between atoms: C_17  and  C_19
REMARK                            x       y       z     vdW  Elec       q    Type
REMARK                         _______ _______ _______ _____ _____    ______ ____
ROOT
ATOM      1  S   UNL     1       1.227  -4.918  -0.719  0.00  0.00    +0.072 S 
ATOM      2  O   UNL     1       0.961  -6.282  -0.422  0.00  0.00    -0.150 OA
ATOM      3  O   UNL     1       1.402  -4.448  -2.048  0.00  0.00    -0.150 OA
ENDROOT
BRANCH   1   4
ATOM      4  C   UNL     1       2.689  -4.487   0.165  0.00  0.00    +0.109 A 
ATOM      5  C   UNL     1       3.420  -3.373  -0.212  0.00  0.00    +0.030 A 
ATOM      6  C   UNL     1       4.569  -3.026   0.475  0.00  0.00    +0.023 A 
ATOM      7  C   UNL     1       4.996  -3.790   1.544  0.00  0.00    +0.055 A 
ATOM      8  C   UNL     1       4.262  -4.916   1.930  0.00  0.00    +0.083 A 
ATOM      9  C   UNL     1       3.100  -5.257   1.232  0.00  0.00    +0.045 A 
ATOM     10 CL   UNL     1       6.439  -3.354   2.405  0.00  0.00    -0.083 Cl
BRANCH   8  11
ATOM     11  C   UNL     1       4.711  -5.738   3.069  0.00  0.00    +0.388 C 
ATOM     12  O   UNL     1       4.067  -6.723   3.404  0.00  0.00    -0.241 OA
ATOM     13  O   UNL     1       5.726  -5.435   3.679  0.00  0.00    -0.241 OA
ENDBRANCH   8  11
ENDBRANCH   1   4
BRANCH   1  14
ATOM     14  N   UNL     1      -0.016  -4.041  -0.065  0.00  0.00    -0.216 N 
ATOM     15  H   UNL     1      -0.731  -4.493   0.410  0.00  0.00    +0.174 HD
BRANCH  14  20
ATOM     16  C   UNL     1      -0.097   1.603  -0.608  0.00  0.00    +0.044 C 
ATOM     17  C   UNL     1      -0.075   0.103  -0.464  0.00  0.00    -0.050 A 
ATOM     18  C   UNL     1      -0.270  -0.699  -1.573  0.00  0.00    +0.008 A 
ATOM     19  C   UNL     1      -0.251  -2.074  -1.444  0.00  0.00    -0.028 A 
ATOM     20  C   UNL     1      -0.036  -2.651  -0.199  0.00  0.00    +0.054 A 
ATOM     21  C   UNL     1       0.160  -1.842   0.913  0.00  0.00    -0.028 A 
ATOM     22  C   UNL     1       0.145  -0.468   0.776  0.00  0.00    +0.008 A 
ATOM     23  C   UNL     1       0.393  -2.463   2.266  0.00  0.00    +0.046 C 
ATOM     24  C   UNL     1      -0.464  -2.948  -2.654  0.00  0.00    +0.046 C 
ENDBRANCH  14  20
ENDBRANCH   1  14
TORSDOF 4
