REMARK  Name = ZINC12767451
REMARK  2 active torsions:
REMARK  status: ('A' for Active; 'I' for Inactive)
REMARK    1  A    between atoms: C_6  and  C_7
REMARK    2  A    between atoms: N_9  and  C_10
REMARK                            x       y       z     vdW  Elec       q    Type
REMARK                         _______ _______ _______ _____ _____    ______ ____
ROOT
ATOM      1  C   UNL     1       3.746   1.874   0.319  0.00  0.00    +0.027 A 
ATOM      2  C   UNL     1       2.478   1.306   0.341  0.00  0.00    -0.025 A 
ATOM      3  C   UNL     1       1.386   2.072   0.000  0.00  0.00    +0.047 A 
ATOM      4  N   UNL     1       1.539   3.343  -0.354  0.00  0.00    -0.236 NA
ATOM      5  C   UNL     1       2.720   3.932  -0.395  0.00  0.00    +0.137 A 
ATOM      6  C   UNL     1       3.879   3.213  -0.054  0.00  0.00    +0.092 A 
ATOM      7  N   UNL     1       2.816   5.260  -0.773  0.00  0.00    -0.325 N 
ATOM      8  C   UNL     1      -0.019   1.523   0.010  0.00  0.00    +0.056 C 
ATOM      9  C   UNL     1       0.002  -0.004   0.002  0.00  0.00    +0.006 C 
ATOM     10  C   UNL     1       0.928  -0.482   1.127  0.00  0.00    +0.005 C 
ATOM     11  C   UNL     1       2.366  -0.141   0.743  0.00  0.00    +0.037 C 
ATOM     12  H   UNL     1       3.800   5.752  -0.808  0.00  0.00    +0.148 HD
ENDROOT
BRANCH   7  13
ATOM     13  C   UNL     1       1.609   6.010  -1.128  0.00  0.00    +0.072 C 
ATOM     14  C   UNL     1       1.272   5.767  -2.600  0.00  0.00    +0.022 C 
ATOM     15  C   UNL     1       0.011   6.551  -2.970  0.00  0.00    +0.002 C 
ATOM     16  C   UNL     1       0.253   8.044  -2.742  0.00  0.00    +0.000 C 
ATOM     17  C   UNL     1       0.590   8.287  -1.270  0.00  0.00    +0.002 C 
ATOM     18  C   UNL     1       1.851   7.503  -0.899  0.00  0.00    +0.022 C 
ENDBRANCH   7  13
BRANCH   6  19
ATOM     19  C   UNL     1       5.167   3.840  -0.091  0.00  0.00    +0.103 C 
ATOM     20  N   UNL     1       6.188   4.337  -0.119  0.00  0.00    -0.191 NA
ENDBRANCH   6  19
TORSDOF 2
