REMARK  Name = ZINC23855779
REMARK  6 active torsions:
REMARK  status: ('A' for Active; 'I' for Inactive)
REMARK    1  A    between atoms: C_1  and  O_2
REMARK    2  A    between atoms: O_2  and  C_3
REMARK    3  A    between atoms: C_6  and  N_9
REMARK    4  A    between atoms: N_14  and  C_17
REMARK    5  A    between atoms: C_17  and  N_18
REMARK    6  A    between atoms: C_26  and  C_28
REMARK                            x       y       z     vdW  Elec       q    Type
REMARK                         _______ _______ _______ _____ _____    ______ ____
ROOT
ATOM      1  N   UNL     1       4.861   4.503   4.140  0.00  0.00    -0.186 N 
ATOM      2  C   UNL     1       4.691   3.207   3.801  0.00  0.00    +0.314 C 
ATOM      3  O   UNL     1       5.410   2.272   4.086  0.00  0.00    -0.264 OA
ATOM      4  C   UNL     1       3.423   3.166   3.002  0.00  0.00    +0.311 C 
ATOM      5  O   UNL     1       2.899   2.191   2.505  0.00  0.00    -0.264 OA
ATOM      6  N   UNL     1       2.989   4.444   2.950  0.00  0.00    -0.204 N 
ATOM      7  C   UNL     1       3.847   5.221   3.630  0.00  0.00    +0.324 C 
ATOM      8  O   UNL     1       3.723   6.422   3.766  0.00  0.00    -0.251 OA
ENDROOT
BRANCH   1  12
ATOM      9  C   UNL     1       8.018   6.027   6.400  0.00  0.00    +0.120 A 
ATOM     10  C   UNL     1       7.958   4.670   6.120  0.00  0.00    +0.047 A 
ATOM     11  C   UNL     1       6.913   4.165   5.371  0.00  0.00    +0.027 A 
ATOM     12  C   UNL     1       5.923   5.016   4.900  0.00  0.00    +0.046 A 
ATOM     13  C   UNL     1       5.986   6.375   5.176  0.00  0.00    +0.027 A 
ATOM     14  C   UNL     1       7.029   6.878   5.928  0.00  0.00    +0.047 A 
BRANCH   9  16
ATOM     15  C   UNL     1       9.047   7.931   7.386  0.00  0.00    +0.277 C 
ATOM     16  O   UNL     1       9.048   6.524   7.136  0.00  0.00    -0.495 OA
ENDBRANCH   9  16
ENDBRANCH   1  12
BRANCH   6  17
ATOM     17  C   UNL     1       1.777   4.905   2.269  0.00  0.00    +0.206 C 
BRANCH  17  18
ATOM     18  N   UNL     1       2.102   5.267   0.883  0.00  0.00    -0.275 NA
ATOM     19  C   UNL     1       2.715   6.601   0.817  0.00  0.00    +0.092 C 
ATOM     20  C   UNL     1       3.401   6.763  -0.550  0.00  0.00    +0.058 C 
ATOM     21  C   UNL     1       2.445   6.294  -1.598  0.00  0.00    -0.004 A 
ATOM     22  C   UNL     1       1.309   5.569  -1.397  0.00  0.00    -0.015 A 
ATOM     23  C   UNL     1       0.569   5.245  -2.531  0.00  0.00    +0.013 A 
ATOM     24  C   UNL     1       0.991   5.648  -3.752  0.00  0.00    +0.046 A 
ATOM     25  S   UNL     1       2.494   6.527  -3.352  0.00  0.00    -0.101 S 
ATOM     26  C   UNL     1       0.918   5.160   0.021  0.00  0.00    +0.126 C 
BRANCH  26  27
ATOM     27  C   UNL     1       0.421   3.738   0.017  0.00  0.00    +0.011 A 
ATOM     28  C   UNL     1      -0.855   3.279   0.027  0.00  0.00    +0.013 A 
ATOM     29  C   UNL     1      -1.077   1.915   0.017  0.00  0.00    +0.008 A 
ATOM     30  C   UNL     1      -0.013   1.076   0.008  0.00  0.00    +0.045 A 
ATOM     31  S   UNL     1       1.359   2.219   0.001  0.00  0.00    -0.100 S 
ENDBRANCH  26  27
ENDBRANCH  17  18
ENDBRANCH   6  17
TORSDOF 5
