REMARK  Name = ZINC00272866
REMARK  3 active torsions:
REMARK  status: ('A' for Active; 'I' for Inactive)
REMARK    1  A    between atoms: C_6  and  C_7
REMARK    2  A    between atoms: N_9  and  C_10
REMARK    3  A    between atoms: C_14  and  N_16
REMARK                            x       y       z     vdW  Elec       q    Type
REMARK                         _______ _______ _______ _____ _____    ______ ____
ROOT
ATOM      1  C   UNL     1       3.556   1.794  -0.124  0.00  0.00    +0.248 C 
ATOM      2  O   UNL     1       3.541   3.010  -0.118  0.00  0.00    -0.270 OA
ATOM      3  N   UNL     1       2.402   1.106  -0.015  0.00  0.00    -0.281 N 
ATOM      4  H   UNL     1       2.419   0.138   0.047  0.00  0.00    +0.155 HD
ENDROOT
BRANCH   1  10
ATOM      5  C   UNL     1       4.858  -0.325  -0.255  0.00  0.00    +0.014 A 
ATOM      6  C   UNL     1       6.057  -0.994  -0.380  0.00  0.00    +0.021 A 
ATOM      7  C   UNL     1       7.241  -0.284  -0.491  0.00  0.00    +0.041 A 
ATOM      8  C   UNL     1       7.228   1.101  -0.484  0.00  0.00    +0.021 A 
ATOM      9  C   UNL     1       6.035   1.782  -0.366  0.00  0.00    +0.014 A 
ATOM     10  C   UNL     1       4.838   1.071  -0.253  0.00  0.00    +0.037 A 
ATOM     11 CL   UNL     1       8.748  -1.133  -0.642  0.00  0.00    -0.084 Cl
ENDBRANCH   1  10
BRANCH   3  12
ATOM     12  C   UNL     1       1.181   1.788   0.008  0.00  0.00    +0.036 A 
ATOM     13  C   UNL     1       0.058   1.225  -0.586  0.00  0.00    +0.025 A 
ATOM     14  C   UNL     1      -1.146   1.899  -0.561  0.00  0.00    +0.024 A 
ATOM     15  C   UNL     1      -1.236   3.135   0.056  0.00  0.00    +0.071 A 
ATOM     16  C   UNL     1      -0.121   3.696   0.653  0.00  0.00    +0.146 A 
ATOM     17  C   UNL     1       1.088   3.028   0.626  0.00  0.00    +0.057 A 
ATOM     18 CL   UNL     1      -2.752   3.980   0.087  0.00  0.00    -0.081 Cl
BRANCH  16  19
ATOM     19  N   UNL     1      -0.222   5.015   1.317  0.00  0.00    +0.058 N 
ATOM     20  O   UNL     1       0.760   5.511   1.839  0.00  0.00    -0.126 OA
ATOM     21  O   UNL     1      -1.288   5.604   1.341  0.00  0.00    -0.126 OA
ENDBRANCH  16  19
ENDBRANCH   3  12
TORSDOF 3
