REMARK  Name = ZINC03457977
REMARK  3 active torsions:
REMARK  status: ('A' for Active; 'I' for Inactive)
REMARK    1  A    between atoms: C_1  and  C_2
REMARK    2  A    between atoms: N_10  and  C_14
REMARK    3  A    between atoms: C_14  and  C_15
REMARK                            x       y       z     vdW  Elec       q    Type
REMARK                         _______ _______ _______ _____ _____    ______ ____
ROOT
ATOM      1  C   UNL     1      -0.759   2.033  -1.229  0.00  0.00    +0.007 C 
ATOM      2  C   UNL     1      -0.019   1.526   0.010  0.00  0.00    -0.014 C 
ATOM      3  C   UNL     1       1.417   2.056  -0.000  0.00  0.00    +0.006 C 
ATOM      4  C   UNL     1       2.152   1.559   1.246  0.00  0.00    +0.035 C 
ATOM      5  C   UNL     1       2.156   0.034   1.263  0.00  0.00    +0.113 C 
ATOM      6  C   UNL     1       0.732  -0.510   1.249  0.00  0.00    +0.035 C 
ATOM      7  C   UNL     1       0.002  -0.004   0.002  0.00  0.00    +0.006 C 
ATOM      8  C   UNL     1       2.903  -0.477   2.474  0.00  0.00    +0.247 C 
ATOM      9  O   UNL     1       2.629  -0.288   3.639  0.00  0.00    -0.273 OA
ATOM     10  N   UNL     1       3.939  -1.189   1.984  0.00  0.00    -0.220 N 
ATOM     11  C   UNL     1       3.945  -1.194   0.645  0.00  0.00    +0.310 C 
ATOM     12  O   UNL     1       4.780  -1.769  -0.025  0.00  0.00    -0.252 OA
ATOM     13  N   UNL     1       2.920  -0.492   0.125  0.00  0.00    -0.285 N 
ATOM     14  H   UNL     1       2.726  -0.359  -0.816  0.00  0.00    +0.151 HD
ENDROOT
BRANCH  10  15
ATOM     15  C   UNL     1       4.935  -1.872   2.814  0.00  0.00    +0.153 C 
BRANCH  15  16
ATOM     16  C   UNL     1       4.472  -3.277   3.100  0.00  0.00    -0.029 A 
ATOM     17  C   UNL     1       3.705  -3.538   4.221  0.00  0.00    +0.006 A 
ATOM     18  C   UNL     1       3.276  -4.825   4.481  0.00  0.00    +0.020 A 
ATOM     19  C   UNL     1       3.622  -5.856   3.625  0.00  0.00    +0.041 A 
ATOM     20  C   UNL     1       4.394  -5.596   2.506  0.00  0.00    +0.020 A 
ATOM     21  C   UNL     1       4.818  -4.306   2.245  0.00  0.00    +0.006 A 
ATOM     22 CL   UNL     1       3.089  -7.474   3.954  0.00  0.00    -0.084 Cl
ENDBRANCH  15  16
ENDBRANCH  10  15
TORSDOF 2
