REMARK  Name = ZINC21529286
REMARK  6 active torsions:
REMARK  status: ('A' for Active; 'I' for Inactive)
REMARK    1  A    between atoms: C_1  and  C_2
REMARK    2  A    between atoms: C_3  and  C_15
REMARK    3  A    between atoms: N_5  and  C_7
REMARK    4  A    between atoms: C_7  and  C_8
REMARK    5  A    between atoms: N_24  and  C_27
REMARK    6  A    between atoms: C_27  and  C_28
REMARK                            x       y       z     vdW  Elec       q    Type
REMARK                         _______ _______ _______ _____ _____    ______ ____
ROOT
ATOM      1  C   UNL     1      -0.004  -0.376  -2.548  0.00  0.00    +0.254 C 
ATOM      2  O   UNL     1       1.044  -0.174  -3.131  0.00  0.00    -0.270 OA
ATOM      3  N   UNL     1      -1.177  -0.184  -3.184  0.00  0.00    -0.261 N 
ATOM      4  C   UNL     1      -1.189   0.242  -4.506  0.00  0.00    +0.165 A 
ATOM      5  N   UNL     1      -0.165   0.502  -5.290  0.00  0.00    -0.229 NA
ATOM      6  C   UNL     1      -0.329   0.905  -6.544  0.00  0.00    +0.050 A 
ATOM      7  C   UNL     1      -1.623   1.028  -6.944  0.00  0.00    -0.002 A 
ATOM      8  S   UNL     1      -2.519   0.546  -5.496  0.00  0.00    -0.059 S 
ATOM      9  C   UNL     1      -2.108   1.463  -8.283  0.00  0.00    -0.033 C 
ATOM     10  N   UNL     1      -0.983   2.095  -8.999  0.00  0.00    +0.386 N 
ATOM     11  C   UNL     1       0.194   1.218  -8.937  0.00  0.00    -0.072 C 
ATOM     12  C   UNL     1       0.791   1.223  -7.526  0.00  0.00    +0.038 C 
ATOM     13  H   UNL     1      -2.013  -0.345  -2.718  0.00  0.00    +0.157 HD
ATOM     14  H   UNL     1      -0.765   2.981  -8.567  0.00  0.00    -0.081 HD
ENDROOT
BRANCH   1  17
ATOM     15  C   UNL     1      -0.018   1.503   0.010  0.00  0.00    +0.068 C 
ATOM     16  C   UNL     1       0.002  -0.004   0.002  0.00  0.00    +0.074 A 
ATOM     17  C   UNL     1       0.008  -0.828  -1.146  0.00  0.00    +0.096 A 
ATOM     18  C   UNL     1       0.028  -2.139  -0.707  0.00  0.00    +0.140 A 
ATOM     19  N   UNL     1       0.034  -2.111   0.636  0.00  0.00    -0.248 N 
ATOM     20  N   UNL     1       0.023  -0.776   1.053  0.00  0.00    -0.174 NA
ATOM     21 CL   UNL     1       0.043  -3.559  -1.706  0.00  0.00    -0.062 Cl
BRANCH  19  22
ATOM     22  C   UNL     1       0.053  -3.282   1.517  0.00  0.00    +0.180 C 
BRANCH  22  23
ATOM     23  C   UNL     1       1.480  -3.665   1.812  0.00  0.00    -0.026 A 
ATOM     24  C   UNL     1       2.142  -4.556   0.987  0.00  0.00    +0.005 A 
ATOM     25  C   UNL     1       3.451  -4.907   1.258  0.00  0.00    +0.000 A 
ATOM     26  C   UNL     1       4.099  -4.367   2.354  0.00  0.00    +0.000 A 
ATOM     27  C   UNL     1       3.438  -3.476   3.178  0.00  0.00    +0.000 A 
ATOM     28  C   UNL     1       2.130  -3.122   2.905  0.00  0.00    +0.005 A 
ENDBRANCH  22  23
ENDBRANCH  19  22
ENDBRANCH   1  17
BRANCH  10  29
ATOM     29  C   UNL     1      -1.357   2.315 -10.402  0.00  0.00    -0.043 C 
BRANCH  29  30
ATOM     30  C   UNL     1      -2.484   3.312 -10.471  0.00  0.00    -0.064 A 
ATOM     31  C   UNL     1      -3.795   2.877 -10.425  0.00  0.00    +0.002 A 
ATOM     32  C   UNL     1      -4.830   3.792 -10.489  0.00  0.00    +0.000 A 
ATOM     33  C   UNL     1      -4.553   5.142 -10.598  0.00  0.00    +0.000 A 
ATOM     34  C   UNL     1      -3.242   5.577 -10.643  0.00  0.00    +0.000 A 
ATOM     35  C   UNL     1      -2.207   4.663 -10.575  0.00  0.00    +0.002 A 
ENDBRANCH  29  30
ENDBRANCH  10  29
TORSDOF 5
