REMARK  Name = ZINC05328167
REMARK  4 active torsions:
REMARK  status: ('A' for Active; 'I' for Inactive)
REMARK    1  A    between atoms: C_8  and  C_10
REMARK    2  A    between atoms: C_11  and  C_12
REMARK    3  A    between atoms: C_11  and  C_14
REMARK    4  A    between atoms: C_17  and  N_20
REMARK                            x       y       z     vdW  Elec       q    Type
REMARK                         _______ _______ _______ _____ _____    ______ ____
ROOT
ATOM      1  C   UNL     1      -1.407  -0.530   0.091  0.00  0.00    -0.009 C 
ATOM      2  C   UNL     1      -1.765  -1.306   1.111  0.00  0.00    +0.029 C 
ENDROOT
BRANCH   1   8
ATOM      3  C   UNL     1      -0.019   1.528   0.010  0.00  0.00    +0.010 C 
ATOM      4  C   UNL     1       1.425   2.029  -0.001  0.00  0.00    +0.035 C 
ATOM      5  C   UNL     1       2.170   1.535  -1.218  0.00  0.00    +0.150 C 
ATOM      6  C   UNL     1       2.074   0.010  -1.410  0.00  0.00    +0.150 C 
ATOM      7  C   UNL     1       0.621  -0.457  -1.305  0.00  0.00    +0.042 C 
ATOM      8  C   UNL     1       0.002  -0.004   0.002  0.00  0.00    +0.015 C 
ATOM      9  O   UNL     1       2.454  -0.100  -2.814  0.00  0.00    -0.348 OA
ATOM     10  C   UNL     1       1.840   1.042  -3.439  0.00  0.00    +0.323 C 
ATOM     11  O   UNL     1       1.646   2.050  -2.447  0.00  0.00    -0.348 OA
ENDBRANCH   1   8
BRANCH   2  12
ATOM     12  C   UNL     1      -3.175  -1.832   1.199  0.00  0.00    +0.029 C 
ATOM     13  C   UNL     1      -3.150  -3.361   1.191  0.00  0.00    +0.011 C 
ATOM     14  C   UNL     1      -4.581  -3.895   1.281  0.00  0.00    +0.032 C 
ATOM     15  C   UNL     1      -5.228  -3.403   2.577  0.00  0.00    +0.170 C 
ATOM     16  C   UNL     1      -5.253  -1.873   2.586  0.00  0.00    +0.032 C 
ATOM     17  C   UNL     1      -3.822  -1.339   2.495  0.00  0.00    +0.011 C 
BRANCH  15  18
ATOM     18  N   UNL     1      -4.454  -3.885   3.723  0.00  0.00    +0.025 N 
ATOM     19  O   UNL     1      -3.291  -3.575   3.841  0.00  0.00    -0.131 OA
ATOM     20  O   UNL     1      -4.978  -4.593   4.551  0.00  0.00    -0.131 OA
ENDBRANCH  15  18
ENDBRANCH   2  12
BRANCH   2  21
ATOM     21  C   UNL     1      -0.810  -1.643   2.123  0.00  0.00    +0.095 C 
ATOM     22  N   UNL     1      -0.053  -1.909   2.927  0.00  0.00    -0.191 NA
ENDBRANCH   2  21
TORSDOF 4
