REMARK  Name = ZINC39012656
REMARK  10 active torsions:
REMARK  status: ('A' for Active; 'I' for Inactive)
REMARK    1  A    between atoms: C_1  and  C_2
REMARK    2  A    between atoms: C_5  and  S_8
REMARK    3  A    between atoms: S_8  and  N_11
REMARK    4  A    between atoms: N_11  and  C_12
REMARK    5  A    between atoms: N_11  and  C_16
REMARK    6  A    between atoms: C_12  and  C_13
REMARK    7  A    between atoms: C_13  and  O_14
REMARK    8  A    between atoms: O_14  and  C_15
REMARK    9  A    between atoms: C_16  and  C_17
REMARK   10  A    between atoms: C_24  and  C_29
REMARK                            x       y       z     vdW  Elec       q    Type
REMARK                         _______ _______ _______ _____ _____    ______ ____
ROOT
ATOM      1  N   UNL     1       1.763  -5.085   0.009  0.00  0.00    -0.173 NA
ENDROOT
BRANCH   1   2
ATOM      2  S   UNL     1       0.437  -4.110   0.186  0.00  0.00    +0.061 S 
ATOM      3  O   UNL     1      -0.215  -4.524   1.379  0.00  0.00    -0.153 OA
ATOM      4  O   UNL     1      -0.221  -4.087  -1.073  0.00  0.00    -0.153 OA
BRANCH   2   9
ATOM      5  C   UNL     1       2.454   1.489   1.181  0.00  0.00    +0.044 C 
ATOM      6  C   UNL     1       1.950   0.091   0.932  0.00  0.00    -0.050 A 
ATOM      7  C   UNL     1       1.717  -0.341  -0.360  0.00  0.00    +0.005 A 
ATOM      8  C   UNL     1       1.255  -1.623  -0.588  0.00  0.00    +0.029 A 
ATOM      9  C   UNL     1       1.027  -2.475   0.477  0.00  0.00    +0.105 A 
ATOM     10  C   UNL     1       1.260  -2.044   1.769  0.00  0.00    +0.029 A 
ATOM     11  C   UNL     1       1.726  -0.762   1.997  0.00  0.00    +0.005 A 
ENDBRANCH   2   9
ENDBRANCH   1   2
BRANCH   1  12
ATOM     12  C   UNL     1       2.353  -5.739   1.180  0.00  0.00    +0.137 C 
BRANCH  12  13
ATOM     13  C   UNL     1       1.752  -7.137   1.340  0.00  0.00    +0.176 C 
BRANCH  13  14
ATOM     14  O   UNL     1       2.127  -7.947   0.225  0.00  0.00    -0.382 OA
ATOM     15  C   UNL     1       1.614  -9.280   0.277  0.00  0.00    +0.194 C 
ENDBRANCH  13  14
ENDBRANCH  12  13
ENDBRANCH   1  12
BRANCH   1  16
ATOM     16  C   UNL     1       2.348  -5.293  -1.318  0.00  0.00    +0.126 C 
BRANCH  16  17
ATOM     17  C   UNL     1       3.303  -4.143  -1.641  0.00  0.00    +0.114 C 
ATOM     18  C   UNL     1       3.664  -4.237  -3.111  0.00  0.00    -0.003 C 
ATOM     19  C   UNL     1       4.985  -4.355  -3.424  0.00  0.00    -0.007 A 
ATOM     20  C   UNL     1       5.421  -4.452  -4.817  0.00  0.00    +0.009 A 
ATOM     21  C   UNL     1       6.748  -4.569  -5.082  0.00  0.00    +0.001 A 
ATOM     22  C   UNL     1       7.693  -4.598  -4.056  0.00  0.00    +0.005 A 
ATOM     23  C   UNL     1       7.354  -4.513  -2.744  0.00  0.00    -0.029 A 
ATOM     24  C   UNL     1       6.005  -4.388  -2.361  0.00  0.00    +0.043 A 
ATOM     25  N   UNL     1       5.684  -4.305  -1.071  0.00  0.00    -0.284 N 
ATOM     26  C   UNL     1       4.438  -4.189  -0.643  0.00  0.00    +0.225 C 
ATOM     27  O   UNL     1       4.207  -4.118   0.549  0.00  0.00    -0.275 OA
ATOM     28  C   UNL     1       8.429  -4.553  -1.689  0.00  0.00    +0.045 C 
ATOM     29  H   UNL     1       6.397  -4.332  -0.414  0.00  0.00    +0.155 HD
ENDBRANCH  16  17
ENDBRANCH   1  16
TORSDOF 7
