REMARK  Name = ZINC04944736
REMARK  4 active torsions:
REMARK  status: ('A' for Active; 'I' for Inactive)
REMARK    1  A    between atoms: C_1  and  C_2
REMARK    2  A    between atoms: C_6  and  N_8
REMARK    3  A    between atoms: C_26  and  C_29
REMARK    4  A    between atoms: C_27  and  N_28
REMARK                            x       y       z     vdW  Elec       q    Type
REMARK                         _______ _______ _______ _____ _____    ______ ____
ROOT
ATOM      1  N   UNL     1      -1.175  -0.708   0.119  0.00  0.00    -0.260 N 
ATOM      2  C   UNL     1      -1.075  -2.066  -0.021  0.00  0.00    +0.025 C 
ATOM      3  C   UNL     1       0.132  -2.659  -0.141  0.00  0.00    +0.037 C 
ATOM      4  C   UNL     1       0.244  -4.053  -0.280  0.00  0.00    +0.162 C 
ATOM      5  O   UNL     1       1.347  -4.556  -0.370  0.00  0.00    -0.292 OA
ATOM      6  C   UNL     1      -0.975  -4.933  -0.319  0.00  0.00    +0.080 C 
ATOM      7  C   UNL     1      -2.150  -4.131  -0.888  0.00  0.00    +0.014 C 
ATOM      8  C   UNL     1      -2.345  -2.881  -0.028  0.00  0.00    +0.052 C 
ATOM      9  C   UNL     1       1.397  -1.841  -0.132  0.00  0.00    +0.141 C 
ATOM     10  C   UNL     1       1.984  -1.766  -1.508  0.00  0.00    -0.002 A 
ATOM     11  C   UNL     1       1.496  -1.229  -2.679  0.00  0.00    +0.007 A 
ATOM     12  C   UNL     1       2.308  -1.327  -3.804  0.00  0.00    +0.000 A 
ATOM     13  C   UNL     1       3.546  -1.935  -3.747  0.00  0.00    +0.002 A 
ATOM     14  C   UNL     1       4.043  -2.476  -2.572  0.00  0.00    +0.023 A 
ATOM     15  C   UNL     1       3.238  -2.385  -1.435  0.00  0.00    +0.038 A 
ATOM     16  N   UNL     1       3.480  -2.832  -0.149  0.00  0.00    -0.284 N 
ATOM     17  C   UNL     1       2.456  -2.556   0.684  0.00  0.00    +0.238 C 
ATOM     18  O   UNL     1       2.393  -2.829   1.864  0.00  0.00    -0.274 OA
ATOM     19  C   UNL     1       1.163  -0.469   0.426  0.00  0.00    +0.089 C 
ATOM     20  C   UNL     1      -0.093   0.041   0.523  0.00  0.00    +0.108 C 
ATOM     21  H   UNL     1       4.291  -3.290   0.122  0.00  0.00    +0.155 HD
ENDROOT
BRANCH   1  27
ATOM     22  C   UNL     1      -5.534   0.949   1.677  0.00  0.00    +0.044 C 
ATOM     23  C   UNL     1      -4.523   0.743   0.580  0.00  0.00    -0.049 A 
ATOM     24  C   UNL     1      -4.796   1.181  -0.703  0.00  0.00    +0.003 A 
ATOM     25  C   UNL     1      -3.871   0.995  -1.713  0.00  0.00    +0.002 A 
ATOM     26  C   UNL     1      -2.667   0.373  -1.443  0.00  0.00    +0.024 A 
ATOM     27  C   UNL     1      -2.392  -0.073  -0.157  0.00  0.00    +0.040 A 
ATOM     28  C   UNL     1      -3.323   0.117   0.855  0.00  0.00    +0.027 A 
ENDBRANCH   1  27
BRANCH  20  29
ATOM     29  N   UNL     1      -0.284   1.303   1.032  0.00  0.00    -0.345 N 
ATOM     30  H   UNL     1       0.467   1.797   1.397  0.00  0.00    +0.144 HD
ATOM     31  H   UNL     1      -1.168   1.702   1.021  0.00  0.00    +0.144 HD
ENDBRANCH  20  29
BRANCH  19  32
ATOM     32  C   UNL     1       2.279   0.316   0.861  0.00  0.00    +0.100 C 
ATOM     33  N   UNL     1       3.164   0.939   1.206  0.00  0.00    -0.191 NA
ENDBRANCH  19  32
TORSDOF 3
