REMARK  Name = ZINC08818663
REMARK  4 active torsions:
REMARK  status: ('A' for Active; 'I' for Inactive)
REMARK    1  A    between atoms: C_3  and  O_9
REMARK    2  A    between atoms: O_9  and  C_10
REMARK    3  A    between atoms: C_10  and  C_11
REMARK    4  A    between atoms: C_11  and  N_12
REMARK                            x       y       z     vdW  Elec       q    Type
REMARK                         _______ _______ _______ _____ _____    ______ ____
ROOT
ATOM      1  N   UNL     1      -1.227   4.842   1.469  0.00  0.00    -0.263 N 
ATOM      2  C   UNL     1      -2.409   4.338   2.015  0.00  0.00    +0.045 A 
ATOM      3  C   UNL     1      -3.335   4.921   2.877  0.00  0.00    +0.025 A 
ATOM      4  C   UNL     1      -4.446   4.213   3.285  0.00  0.00    +0.017 A 
ATOM      5  C   UNL     1      -4.650   2.918   2.843  0.00  0.00    +0.018 A 
ATOM      6  C   UNL     1      -3.734   2.330   1.987  0.00  0.00    +0.026 A 
ATOM      7  C   UNL     1      -2.624   3.034   1.578  0.00  0.00    +0.043 A 
ATOM      8  C   UNL     1      -1.464   2.705   0.680  0.00  0.00    +0.278 C 
ATOM      9  C   UNL     1      -0.613   3.946   0.672  0.00  0.00    +0.285 C 
ATOM     10  O   UNL     1       0.425   4.108   0.066  0.00  0.00    -0.269 OA
ATOM     11  O   UNL     1      -0.729   1.572   1.165  0.00  0.00    -0.335 OA
ATOM     12  C   UNL     1      -0.013   1.086   0.008  0.00  0.00    +0.192 C 
ATOM     13  C   UNL     1      -0.801   1.618  -1.206  0.00  0.00    +0.192 C 
ATOM     14  O   UNL     1      -1.902   2.362  -0.641  0.00  0.00    -0.335 OA
ATOM     15 BR   UNL     1      -6.177   1.954   3.405  0.00  0.00    -0.050 Br
ENDROOT
BRANCH   1  16
ATOM     16  C   UNL     1      -0.714   6.189   1.732  0.00  0.00    +0.155 C 
BRANCH  16  17
ATOM     17  C   UNL     1      -1.273   7.160   0.690  0.00  0.00    +0.248 C 
BRANCH  17  18
ATOM     18  O   UNL     1      -2.691   7.259   0.844  0.00  0.00    -0.489 OA
BRANCH  18  21
ATOM     19  C   UNL     1      -3.312   9.632  -1.844  0.00  0.00    +0.023 A 
ATOM     20  C   UNL     1      -2.643   8.790  -0.976  0.00  0.00    +0.048 A 
ATOM     21  C   UNL     1      -3.348   8.087  -0.011  0.00  0.00    +0.139 A 
ATOM     22  C   UNL     1      -4.726   8.227   0.079  0.00  0.00    +0.084 A 
ATOM     23  C   UNL     1      -5.391   9.074  -0.788  0.00  0.00    +0.043 A 
ATOM     24  C   UNL     1      -4.685   9.774  -1.750  0.00  0.00    +0.043 A 
ATOM     25 CL   UNL     1      -5.524  10.831  -2.842  0.00  0.00    -0.083 Cl
ATOM     26 CL   UNL     1      -5.613   7.343   1.281  0.00  0.00    -0.080 Cl
ENDBRANCH  18  21
ENDBRANCH  17  18
ENDBRANCH  16  17
ENDBRANCH   1  16
TORSDOF 4
