REMARK  Name = ZINC62550785
REMARK  6 active torsions:
REMARK  status: ('A' for Active; 'I' for Inactive)
REMARK    1  A    between atoms: C_1  and  C_2
REMARK    2  A    between atoms: C_5  and  S_9
REMARK    3  A    between atoms: C_6  and  C_8
REMARK    4  A    between atoms: S_9  and  N_12
REMARK    5  A    between atoms: C_15  and  O_24
REMARK    6  A    between atoms: C_21  and  C_23
REMARK                            x       y       z     vdW  Elec       q    Type
REMARK                         _______ _______ _______ _____ _____    ______ ____
ROOT
ATOM      1  N   UNL     1       1.630  -5.372   1.096  0.00  0.00    -0.203 N 
ATOM      2  C   UNL     1       2.887  -5.477   0.344  0.00  0.00    +0.134 C 
ATOM      3  C   UNL     1       3.469  -6.874   0.596  0.00  0.00    +0.057 C 
ATOM      4  C   UNL     1       3.799  -7.010   2.082  0.00  0.00    +0.148 C 
ATOM      5  C   UNL     1       2.612  -6.623   2.924  0.00  0.00    +0.004 A 
ATOM      6  C   UNL     1       1.593  -5.828   2.419  0.00  0.00    +0.057 A 
ATOM      7  C   UNL     1       0.515  -5.480   3.225  0.00  0.00    +0.025 A 
ATOM      8  C   UNL     1       0.458  -5.923   4.532  0.00  0.00    +0.005 A 
ATOM      9  C   UNL     1       1.474  -6.713   5.037  0.00  0.00    -0.050 A 
ATOM     10  C   UNL     1       2.545  -7.069   4.233  0.00  0.00    +0.011 A 
ATOM     11  C   UNL     1       1.412  -7.197   6.462  0.00  0.00    +0.044 C 
ENDROOT
BRANCH   1  12
ATOM     12  S   UNL     1       0.280  -4.718   0.394  0.00  0.00    +0.075 S 
ATOM     13  O   UNL     1       0.655  -4.329  -0.921  0.00  0.00    -0.150 OA
ATOM     14  O   UNL     1      -0.263  -3.801   1.334  0.00  0.00    -0.150 OA
BRANCH  12  19
ATOM     15  C   UNL     1      -3.754  -9.164  -0.209  0.00  0.00    +0.044 C 
ATOM     16  C   UNL     1      -2.746  -8.053  -0.058  0.00  0.00    -0.050 A 
ATOM     17  C   UNL     1      -3.010  -6.989   0.784  0.00  0.00    +0.005 A 
ATOM     18  C   UNL     1      -2.086  -5.971   0.923  0.00  0.00    +0.029 A 
ATOM     19  C   UNL     1      -0.897  -6.016   0.219  0.00  0.00    +0.112 A 
ATOM     20  C   UNL     1      -0.633  -7.080  -0.623  0.00  0.00    -0.024 A 
ATOM     21  C   UNL     1      -1.555  -8.101  -0.758  0.00  0.00    +0.008 A 
ATOM     22  C   UNL     1       0.663  -7.130  -1.391  0.00  0.00    +0.046 C 
ENDBRANCH  12  19
ENDBRANCH   1  12
BRANCH   4  23
ATOM     23  O   UNL     1       4.153  -8.365   2.366  0.00  0.00    -0.387 OA
ATOM     24  H   UNL     1       4.920  -8.683   1.871  0.00  0.00    +0.210 HD
ENDBRANCH   4  23
TORSDOF 3
