REMARK  Name = ZINC00138308
REMARK  3 active torsions:
REMARK  status: ('A' for Active; 'I' for Inactive)
REMARK    1  A    between atoms: C_4  and  N_18
REMARK    2  A    between atoms: C_6  and  C_7
REMARK    3  A    between atoms: N_9  and  C_10
REMARK                            x       y       z     vdW  Elec       q    Type
REMARK                         _______ _______ _______ _____ _____    ______ ____
ROOT
ATOM      1  C   UNL     1      -1.265  -0.763   0.011  0.00  0.00    +0.248 C 
ATOM      2  O   UNL     1      -2.328  -0.172   0.033  0.00  0.00    -0.270 OA
ATOM      3  N   UNL     1      -1.244  -2.111   0.002  0.00  0.00    -0.281 N 
ATOM      4  H   UNL     1      -0.401  -2.582  -0.083  0.00  0.00    +0.155 HD
ENDROOT
BRANCH   3   5
ATOM      5  C   UNL     1      -2.439  -2.830   0.115  0.00  0.00    +0.035 A 
ATOM      6  C   UNL     1      -2.462  -4.038   0.800  0.00  0.00    +0.026 A 
ATOM      7  C   UNL     1      -3.643  -4.744   0.916  0.00  0.00    +0.041 A 
ATOM      8  C   UNL     1      -4.803  -4.254   0.339  0.00  0.00    +0.142 A 
ATOM      9  C   UNL     1      -4.782  -3.053  -0.351  0.00  0.00    +0.078 A 
ATOM     10  C   UNL     1      -3.603  -2.340  -0.463  0.00  0.00    +0.046 A 
ATOM     11 CL   UNL     1      -6.237  -2.441  -1.073  0.00  0.00    -0.081 Cl
ATOM     12  F   UNL     1      -5.956  -4.949   0.448  0.00  0.00    -0.204 F 
ENDBRANCH   3   5
BRANCH   1  18
ATOM     13  C   UNL     1       1.224  -0.680  -0.029  0.00  0.00    +0.014 A 
ATOM     14  C   UNL     1       2.403   0.034  -0.044  0.00  0.00    +0.023 A 
ATOM     15  C   UNL     1       2.378   1.418  -0.035  0.00  0.00    +0.071 A 
ATOM     16  C   UNL     1       1.170   2.095  -0.010  0.00  0.00    +0.145 A 
ATOM     17  C   UNL     1      -0.017   1.392   0.005  0.00  0.00    +0.047 A 
ATOM     18  C   UNL     1       0.002  -0.004  -0.004  0.00  0.00    +0.039 A 
ATOM     19 CL   UNL     1       3.868   2.310  -0.054  0.00  0.00    -0.081 Cl
BRANCH  16  20
ATOM     20  N   UNL     1       1.151   3.575   0.000  0.00  0.00    +0.058 N 
ATOM     21  O   UNL     1       0.089   4.171   0.021  0.00  0.00    -0.126 OA
ATOM     22  O   UNL     1       2.199   4.197  -0.013  0.00  0.00    -0.126 OA
ENDBRANCH  16  20
ENDBRANCH   1  18
TORSDOF 3
