REMARK  Name = ZINC11812826
REMARK  7 active torsions:
REMARK  status: ('A' for Active; 'I' for Inactive)
REMARK    1  A    between atoms: C_1  and  C_2
REMARK    2  A    between atoms: C_5  and  C_8
REMARK    3  A    between atoms: C_8  and  C_13
REMARK    4  A    between atoms: C_15  and  C_18
REMARK    5  A    between atoms: C_18  and  N_62
REMARK    6  A    between atoms: C_22  and  C_25
REMARK    7  A    between atoms: C_25  and  C_27
REMARK                            x       y       z     vdW  Elec       q    Type
REMARK                         _______ _______ _______ _____ _____    ______ ____
ROOT
ATOM      1  C   UNL     1      -2.640   3.300   1.339  0.00  0.00    +0.182 A 
ATOM      2  N   UNL     1      -2.988   3.358   2.637  0.00  0.00    -0.197 NA
ATOM      3  C   UNL     1      -4.274   3.617   2.646  0.00  0.00    +0.211 A 
ATOM      4  O   UNL     1      -4.661   3.708   1.370  0.00  0.00    -0.340 OA
ATOM      5  N   UNL     1      -3.710   3.529   0.638  0.00  0.00    -0.060 NA
ENDROOT
BRANCH   1   6
ATOM      6  C   UNL     1      -1.260   3.028   0.798  0.00  0.00    +0.059 C 
ATOM      7  C   UNL     1      -0.793   1.616   1.216  0.00  0.00    +0.019 C 
ATOM      8  C   UNL     1      -0.011   1.097  -0.017  0.00  0.00    +0.001 C 
ATOM      9  C   UNL     1      -0.836   1.647  -1.207  0.00  0.00    +0.001 C 
ATOM     10  C   UNL     1      -1.284   3.048  -0.741  0.00  0.00    +0.019 C 
BRANCH   6  15
ATOM     11  C   UNL     1       2.457   6.989   2.768  0.00  0.00    +0.044 C 
ATOM     12  C   UNL     1       1.488   5.956   2.255  0.00  0.00    -0.050 A 
ATOM     13  C   UNL     1       1.951   4.872   1.533  0.00  0.00    +0.003 A 
ATOM     14  C   UNL     1       1.062   3.924   1.062  0.00  0.00    +0.005 A 
ATOM     15  C   UNL     1      -0.291   4.061   1.312  0.00  0.00    -0.034 A 
ATOM     16  C   UNL     1      -0.755   5.148   2.029  0.00  0.00    +0.005 A 
ATOM     17  C   UNL     1       0.135   6.093   2.505  0.00  0.00    +0.003 A 
ENDBRANCH   6  15
ENDBRANCH   1   6
BRANCH   3  18
ATOM     18  C   UNL     1      -5.148   3.781   3.863  0.00  0.00    +0.022 C 
BRANCH  18  24
ATOM     19  C   UNL     1      -3.829   5.617   4.730  0.00  0.00    -0.078 C 
ATOM     20  C   UNL     1      -3.840   7.122   5.009  0.00  0.00    -0.018 C 
ATOM     21  C   UNL     1      -4.892   7.429   6.078  0.00  0.00    +0.008 C 
ATOM     22  C   UNL     1      -6.258   6.934   5.597  0.00  0.00    +0.044 C 
ATOM     23  C   UNL     1      -6.177   5.434   5.301  0.00  0.00    -0.067 C 
ATOM     24  N   UNL     1      -5.165   5.208   4.247  0.00  0.00    +0.386 N 
ATOM     25  H   UNL     1      -5.409   5.772   3.425  0.00  0.00    -0.081 HD
BRANCH  22  26
ATOM     26  C   UNL     1      -7.289   7.180   6.669  0.00  0.00    +0.166 C 
ATOM     27  O   UNL     1      -7.502   6.333   7.511  0.00  0.00    -0.292 OA
BRANCH  26  28
ATOM     28  C   UNL     1      -8.037   8.447   6.693  0.00  0.00    +0.036 A 
ATOM     29  C   UNL     1      -8.999   8.688   7.685  0.00  0.00    +0.014 A 
ATOM     30  C   UNL     1      -9.674   9.895   7.663  0.00  0.00    +0.020 A 
ATOM     31  C   UNL     1      -9.382  10.817   6.673  0.00  0.00    +0.111 A 
ATOM     32  N   UNL     1      -8.472  10.564   5.752  0.00  0.00    -0.263 NA
ATOM     33  C   UNL     1      -7.798   9.433   5.732  0.00  0.00    +0.122 A 
ENDBRANCH  26  28
ENDBRANCH  22  26
ENDBRANCH  18  24
ENDBRANCH   3  18
TORSDOF 6
