REMARK  Name = ZINC14187202
REMARK  5 active torsions:
REMARK  status: ('A' for Active; 'I' for Inactive)
REMARK    1  A    between atoms: C_1  and  C_2
REMARK    2  A    between atoms: C_2  and  C_24
REMARK    3  A    between atoms: N_5  and  C_9
REMARK    4  A    between atoms: C_9  and  N_51
REMARK    5  A    between atoms: C_12  and  C_15
REMARK                            x       y       z     vdW  Elec       q    Type
REMARK                         _______ _______ _______ _____ _____    ______ ____
ROOT
ATOM      1  C   UNL     1      -0.013   1.086   0.008  0.00  0.00    -0.076 C 
ATOM      2  C   UNL     1      -0.729   1.579   1.267  0.00  0.00    -0.006 C 
ATOM      3  C   UNL     1      -0.764   3.110   1.262  0.00  0.00    +0.072 C 
ATOM      4  C   UNL     1      -1.466   3.591  -0.011  0.00  0.00    -0.006 C 
ATOM      5  C   UNL     1      -0.729   3.040  -1.234  0.00  0.00    -0.076 C 
ATOM      6  N   UNL     1      -0.751   1.562  -1.181  0.00  0.00    +0.391 N 
ATOM      7  H   UNL     1      -1.726   1.246  -1.117  0.00  0.00    -0.079 HD
ENDROOT
BRANCH   3   8
ATOM      8  C   UNL     1      -1.520   3.600   2.470  0.00  0.00    +0.200 A 
ATOM      9  N   UNL     1      -2.760   3.318   2.735  0.00  0.00    -0.213 NA
ATOM     10  C   UNL     1      -3.109   3.925   3.901  0.00  0.00    +0.110 A 
ATOM     11  C   UNL     1      -4.284   3.971   4.653  0.00  0.00    +0.031 A 
ATOM     12  C   UNL     1      -4.320   4.702   5.820  0.00  0.00    +0.002 A 
ATOM     13  C   UNL     1      -3.197   5.392   6.251  0.00  0.00    +0.004 A 
ATOM     14  C   UNL     1      -2.029   5.356   5.518  0.00  0.00    +0.048 A 
ATOM     15  C   UNL     1      -1.975   4.625   4.341  0.00  0.00    +0.155 A 
ATOM     16  O   UNL     1      -1.011   4.397   3.422  0.00  0.00    -0.439 OA
ENDBRANCH   3   8
BRANCH   6  17
ATOM     17  C   UNL     1      -0.145   1.005  -2.408  0.00  0.00    +0.043 C 
BRANCH  17  22
ATOM     18  C   UNL     1      -2.672  -0.554  -6.051  0.00  0.00    +0.042 C 
ATOM     19  C   UNL     1      -2.860   0.399  -4.869  0.00  0.00    +0.112 C 
ATOM     20  C   UNL     1      -2.002  -0.032  -3.696  0.00  0.00    +0.245 C 
ATOM     21  O   UNL     1      -2.062  -1.080  -3.091  0.00  0.00    -0.273 OA
ATOM     22  N   UNL     1      -1.159   0.994  -3.466  0.00  0.00    -0.241 N 
ATOM     23  C   UNL     1      -1.358   2.000  -4.325  0.00  0.00    +0.308 C 
ATOM     24  O   UNL     1      -0.716   3.032  -4.319  0.00  0.00    -0.252 OA
ATOM     25  N   UNL     1      -2.348   1.740  -5.199  0.00  0.00    -0.285 N 
ATOM     26  H   UNL     1      -2.663   2.323  -5.907  0.00  0.00    +0.151 HD
BRANCH  19  27
ATOM     27  C   UNL     1      -4.334   0.470  -4.466  0.00  0.00    +0.021 C 
ATOM     28  C   UNL     1      -5.280  -0.576  -5.060  0.00  0.00    +0.006 C 
ATOM     29  C   UNL     1      -5.343   0.875  -5.543  0.00  0.00    +0.006 C 
ENDBRANCH  19  27
ENDBRANCH  17  22
ENDBRANCH   6  17
TORSDOF 4
