REMARK  Name = ZINC56092373
REMARK  8 active torsions:
REMARK  status: ('A' for Active; 'I' for Inactive)
REMARK    1  A    between atoms: C_1  and  C_2
REMARK    2  A    between atoms: C_2  and  C_3
REMARK    3  A    between atoms: C_2  and  C_4
REMARK    4  A    between atoms: C_2  and  N_19
REMARK    5  A    between atoms: N_6  and  C_7
REMARK    6  A    between atoms: C_10  and  S_13
REMARK    7  A    between atoms: S_13  and  C_14
REMARK    8  A    between atoms: N_22  and  C_23
REMARK                            x       y       z     vdW  Elec       q    Type
REMARK                         _______ _______ _______ _____ _____    ______ ____
ROOT
ATOM      1  C   UNL     1      -1.411  -0.527   0.013  0.00  0.00    +0.240 C 
ATOM      2  O   UNL     1      -1.936  -0.836   1.062  0.00  0.00    -0.273 OA
ATOM      3  N   UNL     1      -2.090  -0.657  -1.144  0.00  0.00    -0.284 N 
ATOM      4  H   UNL     1      -1.697  -0.348  -1.975  0.00  0.00    +0.155 HD
ENDROOT
BRANCH   3   5
ATOM      5  C   UNL     1      -3.365  -1.239  -1.147  0.00  0.00    +0.034 A 
ATOM      6  C   UNL     1      -3.765  -2.029  -2.217  0.00  0.00    +0.024 A 
ATOM      7  C   UNL     1      -5.021  -2.602  -2.220  0.00  0.00    +0.017 A 
ATOM      8  C   UNL     1      -5.884  -2.390  -1.152  0.00  0.00    +0.015 A 
ATOM      9  C   UNL     1      -5.483  -1.600  -0.081  0.00  0.00    +0.017 A 
ATOM     10  C   UNL     1      -4.225  -1.032  -0.076  0.00  0.00    +0.024 A 
BRANCH   8  11
ATOM     11  S   UNL     1      -7.487  -3.122  -1.155  0.00  0.00    -0.061 S 
BRANCH  11  12
ATOM     12  C   UNL     1      -7.276  -4.615  -0.243  0.00  0.00    +0.163 A 
ATOM     13  N   UNL     1      -6.176  -5.159   0.262  0.00  0.00    -0.135 NA
ATOM     14  N   UNL     1      -6.204  -6.248   0.897  0.00  0.00    -0.149 NA
ATOM     15  C   UNL     1      -7.324  -6.913   1.100  0.00  0.00    +0.182 A 
ATOM     16  S   UNL     1      -8.485  -5.829   0.275  0.00  0.00    -0.047 S 
ENDBRANCH  11  12
ENDBRANCH   8  11
ENDBRANCH   3   5
BRANCH   1  18
ATOM     17  C   UNL     1      -0.029   1.532   0.018  0.00  0.00    +0.041 C 
ATOM     18  C   UNL     1      -0.000   0.002   0.003  0.00  0.00    +0.107 C 
ATOM     19  C   UNL     1       0.744  -0.506   1.239  0.00  0.00    +0.041 C 
BRANCH  18  20
ATOM     20  N   UNL     1       0.687  -0.461  -1.205  0.00  0.00    -0.286 N 
ATOM     21  C   UNL     1       1.968  -0.109  -1.429  0.00  0.00    +0.300 C 
ATOM     22  O   UNL     1       2.554   0.593  -0.628  0.00  0.00    -0.253 OA
ATOM     23  N   UNL     1       2.600  -0.536  -2.541  0.00  0.00    -0.302 N 
ATOM     24  C   UNL     1       3.993  -0.153  -2.784  0.00  0.00    +0.129 C 
ATOM     25  H   UNL     1       0.219  -1.022  -1.844  0.00  0.00    +0.151 HD
ATOM     26  H   UNL     1       2.132  -1.096  -3.180  0.00  0.00    +0.150 HD
ENDBRANCH  18  20
ENDBRANCH   1  18
TORSDOF 5
