REMARK  Name = ZINC62320980
REMARK  6 active torsions:
REMARK  status: ('A' for Active; 'I' for Inactive)
REMARK    1  A    between atoms: C_1  and  C_2
REMARK    2  A    between atoms: C_2  and  N_3
REMARK    3  A    between atoms: C_5  and  C_15
REMARK    4  A    between atoms: C_13  and  N_14
REMARK    5  A    between atoms: C_19  and  C_26
REMARK    6  A    between atoms: C_22  and  C_25
REMARK                            x       y       z     vdW  Elec       q    Type
REMARK                         _______ _______ _______ _____ _____    ______ ____
ROOT
ATOM      1  N   UNL     1       0.780  -0.813  -1.029  0.00  0.00    -0.346 N 
ATOM      2  C   UNL     1       0.081  -0.965  -2.162  0.00  0.00    +0.103 A 
ATOM      3  C   UNL     1       0.687  -1.245  -3.367  0.00  0.00    +0.100 A 
ATOM      4  C   UNL     1       2.153  -1.383  -3.412  0.00  0.00    +0.203 A 
ATOM      5  O   UNL     1       2.736  -1.630  -4.453  0.00  0.00    -0.286 OA
ATOM      6  C   UNL     1       2.883  -1.209  -2.147  0.00  0.00    +0.066 A 
ATOM      7  C   UNL     1       2.154  -0.919  -0.980  0.00  0.00    +0.055 A 
ATOM      8  C   UNL     1       2.833  -0.748   0.221  0.00  0.00    +0.026 A 
ATOM      9  C   UNL     1       4.208  -0.855   0.262  0.00  0.00    +0.004 A 
ATOM     10  C   UNL     1       4.933  -1.134  -0.884  0.00  0.00    +0.023 A 
ATOM     11  C   UNL     1       4.279  -1.322  -2.094  0.00  0.00    +0.037 A 
ENDROOT
BRANCH   3  12
ATOM     12  C   UNL     1      -0.116  -1.405  -4.589  0.00  0.00    +0.252 C 
ATOM     13  O   UNL     1      -0.311  -2.515  -5.048  0.00  0.00    -0.270 OA
ATOM     14  N   UNL     1      -0.636  -0.323  -5.201  0.00  0.00    -0.297 N 
ATOM     15  C   UNL     1      -0.309   1.031  -4.731  0.00  0.00    +0.111 C 
ATOM     16  C   UNL     1       0.217   1.849  -5.915  0.00  0.00    +0.004 C 
ATOM     17  C   UNL     1      -0.805   1.808  -7.053  0.00  0.00    +0.009 C 
ATOM     18  C   UNL     1      -1.000   0.362  -7.514  0.00  0.00    +0.004 C 
ATOM     19  C   UNL     1      -1.535  -0.473  -6.353  0.00  0.00    +0.111 C 
ATOM     20  C   UNL     1      -1.997   0.326  -8.674  0.00  0.00    +0.009 C 
ATOM     21  C   UNL     1       1.543   1.256  -6.397  0.00  0.00    +0.009 C 
ENDBRANCH   3  12
BRANCH  11  22
ATOM     22  N   UNL     1       5.005  -1.603  -3.245  0.00  0.00    -0.357 N 
ATOM     23  H   UNL     1       4.555  -1.644  -4.104  0.00  0.00    +0.142 HD
ATOM     24  H   UNL     1       5.960  -1.759  -3.191  0.00  0.00    +0.142 HD
ENDBRANCH  11  22
BRANCH   1  26
ATOM     25  C   UNL     1      -0.079   1.000   0.371  0.00  0.00    +0.027 C 
ATOM     26  C   UNL     1       0.055  -0.516   0.209  0.00  0.00    +0.118 C 
ENDBRANCH   1  26
TORSDOF 3
