REMARK  Name = ZINC10594471
REMARK  4 active torsions:
REMARK  status: ('A' for Active; 'I' for Inactive)
REMARK    1  A    between atoms: C_8  and  C_12
REMARK    2  A    between atoms: N_14  and  C_15
REMARK    3  A    between atoms: C_15  and  C_16
REMARK    4  A    between atoms: N_20  and  C_21
REMARK                            x       y       z     vdW  Elec       q    Type
REMARK                         _______ _______ _______ _____ _____    ______ ____
ROOT
ATOM      1  C   UNL     1       4.614   4.023  -0.051  0.00  0.00    +0.251 C 
ATOM      2  O   UNL     1       5.633   3.359  -0.064  0.00  0.00    -0.270 OA
ATOM      3  N   UNL     1       4.686   5.368  -0.038  0.00  0.00    -0.304 N 
ATOM      4  H   UNL     1       3.873   5.897  -0.029  0.00  0.00    +0.149 HD
ENDROOT
BRANCH   1  12
ATOM      5  C   UNL     1      -1.504   3.472  -0.025  0.00  0.00    +0.001 A 
ATOM      6  C   UNL     1      -1.536   2.084  -0.044  0.00  0.00    +0.004 A 
ATOM      7  C   UNL     1      -0.367   1.355  -0.052  0.00  0.00    +0.047 A 
ATOM      8  C   UNL     1       0.861   2.009  -0.052  0.00  0.00    +0.139 A 
ATOM      9  C   UNL     1       0.891   3.415  -0.037  0.00  0.00    +0.018 A 
ATOM     10  C   UNL     1      -0.312   4.137  -0.024  0.00  0.00    +0.011 A 
ATOM     11  C   UNL     1       2.133   4.098  -0.037  0.00  0.00    +0.031 A 
ATOM     12  C   UNL     1       3.301   3.355  -0.051  0.00  0.00    +0.122 A 
ATOM     13  C   UNL     1       3.207   1.891  -0.066  0.00  0.00    +0.350 A 
ATOM     14  O   UNL     1       4.221   1.218  -0.078  0.00  0.00    -0.244 OA
ATOM     15  O   UNL     1       2.005   1.292  -0.065  0.00  0.00    -0.422 OA
ENDBRANCH   1  12
BRANCH   3  16
ATOM     16  C   UNL     1       5.992   6.032  -0.039  0.00  0.00    +0.182 C 
BRANCH  16  17
ATOM     17  C   UNL     1       5.796   7.526  -0.023  0.00  0.00    +0.174 A 
ATOM     18  N   UNL     1       5.601   8.271   1.034  0.00  0.00    -0.111 NA
ATOM     19  N   UNL     1       5.472   9.505   0.701  0.00  0.00    -0.023 NA
ATOM     20  N   UNL     1       5.574   9.633  -0.578  0.00  0.00    -0.039 NA
ATOM     21  N   UNL     1       5.795   8.345  -1.097  0.00  0.00    -0.196 N 
BRANCH  21  22
ATOM     22  C   UNL     1       5.973   7.987  -2.442  0.00  0.00    +0.069 A 
ATOM     23  C   UNL     1       6.765   8.770  -3.270  0.00  0.00    +0.031 A 
ATOM     24  C   UNL     1       6.944   8.413  -4.592  0.00  0.00    +0.040 A 
ATOM     25  C   UNL     1       6.325   7.281  -5.094  0.00  0.00    +0.124 A 
ATOM     26  C   UNL     1       5.530   6.501  -4.271  0.00  0.00    +0.040 A 
ATOM     27  C   UNL     1       5.353   6.852  -2.947  0.00  0.00    +0.031 A 
ATOM     28  F   UNL     1       6.496   6.936  -6.389  0.00  0.00    -0.205 F 
ENDBRANCH  21  22
ENDBRANCH  16  17
ENDBRANCH   3  16
TORSDOF 4
