REMARK  Name = ZINC16606679
REMARK  6 active torsions:
REMARK  status: ('A' for Active; 'I' for Inactive)
REMARK    1  A    between atoms: C_1  and  C_2
REMARK    2  A    between atoms: C_3  and  C_26
REMARK    3  A    between atoms: C_4  and  C_17
REMARK    4  A    between atoms: C_20  and  N_23
REMARK    5  A    between atoms: N_28  and  C_29
REMARK    6  A    between atoms: C_29  and  C_30
REMARK                            x       y       z     vdW  Elec       q    Type
REMARK                         _______ _______ _______ _____ _____    ______ ____
ROOT
ATOM      1  C   UNL     1      -5.105   2.355   2.530  0.00  0.00    +0.061 C 
ATOM      2  C   UNL     1      -4.411   2.689   1.235  0.00  0.00    +0.029 C 
ATOM      3  C   UNL     1      -3.328   3.476   1.274  0.00  0.00    +0.131 C 
ATOM      4  C   UNL     1      -2.554   3.870   0.045  0.00  0.00    +0.072 C 
ATOM      5  C   UNL     1      -3.353   3.502  -1.180  0.00  0.00    +0.034 C 
ATOM      6  C   UNL     1      -4.461   2.695  -1.123  0.00  0.00    +0.079 C 
ATOM      7  N   UNL     1      -4.916   2.174   0.069  0.00  0.00    -0.255 NA
ATOM      8  C   UNL     1      -5.001   2.529  -2.476  0.00  0.00    +0.012 A 
ATOM      9  C   UNL     1      -6.093   1.824  -2.956  0.00  0.00    +0.011 A 
ATOM     10  C   UNL     1      -6.330   1.882  -4.332  0.00  0.00    +0.001 A 
ATOM     11  C   UNL     1      -5.522   2.605  -5.179  0.00  0.00    +0.001 A 
ATOM     12  C   UNL     1      -4.418   3.323  -4.710  0.00  0.00    +0.012 A 
ATOM     13  C   UNL     1      -4.172   3.274  -3.352  0.00  0.00    +0.031 A 
ATOM     14  C   UNL     1      -3.119   3.894  -2.517  0.00  0.00    +0.192 C 
ATOM     15  O   UNL     1      -2.218   4.609  -2.909  0.00  0.00    -0.287 OA
ENDROOT
BRANCH   4  16
ATOM     16  C   UNL     1      -1.238   3.135   0.029  0.00  0.00    -0.039 A 
ATOM     17  C   UNL     1      -1.219   1.753   0.016  0.00  0.00    +0.006 A 
ATOM     18  C   UNL     1      -0.012   1.079   0.006  0.00  0.00    +0.033 A 
ATOM     19  C   UNL     1       1.175   1.787  -0.002  0.00  0.00    +0.126 A 
ATOM     20  C   UNL     1       1.156   3.169   0.006  0.00  0.00    +0.033 A 
ATOM     21  C   UNL     1      -0.051   3.843   0.021  0.00  0.00    +0.006 A 
BRANCH  19  22
ATOM     22  N   UNL     1       2.467   1.065  -0.018  0.00  0.00    +0.056 N 
ATOM     23  O   UNL     1       2.485  -0.152  -0.025  0.00  0.00    -0.126 OA
ATOM     24  O   UNL     1       3.514   1.690  -0.025  0.00  0.00    -0.126 OA
ENDBRANCH  19  22
ENDBRANCH   4  16
BRANCH   3  25
ATOM     25  C   UNL     1      -2.893   3.964   2.531  0.00  0.00    +0.223 C 
ATOM     26  O   UNL     1      -3.500   3.665   3.543  0.00  0.00    -0.275 OA
ATOM     27  N   UNL     1      -1.807   4.758   2.606  0.00  0.00    -0.311 N 
ATOM     28  H   UNL     1      -1.323   4.996   1.800  0.00  0.00    +0.149 HD
BRANCH  27  29
ATOM     29  C   UNL     1      -1.357   5.263   3.906  0.00  0.00    +0.139 C 
BRANCH  29  30
ATOM     30  C   UNL     1      -0.133   6.121   3.715  0.00  0.00    -0.030 A 
ATOM     31  C   UNL     1       1.125   5.551   3.767  0.00  0.00    +0.005 A 
ATOM     32  C   UNL     1       2.248   6.337   3.587  0.00  0.00    +0.000 A 
ATOM     33  C   UNL     1       2.113   7.695   3.366  0.00  0.00    +0.000 A 
ATOM     34  C   UNL     1       0.855   8.266   3.320  0.00  0.00    +0.000 A 
ATOM     35  C   UNL     1      -0.268   7.479   3.495  0.00  0.00    +0.005 A 
ENDBRANCH  29  30
ENDBRANCH  27  29
ENDBRANCH   3  25
TORSDOF 5
