REMARK  Name = ZINC03323776
REMARK  8 active torsions:
REMARK  status: ('A' for Active; 'I' for Inactive)
REMARK    1  A    between atoms: C_1  and  C_2
REMARK    2  A    between atoms: C_6  and  N_8
REMARK    3  A    between atoms: C_9  and  C_11
REMARK    4  A    between atoms: C_11  and  S_12
REMARK    5  A    between atoms: S_12  and  C_13
REMARK    6  A    between atoms: N_17  and  C_18
REMARK    7  A    between atoms: C_21  and  O_24
REMARK    8  A    between atoms: O_24  and  C_25
REMARK                            x       y       z     vdW  Elec       q    Type
REMARK                         _______ _______ _______ _____ _____    ______ ____
ROOT
ATOM      1  C   UNL     1       0.061  -2.626   4.893  0.00  0.00    +0.173 C 
ENDROOT
BRANCH   1   3
ATOM      2  N   UNL     1       0.049  -2.637   2.419  0.00  0.00    -0.269 N 
ATOM      3  C   UNL     1       0.045  -1.921   3.561  0.00  0.00    +0.229 C 
ATOM      4  O   UNL     1       0.028  -0.709   3.517  0.00  0.00    -0.275 OA
ATOM      5  H   UNL     1       0.063  -3.606   2.455  0.00  0.00    +0.156 HD
BRANCH   2  11
ATOM      6  C   UNL     1      -0.018   1.503   0.010  0.00  0.00    +0.067 C 
ATOM      7  C   UNL     1       0.002  -0.004   0.002  0.00  0.00    +0.059 A 
ATOM      8  C   UNL     1       0.005  -0.680  -1.204  0.00  0.00    +0.063 A 
ATOM      9  C   UNL     1       0.024  -2.068  -1.205  0.00  0.00    +0.045 A 
ATOM     10  C   UNL     1       0.039  -2.729   0.012  0.00  0.00    +0.082 A 
ATOM     11  C   UNL     1       0.035  -1.984   1.187  0.00  0.00    +0.144 A 
ATOM     12  N   UNL     1       0.022  -0.661   1.146  0.00  0.00    -0.234 NA
ATOM     13 CL   UNL     1       0.062  -4.464   0.071  0.00  0.00    -0.080 Cl
ATOM     14 CL   UNL     1      -0.014   0.198  -2.701  0.00  0.00    -0.082 Cl
ENDBRANCH   2  11
ENDBRANCH   1   3
BRANCH   1  15
ATOM     15  S   UNL     1       0.051  -1.398   6.228  0.00  0.00    -0.076 S 
BRANCH  15  16
ATOM     16  C   UNL     1       0.071  -2.368   7.699  0.00  0.00    +0.196 A 
ATOM     17  N   UNL     1       0.095  -3.679   7.770  0.00  0.00    -0.122 NA
ATOM     18  N   UNL     1       0.103  -4.050   9.001  0.00  0.00    -0.137 NA
ATOM     19  C   UNL     1       0.086  -3.008   9.784  0.00  0.00    +0.230 A 
ATOM     20  N   UNL     1       0.070  -1.897   8.983  0.00  0.00    -0.277 N 
BRANCH  20  21
ATOM     21  C   UNL     1       0.054  -0.555   9.395  0.00  0.00    +0.050 A 
ATOM     22  C   UNL     1       0.957   0.349   8.852  0.00  0.00    +0.030 A 
ATOM     23  C   UNL     1       0.940   1.669   9.257  0.00  0.00    +0.047 A 
ATOM     24  C   UNL     1       0.022   2.091  10.208  0.00  0.00    +0.120 A 
ATOM     25  C   UNL     1      -0.879   1.188  10.751  0.00  0.00    +0.047 A 
ATOM     26  C   UNL     1      -0.868  -0.131  10.342  0.00  0.00    +0.030 A 
BRANCH  24  27
ATOM     27  O   UNL     1       0.007   3.391  10.607  0.00  0.00    -0.495 OA
ATOM     28  C   UNL     1      -0.964   3.756  11.589  0.00  0.00    +0.277 C 
ENDBRANCH  24  27
ENDBRANCH  20  21
ENDBRANCH  15  16
ENDBRANCH   1  15
TORSDOF 6
