REMARK  Name = ZINC49370204
REMARK  8 active torsions:
REMARK  status: ('A' for Active; 'I' for Inactive)
REMARK    1  A    between atoms: C_1  and  C_2
REMARK    2  A    between atoms: C_2  and  C_3
REMARK    3  A    between atoms: C_2  and  N_4
REMARK    4  A    between atoms: C_10  and  C_13
REMARK    5  A    between atoms: N_15  and  C_16
REMARK    6  A    between atoms: N_15  and  C_17
REMARK    7  A    between atoms: C_17  and  C_18
REMARK    8  A    between atoms: C_17  and  C_19
REMARK                            x       y       z     vdW  Elec       q    Type
REMARK                         _______ _______ _______ _____ _____    ______ ____
ROOT
ATOM      1  N   UNL     1      -1.372  -0.511   0.013  0.00  0.00    -0.297 N 
ATOM      2  C   UNL     1      -1.643  -1.734  -0.485  0.00  0.00    +0.302 C 
ATOM      3  O   UNL     1      -0.765  -2.379  -1.025  0.00  0.00    -0.253 OA
ATOM      4  N   UNL     1      -2.888  -2.242  -0.385  0.00  0.00    -0.286 N 
ATOM      5  C   UNL     1      -3.985  -1.431   0.160  0.00  0.00    +0.110 C 
ATOM      6  C   UNL     1      -4.652  -2.206   1.301  0.00  0.00    +0.032 C 
ATOM      7  C   UNL     1      -5.080  -3.585   0.794  0.00  0.00    +0.078 C 
ATOM      8  C   UNL     1      -3.848  -4.367   0.335  0.00  0.00    +0.032 C 
ATOM      9  C   UNL     1      -3.173  -3.615  -0.823  0.00  0.00    +0.110 C 
ATOM     10  H   UNL     1      -2.087   0.033   0.378  0.00  0.00    +0.150 HD
ENDROOT
BRANCH   7  11
ATOM     11  C   UNL     1      -5.767  -4.337   1.906  0.00  0.00    +0.219 C 
ATOM     12  O   UNL     1      -5.900  -3.821   2.995  0.00  0.00    -0.275 OA
ATOM     13  N   UNL     1      -6.232  -5.583   1.689  0.00  0.00    -0.302 N 
ATOM     14  C   UNL     1      -6.071  -6.206   0.373  0.00  0.00    +0.132 C 
BRANCH  13  15
ATOM     15  C   UNL     1      -6.899  -6.314   2.769  0.00  0.00    +0.070 C 
ATOM     16  C   UNL     1      -8.329  -6.657   2.345  0.00  0.00    +0.028 C 
ATOM     17  C   UNL     1      -6.131  -7.603   3.063  0.00  0.00    +0.028 C 
ENDBRANCH  13  15
ENDBRANCH   7  11
BRANCH   1  19
ATOM     18  C   UNL     1      -0.017   1.525   0.013  0.00  0.00    +0.027 C 
ATOM     19  C   UNL     1       0.003  -0.005   0.004  0.00  0.00    +0.068 C 
ATOM     20  C   UNL     1       0.741  -0.513   1.244  0.00  0.00    +0.027 C 
ENDBRANCH   1  19
TORSDOF 3
