REMARK  Name = ZINC24610183
REMARK  4 active torsions:
REMARK  status: ('A' for Active; 'I' for Inactive)
REMARK    1  A    between atoms: C_12  and  C_14
REMARK    2  A    between atoms: N_17  and  S_20
REMARK    3  A    between atoms: S_20  and  C_23
REMARK    4  A    between atoms: C_23  and  C_24
REMARK                            x       y       z     vdW  Elec       q    Type
REMARK                         _______ _______ _______ _____ _____    ______ ____
ROOT
ATOM      1  C   UNL     1      -3.319   2.868   1.863  0.00  0.00    +0.078 C 
ATOM      2  C   UNL     1      -4.103   2.654   0.566  0.00  0.00    +0.030 C 
ATOM      3  C   UNL     1      -5.338   1.795   0.857  0.00  0.00    +0.110 C 
ATOM      4  N   UNL     1      -6.112   2.427   1.933  0.00  0.00    -0.181 NA
ATOM      5  C   UNL     1      -5.430   2.758   3.192  0.00  0.00    +0.110 C 
ATOM      6  C   UNL     1      -4.195   3.607   2.876  0.00  0.00    +0.030 C 
ENDROOT
BRANCH   1  18
ATOM      7  C   UNL     1       2.296   5.383  -0.173  0.00  0.00    +0.002 A 
ATOM      8  C   UNL     1       1.144   6.056   0.190  0.00  0.00    +0.002 A 
ATOM      9  C   UNL     1      -0.009   5.352   0.487  0.00  0.00    +0.025 A 
ATOM     10  C   UNL     1      -0.006   3.970   0.420  0.00  0.00    +0.058 A 
ATOM     11  C   UNL     1       1.157   3.288   0.058  0.00  0.00    +0.055 A 
ATOM     12  C   UNL     1       2.307   4.002  -0.240  0.00  0.00    +0.025 A 
ATOM     13  N   UNL     1       1.147   1.890   0.001  0.00  0.00    -0.283 N 
ATOM     14  C   UNL     1      -0.014   1.209   0.009  0.00  0.00    +0.235 C 
ATOM     15  O   UNL     1       0.002  -0.004   0.002  0.00  0.00    -0.274 OA
ATOM     16  C   UNL     1      -1.335   1.935   0.019  0.00  0.00    +0.209 C 
ATOM     17  N   UNL     1      -1.163   3.228   0.705  0.00  0.00    -0.261 N 
ATOM     18  C   UNL     1      -2.086   3.684   1.575  0.00  0.00    +0.223 C 
ATOM     19  O   UNL     1      -1.924   4.753   2.125  0.00  0.00    -0.275 OA
ATOM     20  H   UNL     1       2.095   1.335  -0.050  0.00  0.00    +0.155 HD
ENDBRANCH   1  18
BRANCH   4  21
ATOM     21  S   UNL     1      -7.721   2.759   1.732  0.00  0.00    +0.036 S 
ATOM     22  O   UNL     1      -8.168   1.817   0.767  0.00  0.00    -0.158 OA
ATOM     23  O   UNL     1      -8.259   2.758   3.048  0.00  0.00    -0.158 OA
BRANCH  21  24
ATOM     24  C   UNL     1      -7.769   4.435   1.040  0.00  0.00    +0.220 C 
BRANCH  24  25
ATOM     25  C   UNL     1      -9.201   4.845   0.813  0.00  0.00    -0.025 A 
ATOM     26  C   UNL     1      -9.812   4.582  -0.399  0.00  0.00    +0.008 A 
ATOM     27  C   UNL     1     -11.127   4.953  -0.605  0.00  0.00    +0.038 A 
ATOM     28  C   UNL     1     -11.829   5.598   0.398  0.00  0.00    +0.123 A 
ATOM     29  C   UNL     1     -11.215   5.866   1.610  0.00  0.00    +0.038 A 
ATOM     30  C   UNL     1      -9.902   5.489   1.816  0.00  0.00    +0.008 A 
ATOM     31  F   UNL     1     -13.114   5.966   0.196  0.00  0.00    -0.205 F 
ENDBRANCH  24  25
ENDBRANCH  21  24
ENDBRANCH   4  21
TORSDOF 4
