REMARK  Name = ZINC09303393
REMARK  6 active torsions:
REMARK  status: ('A' for Active; 'I' for Inactive)
REMARK    1  A    between atoms: C_1  and  C_2
REMARK    2  A    between atoms: C_6  and  O_25
REMARK    3  A    between atoms: C_12  and  C_13
REMARK    4  A    between atoms: C_13  and  C_14
REMARK    5  A    between atoms: N_16  and  C_17
REMARK    6  A    between atoms: O_25  and  C_26
REMARK                            x       y       z     vdW  Elec       q    Type
REMARK                         _______ _______ _______ _____ _____    ______ ____
ROOT
ATOM      1  C   UNL     1       3.779   2.046  -0.024  0.00  0.00    +0.045 C 
ATOM      2  C   UNL     1       2.458   1.322  -0.014  0.00  0.00    -0.029 A 
ATOM      3  C   UNL     1       1.195   2.063   0.002  0.00  0.00    +0.022 A 
ATOM      4  C   UNL     1       1.181   3.463   0.010  0.00  0.00    +0.035 A 
ATOM      5  C   UNL     1      -0.011   4.129   0.025  0.00  0.00    +0.083 A 
ATOM      6  C   UNL     1      -1.214   3.424   0.033  0.00  0.00    +0.142 A 
ATOM      7  C   UNL     1      -1.218   2.039   0.030  0.00  0.00    +0.094 A 
ATOM      8  C   UNL     1      -0.016   1.346   0.009  0.00  0.00    +0.143 A 
ATOM      9  O   UNL     1       0.002  -0.004   0.002  0.00  0.00    -0.422 OA
ATOM     10  C   UNL     1       1.156  -0.689  -0.013  0.00  0.00    +0.341 A 
ATOM     11  O   UNL     1       1.124  -1.907  -0.019  0.00  0.00    -0.245 OA
ATOM     12  C   UNL     1       2.405  -0.035  -0.021  0.00  0.00    +0.049 A 
ATOM     13 CL   UNL     1      -0.029   5.865   0.035  0.00  0.00    -0.080 Cl
ENDROOT
BRANCH   6  14
ATOM     14  O   UNL     1      -2.391   4.100   0.048  0.00  0.00    -0.494 OA
ATOM     15  C   UNL     1      -3.588   3.319   0.055  0.00  0.00    +0.277 C 
ENDBRANCH   6  14
BRANCH  12  16
ATOM     16  C   UNL     1       3.679  -0.840  -0.037  0.00  0.00    +0.138 C 
BRANCH  16  17
ATOM     17  C   UNL     1       4.091  -1.101  -1.463  0.00  0.00    +0.218 C 
ATOM     18  O   UNL     1       3.416  -0.676  -2.377  0.00  0.00    -0.275 OA
ATOM     19  N   UNL     1       5.208  -1.808  -1.723  0.00  0.00    -0.311 N 
ATOM     20  H   UNL     1       5.748  -2.148  -0.993  0.00  0.00    +0.149 HD
BRANCH  19  21
ATOM     21  C   UNL     1       5.608  -2.062  -3.110  0.00  0.00    +0.095 C 
ATOM     22  C   UNL     1       4.904  -3.326  -3.630  0.00  0.00    +0.046 C 
ATOM     23  C   UNL     1       5.552  -3.782  -4.960  0.00  0.00    +0.168 C 
ATOM     24  S   UNL     1       7.278  -3.167  -4.798  0.00  0.00    -0.029 S 
ATOM     25  O   UNL     1       7.524  -2.208  -5.817  0.00  0.00    -0.174 OA
ATOM     26  O   UNL     1       8.153  -4.278  -4.657  0.00  0.00    -0.174 OA
ATOM     27  C   UNL     1       7.144  -2.300  -3.178  0.00  0.00    +0.188 C 
ENDBRANCH  19  21
ENDBRANCH  16  17
ENDBRANCH  12  16
TORSDOF 4
