REMARK  Name = ZINC13315963
REMARK  6 active torsions:
REMARK  status: ('A' for Active; 'I' for Inactive)
REMARK    1  A    between atoms: C_1  and  C_2
REMARK    2  A    between atoms: C_2  and  C_4
REMARK    3  A    between atoms: C_2  and  O_15
REMARK    4  A    between atoms: N_6  and  C_7
REMARK    5  A    between atoms: O_15  and  C_16
REMARK    6  A    between atoms: C_21  and  C_22
REMARK                            x       y       z     vdW  Elec       q    Type
REMARK                         _______ _______ _______ _____ _____    ______ ____
ROOT
ATOM      1  C   UNL     1       2.317  -1.386  -1.472  0.00  0.00    +0.062 C 
ATOM      2  C   UNL     1       2.606  -0.401  -0.337  0.00  0.00    +0.256 C 
ENDROOT
BRANCH   2   3
ATOM      3  C   UNL     1       3.757  -0.912   0.491  0.00  0.00    +0.258 C 
ATOM      4  O   UNL     1       4.767  -0.249   0.599  0.00  0.00    -0.271 OA
ATOM      5  N   UNL     1       3.664  -2.105   1.111  0.00  0.00    -0.278 N 
ATOM      6  H   UNL     1       2.875  -2.655   0.987  0.00  0.00    +0.155 HD
BRANCH   5   7
ATOM      7  C   UNL     1       4.707  -2.550   1.934  0.00  0.00    +0.105 A 
ATOM      8  C   UNL     1       5.004  -3.906   2.011  0.00  0.00    +0.147 A 
ATOM      9  C   UNL     1       6.038  -4.341   2.821  0.00  0.00    +0.040 A 
ATOM     10  C   UNL     1       6.769  -3.430   3.561  0.00  0.00    +0.006 A 
ATOM     11  C   UNL     1       6.473  -2.081   3.491  0.00  0.00    +0.040 A 
ATOM     12  C   UNL     1       5.444  -1.638   2.680  0.00  0.00    +0.147 A 
ATOM     13  F   UNL     1       5.155  -0.320   2.613  0.00  0.00    -0.203 F 
ATOM     14  F   UNL     1       4.287  -4.797   1.292  0.00  0.00    -0.203 F 
ENDBRANCH   5   7
ENDBRANCH   2   3
BRANCH   2  15
ATOM     15  O   UNL     1       2.943   0.874  -0.887  0.00  0.00    -0.479 OA
BRANCH  15  16
ATOM     16  C   UNL     1       1.928   1.755  -1.067  0.00  0.00    +0.137 A 
ATOM     17  C   UNL     1       0.617   1.360  -0.853  0.00  0.00    +0.066 A 
ATOM     18  C   UNL     1      -0.417   2.258  -1.042  0.00  0.00    +0.044 A 
ATOM     19  C   UNL     1      -0.151   3.561  -1.437  0.00  0.00    +0.021 A 
ATOM     20  C   UNL     1       1.146   3.970  -1.654  0.00  0.00    +0.020 A 
ATOM     21  C   UNL     1       2.200   3.070  -1.472  0.00  0.00    +0.105 A 
ATOM     22 CL   UNL     1      -2.057   1.753  -0.778  0.00  0.00    -0.083 Cl
BRANCH  21  23
ATOM     23  C   UNL     1       3.590   3.501  -1.703  0.00  0.00    +0.390 C 
ATOM     24  O   UNL     1       4.504   2.717  -1.543  0.00  0.00    -0.240 OA
ATOM     25  O   UNL     1       3.847   4.766  -2.091  0.00  0.00    -0.240 OA
ENDBRANCH  21  23
ENDBRANCH  15  16
ENDBRANCH   2  15
TORSDOF 5
