REMARK  Name = ZINC14071301
REMARK  10 active torsions:
REMARK  status: ('A' for Active; 'I' for Inactive)
REMARK    1  A    between atoms: C_1  and  C_2
REMARK    2  A    between atoms: C_2  and  C_3
REMARK    3  A    between atoms: C_9  and  N_10
REMARK    4  A    between atoms: N_10  and  O_11
REMARK    5  A    between atoms: O_11  and  C_12
REMARK    6  A    between atoms: C_12  and  C_13
REMARK    7  A    between atoms: C_17  and  C_24
REMARK    8  A    between atoms: C_20  and  C_23
REMARK    9  A    between atoms: N_27  and  C_32
REMARK   10  A    between atoms: N_30  and  C_31
REMARK                            x       y       z     vdW  Elec       q    Type
REMARK                         _______ _______ _______ _____ _____    ______ ____
ROOT
ATOM      1  C   UNL     1      -1.418   6.008   0.386  0.00  0.00    -0.006 A 
ATOM      2  C   UNL     1      -2.510   5.227   0.369  0.00  0.00    +0.090 A 
ATOM      3  N   UNL     1      -2.443   3.900   0.041  0.00  0.00    -0.347 N 
ATOM      4  H   UNL     1      -3.363   3.344  -0.195  0.00  0.00    +0.167 HD
ATOM      5  C   UNL     1      -1.263   3.226  -0.007  0.00  0.00    +0.129 A 
ATOM      6  C   UNL     1      -0.062   3.932  -0.014  0.00  0.00    +0.106 A 
ATOM      7  C   UNL     1      -0.113   5.404   0.047  0.00  0.00    +0.082 A 
ATOM      8  C   UNL     1       1.160   3.224  -0.075  0.00  0.00    +0.268 A 
ATOM      9  O   UNL     1       2.222   3.821  -0.086  0.00  0.00    -0.267 OA
ATOM     10  N   UNL     1       1.129   1.875  -0.120  0.00  0.00    -0.263 N 
ATOM     11  C   UNL     1      -0.042   1.214  -0.108  0.00  0.00    +0.333 A 
ATOM     12  O   UNL     1      -0.033  -0.001  -0.149  0.00  0.00    -0.246 OA
ATOM     13  N   UNL     1      -1.223   1.857  -0.059  0.00  0.00    -0.282 N 
ATOM     14  C   UNL     1      -2.471   1.090  -0.055  0.00  0.00    +0.155 C 
ATOM     15  C   UNL     1       2.384   1.123  -0.183  0.00  0.00    +0.157 C 
ENDROOT
BRANCH   1  17
ATOM     16  C   UNL     1      -1.344   7.636   2.256  0.00  0.00    +0.009 C 
ATOM     17  C   UNL     1      -1.520   7.468   0.745  0.00  0.00    +0.035 C 
ENDBRANCH   1  17
BRANCH   7  18
ATOM     18  N   UNL     1       0.948   6.142  -0.189  0.00  0.00    -0.264 N 
ATOM     19  H   UNL     1       1.008   7.164   0.214  0.00  0.00    +0.194 HD
BRANCH  18  20
ATOM     20  O   UNL     1       2.014   5.622  -0.962  0.00  0.00    -0.265 OA
BRANCH  20  21
ATOM     21  C   UNL     1       3.103   6.531  -1.138  0.00  0.00    +0.288 C 
BRANCH  21  22
ATOM     22  C   UNL     1       4.175   5.877  -1.970  0.00  0.00    +0.244 C 
ATOM     23  O   UNL     1       4.022   4.743  -2.373  0.00  0.00    -0.273 OA
ATOM     24  N   UNL     1       5.303   6.551  -2.267  0.00  0.00    -0.295 N 
ATOM     25  C   UNL     1       6.364   5.933  -3.078  0.00  0.00    +0.139 C 
ATOM     26  C   UNL     1       6.732   6.899  -4.210  0.00  0.00    +0.133 C 
ATOM     27  O   UNL     1       7.024   8.184  -3.656  0.00  0.00    -0.371 OA
ATOM     28  C   UNL     1       5.920   8.797  -2.985  0.00  0.00    +0.133 C 
ATOM     29  C   UNL     1       5.508   7.930  -1.795  0.00  0.00    +0.139 C 
ATOM     30  C   UNL     1       6.330  10.185  -2.490  0.00  0.00    +0.039 C 
ATOM     31  C   UNL     1       7.961   6.371  -4.954  0.00  0.00    +0.039 C 
ENDBRANCH  21  22
ENDBRANCH  20  21
ENDBRANCH  18  20
ENDBRANCH   7  18
TORSDOF 5
