REMARK  Name = ZINC02396212
REMARK  10 active torsions:
REMARK  status: ('A' for Active; 'I' for Inactive)
REMARK    1  A    between atoms: C_1  and  C_2
REMARK    2  A    between atoms: C_2  and  C_3
REMARK    3  A    between atoms: C_2  and  C_4
REMARK    4  A    between atoms: C_2  and  C_5
REMARK    5  A    between atoms: C_12  and  N_16
REMARK    6  A    between atoms: C_13  and  C_14
REMARK    7  A    between atoms: C_17  and  C_19
REMARK    8  A    between atoms: C_19  and  S_20
REMARK    9  A    between atoms: S_20  and  C_21
REMARK   10  A    between atoms: C_24  and  C_26
REMARK                            x       y       z     vdW  Elec       q    Type
REMARK                         _______ _______ _______ _____ _____    ______ ____
ROOT
ATOM      1  N   UNL     1       0.585  -0.664  -1.018  0.00  0.00    -0.278 N 
ATOM      2  C   UNL     1       0.002  -0.004   0.002  0.00  0.00    +0.228 C 
ATOM      3  O   UNL     1      -0.506  -0.623   0.913  0.00  0.00    -0.275 OA
ATOM      4  H   UNL     1       0.992  -0.170  -1.747  0.00  0.00    +0.155 HD
ENDROOT
BRANCH   1  11
ATOM      5  C   UNL     1       1.020  -7.042  -0.898  0.00  0.00    -0.000 C 
ATOM      6  C   UNL     1       0.899  -6.724  -2.391  0.00  0.00    +0.009 C 
ATOM      7  C   UNL     1       1.582  -5.389  -2.696  0.00  0.00    +0.037 C 
ATOM      8  C   UNL     1       1.035  -4.331  -1.746  0.00  0.00    -0.018 A 
ATOM      9  C   UNL     1       0.396  -4.681  -0.608  0.00  0.00    -0.004 A 
ATOM     10  S   UNL     1      -0.050  -3.144   0.150  0.00  0.00    -0.077 S 
ATOM     11  C   UNL     1       0.604  -2.052  -1.026  0.00  0.00    +0.090 A 
ATOM     12  C   UNL     1       1.145  -2.901  -1.979  0.00  0.00    +0.084 A 
ATOM     13  C   UNL     1       0.130  -6.068  -0.112  0.00  0.00    +0.047 C 
BRANCH   5  15
ATOM     14  C   UNL     1      -0.893  -8.638  -1.094  0.00  0.00    +0.011 C 
ATOM     15  C   UNL     1       0.560  -8.479  -0.641  0.00  0.00    -0.035 C 
ATOM     16  C   UNL     1       1.448  -9.446  -1.426  0.00  0.00    +0.011 C 
ATOM     17  C   UNL     1       0.665  -8.788   0.854  0.00  0.00    +0.011 C 
ENDBRANCH   5  15
BRANCH  12  18
ATOM     18  C   UNL     1       1.792  -2.388  -3.149  0.00  0.00    +0.102 C 
ATOM     19  N   UNL     1       2.306  -1.980  -4.077  0.00  0.00    -0.191 NA
ENDBRANCH  12  18
ENDBRANCH   1  11
BRANCH   2  20
ATOM     20  C   UNL     1      -0.018   1.503   0.010  0.00  0.00    +0.175 C 
BRANCH  20  21
ATOM     21  S   UNL     1      -0.866   2.087   1.500  0.00  0.00    -0.056 S 
BRANCH  21  22
ATOM     22  C   UNL     1      -0.747   3.828   1.257  0.00  0.00    +0.278 A 
ATOM     23  N   UNL     1      -0.173   4.433   0.242  0.00  0.00    -0.101 NA
ATOM     24  N   UNL     1      -0.276   5.707   0.389  0.00  0.00    -0.103 NA
ATOM     25  C   UNL     1      -0.911   5.967   1.509  0.00  0.00    +0.284 A 
ATOM     26  O   UNL     1      -1.222   4.782   2.081  0.00  0.00    -0.408 OA
BRANCH  25  27
ATOM     27  C   UNL     1      -1.225   7.300   2.042  0.00  0.00    +0.191 A 
ATOM     28  C   UNL     1      -0.908   8.491   1.459  0.00  0.00    +0.055 A 
ATOM     29  C   UNL     1      -1.399   9.501   2.308  0.00  0.00    +0.042 A 
ATOM     30  C   UNL     1      -1.985   8.888   3.356  0.00  0.00    +0.196 A 
ATOM     31  O   UNL     1      -1.883   7.559   3.190  0.00  0.00    -0.458 OA
ENDBRANCH  25  27
ENDBRANCH  21  22
ENDBRANCH  20  21
ENDBRANCH   2  20
TORSDOF 7
