REMARK  Name = ZINC51651269
REMARK  6 active torsions:
REMARK  status: ('A' for Active; 'I' for Inactive)
REMARK    1  A    between atoms: C_1  and  O_2
REMARK    2  A    between atoms: O_2  and  C_3
REMARK    3  A    between atoms: C_7  and  C_9
REMARK    4  A    between atoms: C_11  and  C_12
REMARK    5  A    between atoms: C_11  and  C_14
REMARK    6  A    between atoms: N_16  and  C_17
REMARK                            x       y       z     vdW  Elec       q    Type
REMARK                         _______ _______ _______ _____ _____    ______ ____
ROOT
ATOM      1  C   UNL     1       1.654  -4.117  -2.170  0.00  0.00    +0.210 C 
ATOM      2  O   UNL     1       0.977  -4.818  -1.237  0.00  0.00    -0.286 OA
ATOM      3  C   UNL     1       1.912  -4.683  -3.412  0.00  0.00    +0.160 C 
ENDROOT
BRANCH   1   8
ATOM      4  C   UNL     1       1.643  -0.458  -1.329  0.00  0.00    +0.121 A 
ATOM      5  C   UNL     1       3.005  -0.184  -1.309  0.00  0.00    +0.047 A 
ATOM      6  C   UNL     1       3.922  -1.187  -1.567  0.00  0.00    +0.019 A 
ATOM      7  C   UNL     1       3.490  -2.468  -1.848  0.00  0.00    +0.029 A 
ATOM      8  C   UNL     1       2.120  -2.753  -1.871  0.00  0.00    +0.041 A 
ATOM      9  C   UNL     1       1.197  -1.738  -1.603  0.00  0.00    +0.058 A 
ATOM     10 BR   UNL     1       4.748  -3.834  -2.201  0.00  0.00    -0.050 Br
BRANCH   4  12
ATOM     11  C   UNL     1       1.278   1.831  -0.798  0.00  0.00    +0.277 C 
ATOM     12  O   UNL     1       0.748   0.533  -1.073  0.00  0.00    -0.495 OA
ENDBRANCH   4  12
ENDBRANCH   1   8
BRANCH   3  13
ATOM     13  C   UNL     1       2.514  -3.872  -4.476  0.00  0.00    +0.258 C 
ATOM     14  O   UNL     1       2.685  -2.679  -4.309  0.00  0.00    -0.269 OA
ATOM     15  N   UNL     1       2.876  -4.448  -5.639  0.00  0.00    -0.308 N 
ATOM     16  H   UNL     1       2.808  -5.410  -5.746  0.00  0.00    +0.149 HD
BRANCH  15  17
ATOM     17  C   UNL     1       3.372  -3.622  -6.743  0.00  0.00    +0.073 C 
ATOM     18  C   UNL     1       2.189  -3.087  -7.576  0.00  0.00    +0.022 C 
ATOM     19  C   UNL     1       2.705  -3.122  -9.035  0.00  0.00    +0.002 C 
ATOM     20  C   UNL     1       3.538  -4.427  -9.073  0.00  0.00    +0.002 C 
ATOM     21  C   UNL     1       4.230  -4.474  -7.695  0.00  0.00    +0.022 C 
ENDBRANCH  15  17
ENDBRANCH   3  13
BRANCH   3  22
ATOM     22  C   UNL     1       1.591  -6.057  -3.654  0.00  0.00    +0.108 C 
ATOM     23  N   UNL     1       1.337  -7.148  -3.845  0.00  0.00    -0.191 NA
ENDBRANCH   3  22
TORSDOF 5
