REMARK  Name = ZINC51085530
REMARK  5 active torsions:
REMARK  status: ('A' for Active; 'I' for Inactive)
REMARK    1  A    between atoms: C_1  and  N_2
REMARK    2  A    between atoms: N_2  and  S_18
REMARK    3  A    between atoms: C_3  and  C_5
REMARK    4  A    between atoms: C_5  and  N_6
REMARK    5  A    between atoms: S_18  and  C_21
REMARK                            x       y       z     vdW  Elec       q    Type
REMARK                         _______ _______ _______ _____ _____    ______ ____
ROOT
ATOM      1  C   UNL     1       0.043  -2.191   1.157  0.00  0.00    +0.215 C 
ENDROOT
BRANCH   1   2
ATOM      2  N   UNL     1       0.063  -2.687   2.536  0.00  0.00    -0.215 N 
ATOM      3  C   UNL     1       1.188  -2.923   3.240  0.00  0.00    +0.247 C 
ATOM      4  O   UNL     1       2.333  -2.772   2.868  0.00  0.00    -0.273 OA
ATOM      5  C   UNL     1       0.723  -3.416   4.591  0.00  0.00    +0.113 C 
ATOM      6  C   UNL     1       1.193  -2.471   5.692  0.00  0.00    +0.035 C 
ATOM      7  C   UNL     1       0.686  -2.971   7.047  0.00  0.00    +0.003 C 
ATOM      8  C   UNL     1       1.219  -4.383   7.301  0.00  0.00    +0.000 C 
ATOM      9  C   UNL     1       0.721  -5.323   6.202  0.00  0.00    +0.003 C 
ATOM     10  C   UNL     1       1.228  -4.832   4.843  0.00  0.00    +0.035 C 
ATOM     11  N   UNL     1      -0.742  -3.402   4.491  0.00  0.00    -0.285 N 
ATOM     12  C   UNL     1      -1.034  -2.956   3.254  0.00  0.00    +0.310 C 
ATOM     13  O   UNL     1      -2.167  -2.817   2.836  0.00  0.00    -0.252 OA
ATOM     14  H   UNL     1      -1.374  -3.659   5.180  0.00  0.00    +0.151 HD
ENDBRANCH   1   2
BRANCH   1  17
ATOM     15  C   UNL     1      -0.018   1.461   0.010  0.00  0.00    +0.160 C 
ATOM     16  N   UNL     1       0.002  -0.004   0.002  0.00  0.00    -0.174 N 
ATOM     17  C   UNL     1       0.022  -0.684   1.165  0.00  0.00    +0.252 C 
ATOM     18  O   UNL     1       0.024  -0.083   2.219  0.00  0.00    -0.272 OA
BRANCH  16  19
ATOM     19  S   UNL     1      -0.000  -0.824  -1.437  0.00  0.00    +0.077 S 
ATOM     20  O   UNL     1      -0.531  -2.115  -1.167  0.00  0.00    -0.150 OA
ATOM     21  O   UNL     1      -0.572   0.049  -2.401  0.00  0.00    -0.150 OA
BRANCH  19  22
ATOM     22  C   UNL     1       1.682  -1.059  -1.905  0.00  0.00    +0.109 A 
ATOM     23  C   UNL     1       2.324  -0.109  -2.677  0.00  0.00    +0.029 A 
ATOM     24  C   UNL     1       3.643  -0.293  -3.045  0.00  0.00    +0.002 A 
ATOM     25  C   UNL     1       4.322  -1.428  -2.640  0.00  0.00    +0.000 A 
ATOM     26  C   UNL     1       3.680  -2.378  -1.867  0.00  0.00    +0.002 A 
ATOM     27  C   UNL     1       2.361  -2.192  -1.496  0.00  0.00    +0.029 A 
ENDBRANCH  19  22
ENDBRANCH  16  19
ENDBRANCH   1  17
TORSDOF 4
