REMARK  Name = ZINC39928380
REMARK  9 active torsions:
REMARK  status: ('A' for Active; 'I' for Inactive)
REMARK    1  A    between atoms: C_1  and  C_2
REMARK    2  A    between atoms: C_8  and  C_14
REMARK    3  A    between atoms: C_14  and  N_15
REMARK    4  A    between atoms: N_15  and  C_16
REMARK    5  A    between atoms: C_22  and  C_24
REMARK    6  A    between atoms: C_26  and  O_32
REMARK    7  A    between atoms: C_28  and  O_30
REMARK    8  A    between atoms: O_30  and  C_31
REMARK    9  A    between atoms: O_32  and  C_33
REMARK                            x       y       z     vdW  Elec       q    Type
REMARK                         _______ _______ _______ _____ _____    ______ ____
ROOT
ATOM      1  N   UNL     1      -0.305  -1.982   5.124  0.00  0.00    -0.293 N 
ATOM      2  C   UNL     1       0.559  -2.373   6.082  0.00  0.00    +0.247 C 
ATOM      3  O   UNL     1       0.489  -3.495   6.543  0.00  0.00    -0.270 OA
ENDROOT
BRANCH   1   4
ATOM      4  C   UNL     1      -0.310  -0.592   4.665  0.00  0.00    +0.076 C 
ATOM      5  C   UNL     1      -1.644   0.062   5.032  0.00  0.00    +0.022 C 
ATOM      6  C   UNL     1      -1.649   1.515   4.552  0.00  0.00    +0.002 C 
ATOM      7  C   UNL     1      -1.464   1.551   3.034  0.00  0.00    +0.000 C 
ATOM      8  C   UNL     1      -0.130   0.898   2.667  0.00  0.00    +0.002 C 
ATOM      9  C   UNL     1      -0.125  -0.555   3.146  0.00  0.00    +0.022 C 
ENDBRANCH   1   4
BRANCH   2  10
ATOM     10  C   UNL     1       1.591  -1.435   6.573  0.00  0.00    +0.044 A 
ATOM     11  C   UNL     1       1.216  -0.231   7.169  0.00  0.00    +0.059 A 
ATOM     12  C   UNL     1       2.187   0.644   7.628  0.00  0.00    +0.124 A 
ATOM     13  C   UNL     1       3.530   0.325   7.495  0.00  0.00    +0.091 A 
ATOM     14  C   UNL     1       3.908  -0.871   6.903  0.00  0.00    +0.124 A 
ATOM     15  C   UNL     1       2.944  -1.755   6.446  0.00  0.00    +0.059 A 
BRANCH  14  16
ATOM     16  O   UNL     1       5.225  -1.179   6.774  0.00  0.00    -0.495 OA
ATOM     17  C   UNL     1       6.166  -0.225   7.272  0.00  0.00    +0.277 C 
ENDBRANCH  14  16
BRANCH  12  18
ATOM     18  O   UNL     1       1.822   1.818   8.209  0.00  0.00    -0.495 OA
ATOM     19  C   UNL     1       2.875   2.673   8.660  0.00  0.00    +0.277 C 
ENDBRANCH  12  18
ENDBRANCH   2  10
BRANCH   1  20
ATOM     20  C   UNL     1      -1.239  -2.949   4.542  0.00  0.00    +0.125 C 
BRANCH  20  28
ATOM     21  C   UNL     1       1.260  -4.465  -0.855  0.00  0.00    +0.045 C 
ATOM     22  C   UNL     1       0.095  -5.047  -0.097  0.00  0.00    -0.029 A 
ATOM     23  C   UNL     1      -0.780  -5.869  -0.732  0.00  0.00    +0.005 A 
ATOM     24  C   UNL     1      -1.878  -6.441  -0.089  0.00  0.00    +0.001 A 
ATOM     25  C   UNL     1      -2.133  -6.203   1.223  0.00  0.00    +0.009 A 
ATOM     26  C   UNL     1      -1.229  -5.326   1.969  0.00  0.00    -0.007 A 
ATOM     27  C   UNL     1      -1.445  -5.058   3.288  0.00  0.00    -0.003 C 
ATOM     28  C   UNL     1      -0.458  -4.139   3.981  0.00  0.00    +0.116 C 
ATOM     29  C   UNL     1       0.684  -3.595   3.154  0.00  0.00    +0.226 C 
ATOM     30  O   UNL     1       1.505  -2.853   3.659  0.00  0.00    -0.275 OA
ATOM     31  N   UNL     1       0.787  -3.928   1.878  0.00  0.00    -0.284 N 
ATOM     32  C   UNL     1      -0.075  -4.740   1.266  0.00  0.00    +0.043 A 
ATOM     33  H   UNL     1       1.527  -3.568   1.365  0.00  0.00    +0.155 HD
ENDBRANCH  20  28
ENDBRANCH   1  20
TORSDOF 6
