REMARK  Name = ZINC41083185
REMARK  5 active torsions:
REMARK  status: ('A' for Active; 'I' for Inactive)
REMARK    1  A    between atoms: C_1  and  C_2
REMARK    2  A    between atoms: C_2  and  C_3
REMARK    3  A    between atoms: C_2  and  C_4
REMARK    4  A    between atoms: C_10  and  C_11
REMARK    5  A    between atoms: N_15  and  C_16
REMARK                            x       y       z     vdW  Elec       q    Type
REMARK                         _______ _______ _______ _____ _____    ______ ____
ROOT
ATOM      1  C   UNL     1      -0.349  -3.073   0.034  0.00  0.00    +0.102 C 
ATOM      2  N   UNL     1      -1.266  -2.787   0.914  0.00  0.00    -0.169 NA
ATOM      3  N   UNL     1      -2.606  -2.926   0.621  0.00  0.00    -0.152 N 
ATOM      4  C   UNL     1      -3.677  -2.562   1.465  0.00  0.00    +0.153 C 
ATOM      5  N   UNL     1      -3.567  -1.684   2.428  0.00  0.00    -0.283 NA
ATOM      6  C   UNL     1      -4.945  -3.275   1.151  0.00  0.00    +0.082 C 
ATOM      7  C   UNL     1      -5.856  -3.611   2.138  0.00  0.00    +0.042 C 
ATOM      8  C   UNL     1      -5.180  -3.606  -0.274  0.00  0.00    +0.273 C 
ATOM      9  O   UNL     1      -6.313  -3.757  -0.704  0.00  0.00    -0.268 OA
ATOM     10  N   UNL     1      -4.108  -3.735  -1.081  0.00  0.00    -0.152 NA
ATOM     11  C   UNL     1      -2.920  -3.440  -0.619  0.00  0.00    +0.181 C 
ATOM     12  S   UNL     1      -1.322  -3.595  -1.372  0.00  0.00    -0.038 S 
ATOM     13  H   UNL     1      -2.717  -1.246   2.591  0.00  0.00    +0.188 HD
ENDROOT
BRANCH   7  14
ATOM     14  C   UNL     1      -7.002  -4.361   1.812  0.00  0.00    +0.047 A 
ATOM     15  C   UNL     1      -7.255  -5.677   2.176  0.00  0.00    +0.027 A 
ATOM     16  C   UNL     1      -8.498  -6.017   1.643  0.00  0.00    +0.020 A 
ATOM     17  C   UNL     1      -8.980  -4.937   0.977  0.00  0.00    +0.092 A 
ATOM     18  N   UNL     1      -8.085  -3.921   1.076  0.00  0.00    -0.316 N 
BRANCH  18  19
ATOM     19  C   UNL     1      -8.233  -2.643   0.522  0.00  0.00    +0.047 A 
ATOM     20  C   UNL     1      -8.017  -1.516   1.305  0.00  0.00    +0.027 A 
ATOM     21  C   UNL     1      -8.164  -0.258   0.756  0.00  0.00    +0.022 A 
ATOM     22  C   UNL     1      -8.526  -0.118  -0.572  0.00  0.00    +0.041 A 
ATOM     23  C   UNL     1      -8.742  -1.239  -1.354  0.00  0.00    +0.022 A 
ATOM     24  C   UNL     1      -8.591  -2.501  -0.812  0.00  0.00    +0.027 A 
ATOM     25 CL   UNL     1      -8.710   1.466  -1.258  0.00  0.00    -0.084 Cl
ENDBRANCH  18  19
ENDBRANCH   7  14
BRANCH   1  27
ATOM     26  C   UNL     1       1.627  -1.635  -0.382  0.00  0.00    +0.014 C 
ATOM     27  C   UNL     1       1.149  -2.981   0.166  0.00  0.00    +0.040 C 
ATOM     28  C   UNL     1       1.540  -3.099   1.641  0.00  0.00    +0.014 C 
ENDBRANCH   1  27
TORSDOF 3
