REMARK  Name = ZINC58646238
REMARK  5 active torsions:
REMARK  status: ('A' for Active; 'I' for Inactive)
REMARK    1  A    between atoms: C_1  and  C_2
REMARK    2  A    between atoms: C_7  and  N_12
REMARK    3  A    between atoms: C_9  and  C_11
REMARK    4  A    between atoms: N_12  and  S_13
REMARK    5  A    between atoms: S_13  and  C_16
REMARK                            x       y       z     vdW  Elec       q    Type
REMARK                         _______ _______ _______ _____ _____    ______ ____
ROOT
ATOM      1  C   UNL     1      -0.698  -3.626   3.774  0.00  0.00    +0.106 A 
ATOM      2  C   UNL     1       0.552  -3.863   4.325  0.00  0.00    +0.030 A 
ATOM      3  C   UNL     1       0.788  -3.622   5.664  0.00  0.00    +0.028 A 
ATOM      4  C   UNL     1      -0.234  -3.139   6.466  0.00  0.00    +0.056 A 
ATOM      5  C   UNL     1      -1.502  -2.898   5.909  0.00  0.00    +0.065 A 
ATOM      6  C   UNL     1      -1.725  -3.141   4.555  0.00  0.00    +0.043 A 
ATOM      7  C   UNL     1      -2.565  -2.384   6.790  0.00  0.00    +0.262 A 
ATOM      8  O   UNL     1      -3.680  -2.160   6.358  0.00  0.00    -0.267 OA
ATOM      9  N   UNL     1      -2.271  -2.169   8.091  0.00  0.00    -0.275 N 
ATOM     10  H   UNL     1      -2.959  -1.831   8.685  0.00  0.00    +0.173 HD
ATOM     11  C   UNL     1      -1.044  -2.414   8.576  0.00  0.00    +0.327 A 
ATOM     12  O   UNL     1      -0.832  -2.203   9.755  0.00  0.00    -0.247 OA
ATOM     13  N   UNL     1      -0.039  -2.883   7.816  0.00  0.00    -0.307 N 
ATOM     14  H   UNL     1       0.830  -3.044   8.215  0.00  0.00    +0.170 HD
ENDROOT
BRANCH   1  15
ATOM     15  S   UNL     1      -0.974  -3.941   2.062  0.00  0.00    +0.059 S 
ATOM     16  O   UNL     1      -2.371  -4.151   1.908  0.00  0.00    -0.153 OA
ATOM     17  O   UNL     1      -0.010  -4.907   1.666  0.00  0.00    -0.153 OA
BRANCH  15  18
ATOM     18  N   UNL     1      -0.612  -2.548   1.244  0.00  0.00    -0.187 NA
ATOM     19  H   UNL     1      -1.309  -2.067   0.771  0.00  0.00    +0.148 HD
BRANCH  18  25
ATOM     20  C   UNL     1      -0.019   1.526   0.010  0.00  0.00    +0.008 C 
ATOM     21  C   UNL     1       0.002  -0.004   0.002  0.00  0.00    -0.010 C 
ATOM     22  C   UNL     1       0.718  -0.497  -1.257  0.00  0.00    +0.003 C 
ATOM     23  C   UNL     1       0.739  -2.027  -1.265  0.00  0.00    +0.002 C 
ATOM     24  C   UNL     1       1.479  -2.534  -0.026  0.00  0.00    +0.020 C 
ATOM     25  C   UNL     1       0.763  -2.041   1.233  0.00  0.00    +0.080 C 
ATOM     26  C   UNL     1       0.742  -0.511   1.242  0.00  0.00    +0.007 C 
ATOM     27  C   UNL     1       0.026  -0.018   2.500  0.00  0.00    +0.009 C 
ENDBRANCH  18  25
ENDBRANCH  15  18
ENDBRANCH   1  15
TORSDOF 3
