REMARK  Name = ZINC06724791
REMARK  4 active torsions:
REMARK  status: ('A' for Active; 'I' for Inactive)
REMARK    1  A    between atoms: C_1  and  N_2
REMARK    2  A    between atoms: C_4  and  N_13
REMARK    3  A    between atoms: N_16  and  C_17
REMARK    4  A    between atoms: N_16  and  C_18
REMARK                            x       y       z     vdW  Elec       q    Type
REMARK                         _______ _______ _______ _____ _____    ______ ____
ROOT
ATOM      1  N   UNL     1       2.434  -2.871  -0.036  0.00  0.00    -0.267 N 
ATOM      2  C   UNL     1       2.419  -4.215   0.059  0.00  0.00    +0.311 C 
ATOM      3  O   UNL     1       1.359  -4.812   0.067  0.00  0.00    -0.252 OA
ATOM      4  N   UNL     1       3.578  -4.898   0.147  0.00  0.00    -0.256 N 
ATOM      5  C   UNL     1       4.854  -4.179   0.138  0.00  0.00    +0.140 C 
ATOM      6  H   UNL     1       3.279  -2.400  -0.109  0.00  0.00    +0.156 HD
ENDROOT
BRANCH   1  10
ATOM      7  C   UNL     1      -0.362   0.457   2.056  0.00  0.00    +0.152 C 
ATOM      8  N   UNL     1      -0.176  -0.517   0.978  0.00  0.00    -0.316 N 
ATOM      9  C   UNL     1       0.985  -1.240   0.933  0.00  0.00    +0.112 A 
ATOM     10  C   UNL     1       1.228  -2.153  -0.028  0.00  0.00    +0.059 A 
ATOM     11  C   UNL     1       0.220  -2.389  -1.067  0.00  0.00    +0.010 A 
ATOM     12  C   UNL     1       0.413  -3.320  -2.088  0.00  0.00    +0.010 A 
ATOM     13  C   UNL     1      -0.561  -3.498  -3.030  0.00  0.00    +0.001 A 
ATOM     14  C   UNL     1      -1.740  -2.764  -2.985  0.00  0.00    +0.001 A 
ATOM     15  C   UNL     1      -1.957  -1.845  -1.996  0.00  0.00    +0.014 A 
ATOM     16  C   UNL     1      -0.980  -1.642  -1.020  0.00  0.00    +0.048 A 
ATOM     17  C   UNL     1      -1.155  -0.670   0.064  0.00  0.00    +0.259 A 
ATOM     18  O   UNL     1      -2.175  -0.008   0.138  0.00  0.00    -0.267 OA
ENDBRANCH   1  10
BRANCH   4  19
ATOM     19  C   UNL     1       3.561  -6.295   0.246  0.00  0.00    +0.073 A 
ATOM     20  C   UNL     1       3.588  -7.074  -0.903  0.00  0.00    +0.026 A 
ATOM     21  C   UNL     1       3.576  -8.452  -0.802  0.00  0.00    +0.002 A 
ATOM     22  C   UNL     1       3.528  -9.056   0.441  0.00  0.00    +0.003 A 
ATOM     23  C   UNL     1       3.497  -8.284   1.587  0.00  0.00    +0.040 A 
ATOM     24  C   UNL     1       3.513  -6.905   1.494  0.00  0.00    +0.145 A 
ATOM     25  F   UNL     1       3.482  -6.151   2.615  0.00  0.00    -0.204 F 
ENDBRANCH   4  19
TORSDOF 2
