REMARK  Name = ZINC39560056
REMARK  13 active torsions:
REMARK  status: ('A' for Active; 'I' for Inactive)
REMARK    1  A    between atoms: C_1  and  C_2
REMARK    2  A    between atoms: C_11  and  C_12
REMARK    3  A    between atoms: C_12  and  C_13
REMARK    4  A    between atoms: C_13  and  C_14
REMARK    5  A    between atoms: C_14  and  C_16
REMARK    6  A    between atoms: C_14  and  O_17
REMARK    7  A    between atoms: O_17  and  C_18
REMARK    8  A    between atoms: C_20  and  O_33
REMARK    9  A    between atoms: C_22  and  O_32
REMARK   10  A    between atoms: C_24  and  O_31
REMARK   11  A    between atoms: C_26  and  C_29
REMARK   12  A    between atoms: C_29  and  O_30
REMARK   13  A    between atoms: C_34  and  C_39
REMARK                            x       y       z     vdW  Elec       q    Type
REMARK                         _______ _______ _______ _____ _____    ______ ____
ROOT
ATOM      1  C   UNL     1      -0.739   0.325   4.565  0.00  0.00    +0.119 C 
ATOM      2  C   UNL     1      -0.732   1.606   5.402  0.00  0.00    +0.038 C 
ENDROOT
BRANCH   1   3
ATOM      3  C   UNL     1      -0.006   0.574   3.246  0.00  0.00    +0.036 C 
BRANCH   3   4
ATOM      4  C   UNL     1       0.096  -0.738   2.464  0.00  0.00    +0.033 C 
BRANCH   4  12
ATOM      5  C   UNL     1      -0.019   1.526   0.010  0.00  0.00    +0.012 C 
ATOM      6  C   UNL     1       0.002  -0.004   0.002  0.00  0.00    +0.015 C 
ATOM      7  C   UNL     1       0.591  -0.492  -1.326  0.00  0.00    +0.052 C 
ATOM      8  C   UNL     1       1.587   0.551  -1.829  0.00  0.00    +0.181 C 
ATOM      9  C   UNL     1       2.708   0.744  -0.789  0.00  0.00    +0.047 C 
ATOM     10  C   UNL     1       2.908  -0.602  -0.083  0.00  0.00    +0.035 C 
ATOM     11  C   UNL     1       2.076  -0.693   1.156  0.00  0.00    -0.027 C 
ATOM     12  C   UNL     1       0.819  -0.493   1.164  0.00  0.00    -0.070 C 
ATOM     13  C   UNL     1       3.943   0.993  -1.700  0.00  0.00    +0.102 C 
ATOM     14  C   UNL     1       3.386   0.854  -3.108  0.00  0.00    +0.311 C 
ATOM     15  O   UNL     1       3.843   1.333  -4.119  0.00  0.00    -0.251 OA
ATOM     16  O   UNL     1       2.260   0.089  -3.015  0.00  0.00    -0.461 OA
ATOM     17  C   UNL     1       4.501   2.400  -1.476  0.00  0.00    +0.019 C 
ENDBRANCH   4  12
ENDBRANCH   3   4
ENDBRANCH   1   3
BRANCH   1  18
ATOM     18  O   UNL     1      -2.088  -0.060   4.295  0.00  0.00    -0.346 OA
BRANCH  18  19
ATOM     19  C   UNL     1      -2.652  -0.930   5.279  0.00  0.00    +0.282 C 
ATOM     20  C   UNL     1      -4.128  -1.176   4.956  0.00  0.00    +0.201 C 
ATOM     21  C   UNL     1      -4.710  -2.157   5.979  0.00  0.00    +0.179 C 
ATOM     22  C   UNL     1      -3.887  -3.449   5.957  0.00  0.00    +0.177 C 
ATOM     23  C   UNL     1      -2.420  -3.115   6.240  0.00  0.00    +0.178 C 
ATOM     24  O   UNL     1      -1.950  -2.175   5.272  0.00  0.00    -0.341 OA
BRANCH  22  25
ATOM     25  O   UNL     1      -4.376  -4.344   6.957  0.00  0.00    -0.386 OA
ATOM     26  H   UNL     1      -5.303  -4.595   6.841  0.00  0.00    +0.210 HD
ENDBRANCH  22  25
BRANCH  21  27
ATOM     27  O   UNL     1      -6.068  -2.448   5.644  0.00  0.00    -0.386 OA
ATOM     28  H   UNL     1      -6.646  -1.672   5.633  0.00  0.00    +0.210 HD
ENDBRANCH  21  27
BRANCH  20  29
ATOM     29  O   UNL     1      -4.843   0.060   5.018  0.00  0.00    -0.384 OA
ATOM     30  H   UNL     1      -4.524   0.730   4.398  0.00  0.00    +0.210 HD
ENDBRANCH  20  29
BRANCH  23  31
ATOM     31  C   UNL     1      -1.581  -4.392   6.161  0.00  0.00    +0.190 C 
BRANCH  31  32
ATOM     32  O   UNL     1      -0.234  -4.102   6.539  0.00  0.00    -0.392 OA
ATOM     33  H   UNL     1       0.356  -4.868   6.512  0.00  0.00    +0.210 HD
ENDBRANCH  31  32
ENDBRANCH  23  31
ENDBRANCH  18  19
ENDBRANCH   1  18
TORSDOF 10
