REMARK  Name = ZINC64044042
REMARK  6 active torsions:
REMARK  status: ('A' for Active; 'I' for Inactive)
REMARK    1  A    between atoms: C_1  and  C_2
REMARK    2  A    between atoms: C_2  and  C_3
REMARK    3  A    between atoms: C_2  and  C_4
REMARK    4  A    between atoms: C_10  and  C_13
REMARK    5  A    between atoms: N_15  and  C_16
REMARK    6  A    between atoms: C_20  and  C_22
REMARK                            x       y       z     vdW  Elec       q    Type
REMARK                         _______ _______ _______ _____ _____    ______ ____
ROOT
ATOM      1  C   UNL     1      -7.035  -3.481  -3.275  0.00  0.00    +0.034 A 
ATOM      2  C   UNL     1      -8.055  -2.711  -2.733  0.00  0.00    +0.023 A 
ATOM      3  C   UNL     1      -9.349  -3.193  -2.719  0.00  0.00    +0.002 A 
ATOM      4  C   UNL     1      -9.629  -4.442  -3.243  0.00  0.00    +0.006 A 
ATOM      5  C   UNL     1      -8.615  -5.211  -3.783  0.00  0.00    -0.020 A 
ATOM      6  C   UNL     1      -7.320  -4.731  -3.807  0.00  0.00    +0.029 A 
ENDROOT
BRANCH   5   7
ATOM      7  C   UNL     1      -8.925  -6.571  -4.353  0.00  0.00    +0.133 C 
ATOM      8  C   UNL     1      -9.099  -7.577  -3.237  0.00  0.00    +0.012 C 
ATOM      9  C   UNL     1     -10.364  -8.044  -3.347  0.00  0.00    -0.004 A 
ATOM     10  C   UNL     1     -11.131  -9.027  -2.574  0.00  0.00    +0.010 A 
ATOM     11  C   UNL     1     -12.408  -9.292  -2.933  0.00  0.00    +0.001 A 
ATOM     12  C   UNL     1     -13.014  -8.653  -4.023  0.00  0.00    +0.002 A 
ATOM     13  C   UNL     1     -12.373  -7.739  -4.782  0.00  0.00    +0.026 A 
ATOM     14  C   UNL     1     -11.027  -7.383  -4.494  0.00  0.00    +0.043 A 
ATOM     15  N   UNL     1     -10.204  -6.540  -5.072  0.00  0.00    -0.374 N 
ATOM     16  H   UNL     1     -10.406  -5.988  -5.843  0.00  0.00    +0.161 HD
ENDBRANCH   5   7
BRANCH   1  19
ATOM     17  C   UNL     1      -5.272  -2.239  -2.271  0.00  0.00    +0.222 C 
ATOM     18  O   UNL     1      -6.026  -1.910  -1.380  0.00  0.00    -0.275 OA
ATOM     19  N   UNL     1      -5.723  -2.995  -3.291  0.00  0.00    -0.285 N 
ATOM     20  H   UNL     1      -5.138  -3.203  -4.036  0.00  0.00    +0.155 HD
BRANCH  17  27
ATOM     21  C   UNL     1      -1.362  -0.628  -0.002  0.00  0.00    +0.218 C 
ATOM     22  O   UNL     1      -1.696  -1.323   0.934  0.00  0.00    -0.275 OA
ATOM     23  N   UNL     1      -2.209  -0.432  -1.032  0.00  0.00    -0.301 N 
ATOM     24  C   UNL     1      -1.778   0.310  -2.225  0.00  0.00    +0.108 C 
ATOM     25  C   UNL     1      -2.047  -0.550  -3.464  0.00  0.00    +0.020 C 
ATOM     26  C   UNL     1      -3.520  -0.966  -3.481  0.00  0.00    +0.016 C 
ATOM     27  C   UNL     1      -3.830  -1.802  -2.236  0.00  0.00    +0.093 C 
ATOM     28  C   UNL     1      -3.579  -0.962  -0.986  0.00  0.00    +0.120 C 
BRANCH  21  30
ATOM     29  C   UNL     1       0.495   0.187   1.425  0.00  0.00    +0.017 C 
ATOM     30  C   UNL     1      -0.001   0.018  -0.012  0.00  0.00    +0.069 C 
ATOM     31  C   UNL     1       0.977  -0.867  -0.788  0.00  0.00    +0.017 C 
ENDBRANCH  21  30
ENDBRANCH  17  27
ENDBRANCH   1  19
TORSDOF 4
