REMARK  Name = ZINC22436996
REMARK  8 active torsions:
REMARK  status: ('A' for Active; 'I' for Inactive)
REMARK    1  A    between atoms: C_1  and  C_2
REMARK    2  A    between atoms: C_5  and  N_8
REMARK    3  A    between atoms: N_8  and  C_9
REMARK    4  A    between atoms: C_9  and  C_16
REMARK    5  A    between atoms: C_12  and  C_15
REMARK    6  A    between atoms: N_20  and  C_21
REMARK    7  A    between atoms: C_24  and  C_28
REMARK    8  A    between atoms: C_26  and  C_27
REMARK                            x       y       z     vdW  Elec       q    Type
REMARK                         _______ _______ _______ _____ _____    ______ ____
ROOT
ATOM      1  C   UNL     1       2.851  -3.438  -0.054  0.00  0.00    +0.094 C 
ATOM      2  C   UNL     1       3.746  -3.295  -1.287  0.00  0.00    +0.034 C 
ATOM      3  C   UNL     1       3.080  -3.978  -2.483  0.00  0.00    +0.006 C 
ATOM      4  C   UNL     1       2.871  -5.461  -2.173  0.00  0.00    -0.014 C 
ATOM      5  C   UNL     1       1.976  -5.604  -0.940  0.00  0.00    +0.006 C 
ATOM      6  C   UNL     1       2.642  -4.921   0.256  0.00  0.00    +0.034 C 
ATOM      7  C   UNL     1       4.224  -6.120  -1.899  0.00  0.00    +0.007 C 
ENDROOT
BRANCH   1   8
ATOM      8  C   UNL     1       3.508  -2.766   1.124  0.00  0.00    +0.180 A 
ATOM      9  N   UNL     1       4.666  -2.160   1.124  0.00  0.00    -0.111 NA
ATOM     10  N   UNL     1       4.932  -1.692   2.290  0.00  0.00    -0.023 NA
ATOM     11  N   UNL     1       3.977  -1.971   3.111  0.00  0.00    -0.039 NA
ATOM     12  N   UNL     1       3.012  -2.683   2.378  0.00  0.00    -0.195 N 
BRANCH  12  13
ATOM     13  C   UNL     1       1.795  -3.199   2.848  0.00  0.00    +0.072 A 
ATOM     14  C   UNL     1       0.600  -2.805   2.261  0.00  0.00    +0.028 A 
ATOM     15  C   UNL     1      -0.597  -3.317   2.723  0.00  0.00    +0.005 A 
ATOM     16  C   UNL     1      -0.606  -4.214   3.776  0.00  0.00    -0.050 A 
ATOM     17  C   UNL     1       0.582  -4.604   4.365  0.00  0.00    +0.008 A 
ATOM     18  C   UNL     1       1.782  -4.099   3.904  0.00  0.00    -0.025 A 
ATOM     19  C   UNL     1       3.077  -4.525   4.547  0.00  0.00    +0.046 C 
ATOM     20  C   UNL     1      -1.913  -4.768   4.281  0.00  0.00    +0.044 C 
ENDBRANCH  12  13
ENDBRANCH   1   8
BRANCH   1  21
ATOM     21  N   UNL     1       1.555  -2.807  -0.316  0.00  0.00    -0.332 N 
ATOM     22  H   UNL     1       0.630  -3.397  -0.238  0.00  0.00    +0.147 HD
BRANCH  21  27
ATOM     23  C   UNL     1       1.308   2.678  -1.736  0.00  0.00    +0.044 C 
ATOM     24  C   UNL     1       1.373   1.220  -1.359  0.00  0.00    -0.050 A 
ATOM     25  C   UNL     1       0.234   0.439  -1.424  0.00  0.00    +0.005 A 
ATOM     26  C   UNL     1       0.291  -0.897  -1.079  0.00  0.00    +0.023 A 
ATOM     27  C   UNL     1       1.494  -1.456  -0.666  0.00  0.00    +0.028 A 
ATOM     28  C   UNL     1       2.636  -0.668  -0.602  0.00  0.00    +0.023 A 
ATOM     29  C   UNL     1       2.573   0.667  -0.948  0.00  0.00    +0.005 A 
ENDBRANCH  21  27
ENDBRANCH   1  21
TORSDOF 4
