REMARK  Name = ZINC07419088
REMARK  9 active torsions:
REMARK  status: ('A' for Active; 'I' for Inactive)
REMARK    1  A    between atoms: C_1  and  C_2
REMARK    2  A    between atoms: C_2  and  C_3
REMARK    3  A    between atoms: C_2  and  C_4
REMARK    4  A    between atoms: C_7  and  S_10
REMARK    5  A    between atoms: S_10  and  N_13
REMARK    6  A    between atoms: C_18  and  C_20
REMARK    7  A    between atoms: C_18  and  C_21
REMARK    8  A    between atoms: C_18  and  N_61
REMARK    9  A    between atoms: N_23  and  C_24
REMARK                            x       y       z     vdW  Elec       q    Type
REMARK                         _______ _______ _______ _____ _____    ______ ____
ROOT
ATOM      1  N   UNL     1       4.782   5.553   0.788  0.00  0.00    -0.180 NA
ATOM      2  C   UNL     1       3.962   6.105  -0.301  0.00  0.00    +0.091 C 
ATOM      3  C   UNL     1       2.518   5.630  -0.111  0.00  0.00    -0.060 C 
ATOM      4  C   UNL     1       3.235   3.712   1.187  0.00  0.00    -0.060 C 
ATOM      5  C   UNL     1       4.709   4.108   1.051  0.00  0.00    +0.091 C 
ATOM      6  N   UNL     1       2.511   4.154  -0.024  0.00  0.00    +0.389 N 
ATOM      7  H   UNL     1       2.981   3.769  -0.852  0.00  0.00    -0.081 HD
ENDROOT
BRANCH   1   8
ATOM      8  S   UNL     1       5.762   6.534   1.695  0.00  0.00    +0.061 S 
ATOM      9  O   UNL     1       6.784   5.704   2.230  0.00  0.00    -0.153 OA
ATOM     10  O   UNL     1       6.047   7.674   0.896  0.00  0.00    -0.153 OA
BRANCH   8  14
ATOM     11  C   UNL     1       3.311   7.996   5.208  0.00  0.00    -0.045 A 
ATOM     12  C   UNL     1       4.039   6.825   5.313  0.00  0.00    +0.006 A 
ATOM     13  C   UNL     1       4.788   6.379   4.240  0.00  0.00    +0.029 A 
ATOM     14  C   UNL     1       4.808   7.103   3.063  0.00  0.00    +0.105 A 
ATOM     15  C   UNL     1       4.084   8.276   2.960  0.00  0.00    +0.029 A 
ATOM     16  C   UNL     1       3.332   8.720   4.031  0.00  0.00    +0.006 A 
BRANCH  11  18
ATOM     17  C   UNL     1       2.987   9.866   6.804  0.00  0.00    +0.012 C 
ATOM     18  C   UNL     1       2.494   8.482   6.378  0.00  0.00    +0.013 C 
ATOM     19  C   UNL     1       1.022   8.569   5.971  0.00  0.00    +0.012 C 
ENDBRANCH  11  18
ENDBRANCH   8  14
ENDBRANCH   1   8
BRANCH   6  20
ATOM     20  C   UNL     1       1.120   3.657   0.011  0.00  0.00    +0.016 C 
ATOM     21  C   UNL     1       0.404   4.151   1.270  0.00  0.00    -0.004 C 
BRANCH  20  22
ATOM     22  C   UNL     1       1.140   2.151   0.003  0.00  0.00    +0.199 C 
ATOM     23  O   UNL     1       2.199   1.558  -0.011  0.00  0.00    -0.278 OA
ATOM     24  N   UNL     1      -0.018   1.461   0.010  0.00  0.00    -0.314 N 
ATOM     25  H   UNL     1      -0.864   1.934   0.017  0.00  0.00    +0.149 HD
BRANCH  24  26
ATOM     26  C   UNL     1       0.002  -0.004   0.002  0.00  0.00    +0.073 C 
ATOM     27  C   UNL     1       0.050  -0.524  -1.450  0.00  0.00    +0.022 C 
ATOM     28  C   UNL     1      -0.840  -1.792  -1.429  0.00  0.00    +0.002 C 
ATOM     29  C   UNL     1      -1.990  -1.386  -0.474  0.00  0.00    +0.002 C 
ATOM     30  C   UNL     1      -1.295  -0.552   0.623  0.00  0.00    +0.022 C 
ENDBRANCH  24  26
ENDBRANCH  20  22
ENDBRANCH   6  20
TORSDOF 6
