REMARK  Name = ZINC61909718
REMARK  4 active torsions:
REMARK  status: ('A' for Active; 'I' for Inactive)
REMARK    1  A    between atoms: C_1  and  C_2
REMARK    2  A    between atoms: N_5  and  C_9
REMARK    3  A    between atoms: C_9  and  C_10
REMARK    4  A    between atoms: C_14  and  N_16
REMARK                            x       y       z     vdW  Elec       q    Type
REMARK                         _______ _______ _______ _____ _____    ______ ____
ROOT
ATOM      1  C   UNL     1       1.488  -4.697  -0.081  0.00  0.00    +0.081 A 
ATOM      2  C   UNL     1       2.130  -4.890  -1.289  0.00  0.00    +0.064 A 
ATOM      3  C   UNL     1       3.446  -5.335  -1.296  0.00  0.00    +0.025 A 
ATOM      4  C   UNL     1       4.070  -5.571  -0.084  0.00  0.00    +0.045 A 
ATOM      5  C   UNL     1       3.363  -5.355   1.094  0.00  0.00    +0.117 A 
ATOM      6  N   UNL     1       2.111  -4.925   1.060  0.00  0.00    -0.234 NA
ATOM      7 CL   UNL     1       1.300  -4.580  -2.782  0.00  0.00    -0.082 Cl
ENDROOT
BRANCH   5   8
ATOM      8  N   UNL     1       3.978  -5.588   2.319  0.00  0.00    -0.343 N 
ATOM      9  H   UNL     1       4.896  -5.900   2.349  0.00  0.00    +0.144 HD
ATOM     10  H   UNL     1       3.489  -5.440   3.143  0.00  0.00    +0.144 HD
ENDBRANCH   5   8
BRANCH   1  11
ATOM     11  C   UNL     1       0.060  -4.215  -0.065  0.00  0.00    +0.181 C 
BRANCH  11  16
ATOM     12  C   UNL     1      -0.018   1.503   0.010  0.00  0.00    +0.044 C 
ATOM     13  C   UNL     1       0.002  -0.004   0.002  0.00  0.00    -0.044 A 
ATOM     14  C   UNL     1       0.006  -0.706  -1.212  0.00  0.00    +0.021 A 
ATOM     15  C   UNL     1       0.025  -2.059  -1.209  0.00  0.00    +0.090 A 
ATOM     16  N   UNL     1       0.040  -2.750  -0.040  0.00  0.00    -0.309 N 
ATOM     17  C   UNL     1       0.036  -2.105   1.141  0.00  0.00    +0.252 A 
ATOM     18  O   UNL     1       0.050  -2.740   2.183  0.00  0.00    -0.268 OA
ATOM     19  C   UNL     1       0.023  -0.700   1.175  0.00  0.00    +0.073 A 
ENDBRANCH  11  16
ENDBRANCH   1  11
TORSDOF 3
