REMARK  Name = ZINC39450868
REMARK  5 active torsions:
REMARK  status: ('A' for Active; 'I' for Inactive)
REMARK    1  A    between atoms: C_1  and  C_2
REMARK    2  A    between atoms: C_2  and  C_3
REMARK    3  A    between atoms: C_2  and  S_4
REMARK    4  A    between atoms: S_4  and  N_7
REMARK    5  A    between atoms: C_15  and  O_18
REMARK                            x       y       z     vdW  Elec       q    Type
REMARK                         _______ _______ _______ _____ _____    ______ ____
ROOT
ATOM      1  N   UNL     1      -0.005  -0.143   2.793  0.00  0.00    -0.174 N 
ATOM      2  C   UNL     1       0.220   1.111   3.348  0.00  0.00    +0.134 A 
ATOM      3  C   UNL     1      -0.491   1.536   4.455  0.00  0.00    +0.085 A 
ATOM      4  C   UNL     1      -1.507   0.658   5.051  0.00  0.00    +0.099 A 
ATOM      5  C   UNL     1      -1.717  -0.610   4.467  0.00  0.00    +0.072 A 
ATOM      6  C   UNL     1      -0.922  -0.993   3.292  0.00  0.00    +0.281 A 
ATOM      7  O   UNL     1      -1.090  -2.080   2.771  0.00  0.00    -0.265 OA
ATOM      8  C   UNL     1      -2.675  -1.463   5.015  0.00  0.00    +0.062 A 
ATOM      9  C   UNL     1      -3.385  -1.018   6.123  0.00  0.00    +0.136 A 
ATOM     10  C   UNL     1      -3.122   0.248   6.644  0.00  0.00    +0.156 A 
ATOM     11  N   UNL     1      -2.214   1.034   6.110  0.00  0.00    -0.249 NA
ATOM     12  N   UNL     1      -0.240   2.781   4.999  0.00  0.00    -0.311 N 
ATOM     13  C   UNL     1       1.096   3.368   4.808  0.00  0.00    +0.259 C 
ATOM     14  C   UNL     1       1.420   3.345   3.310  0.00  0.00    +0.138 C 
ATOM     15  C   UNL     1       1.193   1.957   2.771  0.00  0.00    +0.187 C 
ATOM     16  O   UNL     1       1.853   1.562   1.831  0.00  0.00    -0.290 OA
ATOM     17  F   UNL     1       1.102   4.688   5.273  0.00  0.00    -0.224 F 
ATOM     18  H   UNL     1      -0.926   3.256   5.493  0.00  0.00    +0.149 HD
ENDROOT
BRANCH   1  19
ATOM     19  S   UNL     1       0.879  -0.605   1.472  0.00  0.00    +0.060 S 
ATOM     20  O   UNL     1       0.768   0.482   0.563  0.00  0.00    -0.153 OA
ATOM     21  O   UNL     1       0.377  -1.889   1.129  0.00  0.00    -0.153 OA
BRANCH  19  23
ATOM     22  C   UNL     1       2.626  -1.697   3.271  0.00  0.00    +0.033 C 
ATOM     23  C   UNL     1       2.584  -0.742   2.076  0.00  0.00    +0.148 C 
ATOM     24  C   UNL     1       3.479  -1.283   0.959  0.00  0.00    +0.033 C 
ENDBRANCH  19  23
ENDBRANCH   1  19
BRANCH   9  25
ATOM     25  O   UNL     1      -4.329  -1.810   6.694  0.00  0.00    -0.505 OA
ATOM     26  H   UNL     1      -3.989  -2.386   7.392  0.00  0.00    +0.292 HD
ENDBRANCH   9  25
TORSDOF 3
