REMARK  Name = ZINC20065408
REMARK  10 active torsions:
REMARK  status: ('A' for Active; 'I' for Inactive)
REMARK    1  A    between atoms: C_1  and  C_2
REMARK    2  A    between atoms: C_5  and  C_8
REMARK    3  A    between atoms: C_8  and  N_9
REMARK    4  A    between atoms: N_12  and  C_15
REMARK    5  A    between atoms: C_15  and  C_16
REMARK    6  A    between atoms: N_18  and  N_19
REMARK    7  A    between atoms: C_20  and  C_21
REMARK    8  A    between atoms: C_23  and  O_29
REMARK    9  A    between atoms: C_24  and  O_28
REMARK   10  A    between atoms: O_29  and  C_30
REMARK                            x       y       z     vdW  Elec       q    Type
REMARK                         _______ _______ _______ _____ _____    ______ ____
ROOT
ATOM      1  C   UNL     1       4.950  -8.284  -1.310  0.00  0.00    +0.246 C 
ATOM      2  O   UNL     1       3.893  -8.879  -1.334  0.00  0.00    -0.273 OA
ATOM      3  N   UNL     1       6.110  -8.967  -1.374  0.00  0.00    -0.206 N 
ATOM      4  H   UNL     1       6.955  -8.490  -1.355  0.00  0.00    +0.177 HD
ENDROOT
BRANCH   3   5
ATOM      5  N   UNL     1       6.096 -10.364  -1.469  0.00  0.00    -0.188 NA
ATOM      6  C   UNL     1       7.213 -11.022  -1.531  0.00  0.00    +0.138 C 
BRANCH   6   7
ATOM      7  C   UNL     1       7.198 -12.493  -1.631  0.00  0.00    -0.001 A 
ATOM      8  C   UNL     1       8.400 -13.203  -1.692  0.00  0.00    +0.059 A 
ATOM      9  C   UNL     1       8.381 -14.582  -1.786  0.00  0.00    +0.163 A 
ATOM     10  C   UNL     1       7.165 -15.261  -1.819  0.00  0.00    +0.173 A 
ATOM     11  C   UNL     1       5.971 -14.557  -1.758  0.00  0.00    +0.063 A 
ATOM     12  C   UNL     1       5.982 -13.180  -1.659  0.00  0.00    +0.028 A 
ATOM     13 BR   UNL     1       4.324 -15.485  -1.804  0.00  0.00    -0.046 Br
BRANCH  10  14
ATOM     14  O   UNL     1       7.148 -16.617  -1.912  0.00  0.00    -0.503 OA
ATOM     15  H   UNL     1       7.153 -17.070  -1.058  0.00  0.00    +0.292 HD
ENDBRANCH  10  14
BRANCH   9  16
ATOM     16  O   UNL     1       9.549 -15.275  -1.845  0.00  0.00    -0.491 OA
ATOM     17  C   UNL     1      10.758 -14.515  -1.807  0.00  0.00    +0.277 C 
ENDBRANCH   9  16
ENDBRANCH   6   7
ENDBRANCH   3   5
BRANCH   1  18
ATOM     18  C   UNL     1       4.965  -6.780  -1.208  0.00  0.00    +0.182 C 
BRANCH  18  22
ATOM     19  N   UNL     1       1.451  -4.747  -0.032  0.00  0.00    +0.384 N 
ATOM     20  C   UNL     1       2.095  -4.341  -1.288  0.00  0.00    -0.063 C 
ATOM     21  C   UNL     1       3.550  -4.816  -1.291  0.00  0.00    +0.066 C 
ATOM     22  N   UNL     1       3.585  -6.279  -1.152  0.00  0.00    -0.298 NA
ATOM     23  C   UNL     1       2.921  -6.702   0.089  0.00  0.00    +0.066 C 
ATOM     24  C   UNL     1       1.472  -6.211   0.081  0.00  0.00    -0.063 C 
ATOM     25  H   UNL     1       1.948  -4.343   0.747  0.00  0.00    -0.081 HD
BRANCH  19  26
ATOM     26  C   UNL     1       0.059  -4.275  -0.021  0.00  0.00    -0.043 C 
BRANCH  26  31
ATOM     27  C   UNL     1      -0.018   1.503   0.010  0.00  0.00    +0.044 C 
ATOM     28  C   UNL     1       0.002  -0.004   0.002  0.00  0.00    -0.050 A 
ATOM     29  C   UNL     1       0.006  -0.689  -1.199  0.00  0.00    +0.003 A 
ATOM     30  C   UNL     1       0.025  -2.071  -1.206  0.00  0.00    +0.002 A 
ATOM     31  C   UNL     1       0.040  -2.768  -0.013  0.00  0.00    -0.064 A 
ATOM     32  C   UNL     1       0.037  -2.084   1.188  0.00  0.00    +0.002 A 
ATOM     33  C   UNL     1       0.023  -0.702   1.195  0.00  0.00    +0.003 A 
ENDBRANCH  26  31
ENDBRANCH  19  26
ENDBRANCH  18  22
ENDBRANCH   1  18
TORSDOF 8
