REMARK  Name = ZINC12428531
REMARK  1 active torsions:
REMARK  status: ('A' for Active; 'I' for Inactive)
REMARK    1  A    between atoms: C_6  and  N_7
REMARK                            x       y       z     vdW  Elec       q    Type
REMARK                         _______ _______ _______ _____ _____    ______ ____
ROOT
ATOM      1  N   UNL     1      -1.202  -0.723   0.010  0.00  0.00    -0.210 N 
ATOM      2  C   UNL     1      -2.412  -0.130   0.020  0.00  0.00    +0.230 C 
ATOM      3  O   UNL     1      -2.639   1.044  -0.179  0.00  0.00    -0.274 OA
ATOM      4  C   UNL     1      -3.451  -1.221   0.328  0.00  0.00    +0.092 C 
ATOM      5  C   UNL     1      -3.537  -1.258   1.856  0.00  0.00    +0.040 C 
ATOM      6  C   UNL     1      -3.774  -2.624   2.401  0.00  0.00    -0.030 C 
ATOM      7  C   UNL     1      -3.583  -3.722   1.750  0.00  0.00    -0.030 C 
ATOM      8  C   UNL     1      -3.138  -3.763   0.322  0.00  0.00    +0.040 C 
ATOM      9  C   UNL     1      -2.693  -2.438  -0.225  0.00  0.00    +0.092 C 
ATOM     10  C   UNL     1      -1.255  -2.074   0.003  0.00  0.00    +0.230 C 
ATOM     11  O   UNL     1      -0.327  -2.838   0.154  0.00  0.00    -0.274 OA
ENDROOT
BRANCH   1  17
ATOM     12  C   UNL     1      -0.017   1.384   0.010  0.00  0.00    +0.025 A 
ATOM     13  C   UNL     1       1.171   2.090   0.002  0.00  0.00    +0.023 A 
ATOM     14  C   UNL     1       2.378   1.416  -0.013  0.00  0.00    +0.059 A 
ATOM     15  C   UNL     1       2.400   0.031  -0.021  0.00  0.00    +0.061 A 
ATOM     16  C   UNL     1       1.215  -0.680  -0.013  0.00  0.00    +0.045 A 
ATOM     17  C   UNL     1       0.002  -0.004   0.002  0.00  0.00    +0.045 A 
ATOM     18 CL   UNL     1       3.917  -0.813  -0.040  0.00  0.00    -0.082 Cl
ATOM     19 CL   UNL     1       3.868   2.306  -0.023  0.00  0.00    -0.082 Cl
ENDBRANCH   1  17
TORSDOF 1
