REMARK  Name = ZINC35527139
REMARK  5 active torsions:
REMARK  status: ('A' for Active; 'I' for Inactive)
REMARK    1  A    between atoms: C_1  and  N_2
REMARK    2  A    between atoms: C_5  and  C_7
REMARK    3  A    between atoms: C_13  and  C_16
REMARK    4  A    between atoms: N_18  and  C_19
REMARK    5  A    between atoms: C_26  and  C_28
REMARK                            x       y       z     vdW  Elec       q    Type
REMARK                         _______ _______ _______ _____ _____    ______ ____
ROOT
ATOM      1  C   UNL     1      -1.360   2.995  -0.663  0.00  0.00    +0.172 C 
ATOM      2  N   UNL     1      -1.252   1.586  -0.276  0.00  0.00    -0.270 N 
ATOM      3  C   UNL     1      -1.143   0.558  -1.135  0.00  0.00    +0.046 A 
ATOM      4  C   UNL     1      -1.063  -0.574  -0.393  0.00  0.00    +0.023 A 
ATOM      5  C   UNL     1      -1.134  -0.165   0.948  0.00  0.00    +0.152 A 
ATOM      6  N   UNL     1      -1.242   1.152   0.936  0.00  0.00    -0.166 NA
ATOM      7  C   UNL     1      -0.921  -1.958  -0.968  0.00  0.00    +0.147 C 
ATOM      8  N   UNL     1      -1.163  -1.851  -2.420  0.00  0.00    -0.296 N 
ATOM      9  C   UNL     1      -0.540  -0.739  -3.152  0.00  0.00    +0.114 C 
ATOM     10  C   UNL     1      -1.115   0.589  -2.642  0.00  0.00    +0.074 C 
ATOM     11  C   UNL     1      -1.935  -2.752  -3.059  0.00  0.00    +0.219 C 
ATOM     12  O   UNL     1      -2.045  -2.708  -4.266  0.00  0.00    -0.275 OA
ENDROOT
BRANCH   5  13
ATOM     13  C   UNL     1      -1.093  -1.037   2.139  0.00  0.00    +0.267 C 
ATOM     14  O   UNL     1      -0.870  -2.226   2.015  0.00  0.00    -0.268 OA
ATOM     15  N   UNL     1      -1.301  -0.515   3.364  0.00  0.00    -0.295 N 
ATOM     16  C   UNL     1      -1.660   0.901   3.523  0.00  0.00    +0.108 C 
ATOM     17  C   UNL     1      -0.679   1.551   4.505  0.00  0.00    +0.020 C 
ATOM     18  C   UNL     1      -0.668   0.755   5.811  0.00  0.00    +0.016 C 
ATOM     19  C   UNL     1      -0.199  -0.675   5.535  0.00  0.00    +0.092 C 
ATOM     20  C   UNL     1      -1.179  -1.352   4.566  0.00  0.00    +0.120 C 
BRANCH  19  21
ATOM     21  C   UNL     1      -0.156  -1.449   6.828  0.00  0.00    +0.218 C 
ATOM     22  O   UNL     1      -0.471  -0.910   7.868  0.00  0.00    -0.275 OA
ATOM     23  N   UNL     1       0.231  -2.740   6.828  0.00  0.00    -0.312 N 
ATOM     24  H   UNL     1       0.483  -3.171   5.997  0.00  0.00    +0.149 HD
BRANCH  23  25
ATOM     25  C   UNL     1       0.272  -3.492   8.085  0.00  0.00    +0.073 C 
ATOM     26  C   UNL     1       1.490  -4.384   8.335  0.00  0.00    +0.024 C 
ATOM     27  C   UNL     1       0.136  -5.014   8.002  0.00  0.00    +0.024 C 
ENDBRANCH  23  25
ENDBRANCH  19  21
ENDBRANCH   5  13
BRANCH  11  28
ATOM     28  C   UNL     1      -2.661  -3.814  -2.275  0.00  0.00    +0.075 C 
ATOM     29  C   UNL     1      -1.736  -5.015  -2.064  0.00  0.00    +0.013 C 
ATOM     30  C   UNL     1      -2.473  -6.093  -1.267  0.00  0.00    +0.001 C 
ATOM     31  C   UNL     1      -3.717  -6.537  -2.039  0.00  0.00    +0.000 C 
ATOM     32  C   UNL     1      -4.642  -5.337  -2.250  0.00  0.00    +0.001 C 
ATOM     33  C   UNL     1      -3.905  -4.258  -3.047  0.00  0.00    +0.013 C 
ENDBRANCH  11  28
TORSDOF 4
