REMARK  Name = ZINC39487648
REMARK  11 active torsions:
REMARK  status: ('A' for Active; 'I' for Inactive)
REMARK    1  A    between atoms: C_1  and  C_2
REMARK    2  A    between atoms: C_2  and  C_3
REMARK    3  A    between atoms: C_2  and  C_4
REMARK    4  A    between atoms: C_4  and  C_5
REMARK    5  A    between atoms: C_5  and  C_27
REMARK    6  A    between atoms: N_7  and  O_26
REMARK    7  A    between atoms: N_10  and  C_11
REMARK    8  A    between atoms: C_11  and  C_12
REMARK    9  A    between atoms: C_12  and  C_20
REMARK   10  A    between atoms: N_15  and  O_18
REMARK   11  A    between atoms: O_18  and  C_19
REMARK                            x       y       z     vdW  Elec       q    Type
REMARK                         _______ _______ _______ _____ _____    ______ ____
ROOT
ATOM      1  C   UNL     1      -4.366  -2.853  -0.891  0.00  0.00    +0.117 C 
ENDROOT
BRANCH   1   7
ATOM      2  C   UNL     1      -4.054  -0.638  -2.234  0.00  0.00    +0.054 C 
ATOM      3  C   UNL     1      -2.840  -0.084  -3.005  0.00  0.00    +0.167 C 
ATOM      4  N   UNL     1      -1.808  -1.117  -2.829  0.00  0.00    -0.165 N 
ATOM      5  C   UNL     1      -2.307  -2.114  -2.087  0.00  0.00    +0.328 C 
ATOM      6  O   UNL     1      -1.665  -3.103  -1.787  0.00  0.00    -0.250 OA
ATOM      7  N   UNL     1      -3.577  -1.925  -1.706  0.00  0.00    -0.276 N 
ATOM      8  C   UNL     1      -5.240  -0.851  -3.176  0.00  0.00    +0.033 C 
BRANCH   4   9
ATOM      9  O   UNL     1      -0.496  -1.065  -3.359  0.00  0.00    -0.291 OA
ATOM     10  H   UNL     1       0.046  -1.835  -3.141  0.00  0.00    +0.242 HD
ENDBRANCH   4   9
BRANCH   2  11
ATOM     11  C   UNL     1      -4.439   0.302  -1.091  0.00  0.00    +0.030 C 
BRANCH  11  13
ATOM     12  C   UNL     1      -3.511   1.776   0.700  0.00  0.00    +0.007 C 
ATOM     13  C   UNL     1      -3.201   0.618  -0.251  0.00  0.00    -0.015 C 
ATOM     14  C   UNL     1      -2.807  -0.617   0.562  0.00  0.00    +0.007 C 
ENDBRANCH  11  13
ENDBRANCH   2  11
ENDBRANCH   1   7
BRANCH   1  15
ATOM     15  C   UNL     1      -4.735  -4.079  -1.728  0.00  0.00    -0.008 C 
ATOM     16  C   UNL     1      -5.495  -5.083  -0.857  0.00  0.00    +0.026 C 
ATOM     17  C   UNL     1      -4.586  -5.554   0.281  0.00  0.00    +0.115 C 
ATOM     18  N   UNL     1      -3.381  -6.178  -0.280  0.00  0.00    -0.188 NA
ATOM     19  C   UNL     1      -2.610  -5.219  -1.081  0.00  0.00    +0.115 C 
ATOM     20  C   UNL     1      -3.460  -4.739  -2.260  0.00  0.00    +0.026 C 
BRANCH  15  21
ATOM     21  C   UNL     1      -5.617  -3.650  -2.903  0.00  0.00    -0.003 C 
ATOM     22  C   UNL     1      -6.970  -3.169  -2.376  0.00  0.00    +0.004 C 
ATOM     23  C   UNL     1      -7.852  -2.740  -3.551  0.00  0.00    +0.000 C 
ATOM     24  C   UNL     1      -8.063  -3.928  -4.491  0.00  0.00    +0.000 C 
ATOM     25  C   UNL     1      -6.710  -4.409  -5.018  0.00  0.00    +0.000 C 
ATOM     26  C   UNL     1      -5.828  -4.838  -3.843  0.00  0.00    +0.004 C 
ENDBRANCH  15  21
BRANCH  18  27
ATOM     27  O   UNL     1      -2.554  -6.762   0.776  0.00  0.00    -0.300 OA
ATOM     28  C   UNL     1      -2.349  -8.170   0.642  0.00  0.00    +0.221 C 
ENDBRANCH  18  27
ENDBRANCH   1  15
TORSDOF 7
