REMARK  Name = ZINC09260545
REMARK  7 active torsions:
REMARK  status: ('A' for Active; 'I' for Inactive)
REMARK    1  A    between atoms: C_1  and  C_2
REMARK    2  A    between atoms: C_2  and  O_3
REMARK    3  A    between atoms: O_3  and  C_4
REMARK    4  A    between atoms: C_8  and  C_11
REMARK    5  A    between atoms: C_9  and  O_10
REMARK    6  A    between atoms: N_15  and  C_19
REMARK    7  A    between atoms: C_19  and  C_20
REMARK                            x       y       z     vdW  Elec       q    Type
REMARK                         _______ _______ _______ _____ _____    ______ ____
ROOT
ATOM      1  C   UNL     1      -4.654   3.463  -4.424  0.00  0.00    +0.040 C 
ATOM      2  C   UNL     1      -4.244   4.064  -3.279  0.00  0.00    +0.098 C 
ATOM      3  C   UNL     1      -4.453   3.597  -1.900  0.00  0.00    +0.269 C 
ATOM      4  O   UNL     1      -5.032   2.585  -1.551  0.00  0.00    -0.268 OA
ATOM      5  N   UNL     1      -3.873   4.515  -1.100  0.00  0.00    -0.216 N 
ATOM      6  C   UNL     1      -3.338   5.495  -1.845  0.00  0.00    +0.313 C 
ATOM      7  O   UNL     1      -2.753   6.461  -1.394  0.00  0.00    -0.252 OA
ATOM      8  N   UNL     1      -3.530   5.265  -3.156  0.00  0.00    -0.265 N 
ATOM      9  H   UNL     1      -3.232   5.830  -3.885  0.00  0.00    +0.157 HD
ENDROOT
BRANCH   1  14
ATOM     10  C   UNL     1      -6.921   0.543  -5.113  0.00  0.00    +0.163 A 
ATOM     11  C   UNL     1      -6.370  -0.418  -4.282  0.00  0.00    +0.064 A 
ATOM     12  C   UNL     1      -5.265  -0.119  -3.500  0.00  0.00    +0.022 A 
ATOM     13  C   UNL     1      -4.703   1.139  -3.541  0.00  0.00    +0.027 A 
ATOM     14  C   UNL     1      -5.249   2.122  -4.376  0.00  0.00    +0.023 A 
ATOM     15  C   UNL     1      -6.371   1.819  -5.162  0.00  0.00    +0.166 A 
ATOM     16 BR   UNL     1      -4.525  -1.444  -2.372  0.00  0.00    -0.050 Br
BRANCH  15  17
ATOM     17  O   UNL     1      -6.913   2.765  -5.971  0.00  0.00    -0.503 OA
ATOM     18  H   UNL     1      -6.540   2.781  -6.863  0.00  0.00    +0.292 HD
ENDBRANCH  15  17
BRANCH  10  19
ATOM     19  O   UNL     1      -8.005   0.241  -5.877  0.00  0.00    -0.489 OA
BRANCH  19  21
ATOM     20  C   UNL     1      -9.731  -1.238  -6.698  0.00  0.00    +0.048 C 
ATOM     21  C   UNL     1      -8.522  -1.087  -5.772  0.00  0.00    +0.226 C 
ENDBRANCH  19  21
ENDBRANCH  10  19
ENDBRANCH   1  14
BRANCH   5  22
ATOM     22  C   UNL     1      -3.838   4.455   0.363  0.00  0.00    +0.153 C 
BRANCH  22  23
ATOM     23  C   UNL     1      -2.604   3.714   0.806  0.00  0.00    -0.029 A 
ATOM     24  C   UNL     1      -2.646   2.343   0.977  0.00  0.00    +0.008 A 
ATOM     25  C   UNL     1      -1.515   1.662   1.389  0.00  0.00    +0.038 A 
ATOM     26  C   UNL     1      -0.338   2.353   1.620  0.00  0.00    +0.123 A 
ATOM     27  C   UNL     1      -0.296   3.726   1.444  0.00  0.00    +0.038 A 
ATOM     28  C   UNL     1      -1.429   4.405   1.037  0.00  0.00    +0.008 A 
ATOM     29  F   UNL     1       0.769   1.688   2.017  0.00  0.00    -0.205 F 
ENDBRANCH  22  23
ENDBRANCH   5  22
TORSDOF 6
