REMARK  Name = ZINC02332144
REMARK  9 active torsions:
REMARK  status: ('A' for Active; 'I' for Inactive)
REMARK    1  A    between atoms: C_1  and  C_2
REMARK    2  A    between atoms: N_8  and  C_9
REMARK    3  A    between atoms: C_9  and  C_10
REMARK    4  A    between atoms: C_10  and  C_11
REMARK    5  A    between atoms: C_14  and  O_18
REMARK    6  A    between atoms: C_15  and  O_17
REMARK    7  A    between atoms: C_19  and  C_27
REMARK    8  A    between atoms: C_21  and  C_25
REMARK    9  A    between atoms: C_22  and  N_24
REMARK                            x       y       z     vdW  Elec       q    Type
REMARK                         _______ _______ _______ _____ _____    ______ ____
ROOT
ATOM      1  C   UNL     1       1.119   3.599   0.010  0.00  0.00    +0.064 C 
ATOM      2  C   UNL     1       1.146   2.093   0.002  0.00  0.00    +0.022 A 
ATOM      3  C   UNL     1      -0.017   1.406   0.010  0.00  0.00    +0.068 A 
ATOM      4  C   UNL     1       0.002  -0.004   0.002  0.00  0.00    +0.141 A 
ATOM      5  C   UNL     1       1.217  -0.655  -0.013  0.00  0.00    +0.072 A 
ATOM      6  C   UNL     1       2.398   0.099  -0.020  0.00  0.00    +0.259 A 
ATOM      7  O   UNL     1       3.481  -0.465  -0.034  0.00  0.00    -0.267 OA
ATOM      8  N   UNL     1       2.339   1.443  -0.013  0.00  0.00    -0.312 N 
ATOM      9  C   UNL     1       1.284  -2.158  -0.020  0.00  0.00    +0.103 C 
ATOM     10  C   UNL     1      -0.050  -2.734  -0.406  0.00  0.00    +0.098 C 
ATOM     11  C   UNL     1      -1.176  -1.982  -0.371  0.00  0.00    +0.199 C 
ATOM     12  O   UNL     1      -1.159  -0.693   0.010  0.00  0.00    -0.441 OA
ENDROOT
BRANCH   9  13
ATOM     13  C   UNL     1       1.661  -2.648   1.355  0.00  0.00    -0.034 A 
ATOM     14  C   UNL     1       0.857  -2.348   2.439  0.00  0.00    +0.007 A 
ATOM     15  C   UNL     1       1.199  -2.800   3.699  0.00  0.00    +0.038 A 
ATOM     16  C   UNL     1       2.352  -3.546   3.877  0.00  0.00    +0.123 A 
ATOM     17  C   UNL     1       3.159  -3.841   2.792  0.00  0.00    +0.038 A 
ATOM     18  C   UNL     1       2.812  -3.392   1.532  0.00  0.00    +0.007 A 
ATOM     19  F   UNL     1       2.689  -3.985   5.110  0.00  0.00    -0.205 F 
ENDBRANCH   9  13
BRANCH  11  20
ATOM     20  N   UNL     1      -2.370  -2.554  -0.733  0.00  0.00    -0.328 N 
ATOM     21  H   UNL     1      -2.398  -3.484  -1.009  0.00  0.00    +0.145 HD
ATOM     22  H   UNL     1      -3.185  -2.029  -0.713  0.00  0.00    +0.145 HD
ENDBRANCH  11  20
BRANCH  10  23
ATOM     23  C   UNL     1      -0.131  -4.102  -0.820  0.00  0.00    +0.101 C 
ATOM     24  N   UNL     1      -0.196  -5.188  -1.148  0.00  0.00    -0.191 NA
ENDBRANCH  10  23
BRANCH   8  25
ATOM     25  C   UNL     1       3.582   2.219  -0.021  0.00  0.00    +0.130 C 
BRANCH  25  26
ATOM     26  C   UNL     1       4.000   2.497  -1.466  0.00  0.00    +0.057 C 
BRANCH  26  27
ATOM     27  C   UNL     1       5.279   3.295  -1.475  0.00  0.00    -0.042 A 
ATOM     28  C   UNL     1       5.229   4.677  -1.472  0.00  0.00    +0.007 A 
ATOM     29  C   UNL     1       6.399   5.413  -1.474  0.00  0.00    +0.049 A 
ATOM     30  C   UNL     1       7.624   4.767  -1.490  0.00  0.00    +0.158 A 
ATOM     31  C   UNL     1       7.674   3.377  -1.498  0.00  0.00    +0.158 A 
ATOM     32  C   UNL     1       6.498   2.644  -1.490  0.00  0.00    +0.052 A 
BRANCH  31  33
ATOM     33  O   UNL     1       8.875   2.738  -1.513  0.00  0.00    -0.503 OA
ATOM     34  H   UNL     1       9.213   2.557  -2.401  0.00  0.00    +0.292 HD
ENDBRANCH  31  33
BRANCH  30  35
ATOM     35  O   UNL     1       8.776   5.490  -1.498  0.00  0.00    -0.503 OA
ATOM     36  H   UNL     1       9.100   5.704  -2.384  0.00  0.00    +0.292 HD
ENDBRANCH  30  35
ENDBRANCH  26  27
ENDBRANCH  25  26
ENDBRANCH   8  25
TORSDOF 8
