REMARK  Name = ZINC11155596
REMARK  9 active torsions:
REMARK  status: ('A' for Active; 'I' for Inactive)
REMARK    1  A    between atoms: C_1  and  C_2
REMARK    2  A    between atoms: C_2  and  C_3
REMARK    3  A    between atoms: C_3  and  C_5
REMARK    4  A    between atoms: C_3  and  C_6
REMARK    5  A    between atoms: C_6  and  C_8
REMARK    6  A    between atoms: C_6  and  N_26
REMARK    7  A    between atoms: C_13  and  N_16
REMARK    8  A    between atoms: N_16  and  S_17
REMARK    9  A    between atoms: S_17  and  C_20
REMARK                            x       y       z     vdW  Elec       q    Type
REMARK                         _______ _______ _______ _____ _____    ______ ____
ROOT
ATOM      1  C   UNL     1       1.485  -2.336  -2.568  0.00  0.00    +0.236 C 
ATOM      2  O   UNL     1       0.962  -2.460  -3.655  0.00  0.00    -0.274 OA
ATOM      3  N   UNL     1       2.817  -2.494  -2.439  0.00  0.00    -0.300 N 
ATOM      4  C   UNL     1       3.482  -2.224  -1.157  0.00  0.00    +0.109 C 
ATOM      5  C   UNL     1       4.627  -1.233  -1.394  0.00  0.00    +0.039 C 
ATOM      6  C   UNL     1       5.554  -1.782  -2.480  0.00  0.00    +0.079 C 
ATOM      7  C   UNL     1       4.774  -1.941  -3.787  0.00  0.00    +0.039 C 
ATOM      8  C   UNL     1       3.631  -2.945  -3.575  0.00  0.00    +0.109 C 
ENDROOT
BRANCH   6   9
ATOM      9  N   UNL     1       6.668  -0.853  -2.687  0.00  0.00    -0.187 NA
ATOM     10  H   UNL     1       6.523   0.103  -2.607  0.00  0.00    +0.148 HD
BRANCH   9  11
ATOM     11  S   UNL     1       8.174  -1.434  -3.055  0.00  0.00    +0.059 S 
ATOM     12  O   UNL     1       9.018  -0.302  -3.219  0.00  0.00    -0.153 OA
ATOM     13  O   UNL     1       8.454  -2.463  -2.116  0.00  0.00    -0.153 OA
BRANCH  11  14
ATOM     14  C   UNL     1       8.061  -2.209  -4.634  0.00  0.00    +0.105 A 
ATOM     15  C   UNL     1       7.740  -3.551  -4.723  0.00  0.00    +0.028 A 
ATOM     16  C   UNL     1       7.651  -4.159  -5.962  0.00  0.00    +0.002 A 
ATOM     17  C   UNL     1       7.883  -3.426  -7.110  0.00  0.00    +0.000 A 
ATOM     18  C   UNL     1       8.203  -2.084  -7.021  0.00  0.00    +0.002 A 
ATOM     19  C   UNL     1       8.288  -1.475  -5.782  0.00  0.00    +0.028 A 
ENDBRANCH  11  14
ENDBRANCH   9  11
ENDBRANCH   6   9
BRANCH   1  20
ATOM     20  C   UNL     1       0.645  -2.005  -1.361  0.00  0.00    +0.163 C 
BRANCH  20  21
ATOM     21  N   UNL     1      -0.647  -2.689  -1.463  0.00  0.00    -0.288 N 
ATOM     22  C   UNL     1      -1.462  -2.437  -2.506  0.00  0.00    +0.298 C 
ATOM     23  O   UNL     1      -1.125  -1.642  -3.362  0.00  0.00    -0.253 OA
ATOM     24  N   UNL     1      -2.650  -3.065  -2.600  0.00  0.00    -0.313 N 
ATOM     25  H   UNL     1      -0.915  -3.323  -0.780  0.00  0.00    +0.151 HD
ATOM     26  H   UNL     1      -2.919  -3.700  -1.917  0.00  0.00    +0.146 HD
ATOM     27  H   UNL     1      -3.237  -2.884  -3.351  0.00  0.00    +0.146 HD
ENDBRANCH  20  21
BRANCH  20  28
ATOM     28  C   UNL     1       0.418  -0.493  -1.296  0.00  0.00    +0.015 C 
ATOM     29  C   UNL     1       1.768   0.221  -1.193  0.00  0.00    +0.010 C 
BRANCH  28  31
ATOM     30  C   UNL     1      -0.762   1.336  -0.071  0.00  0.00    +0.004 C 
ATOM     31  C   UNL     1      -0.431  -0.158  -0.069  0.00  0.00    +0.002 C 
ENDBRANCH  28  31
ENDBRANCH  20  28
ENDBRANCH   1  20
TORSDOF 7
