REMARK  Name = ZINC31920145
REMARK  7 active torsions:
REMARK  status: ('A' for Active; 'I' for Inactive)
REMARK    1  A    between atoms: C_1  and  C_2
REMARK    2  A    between atoms: C_2  and  C_4
REMARK    3  A    between atoms: C_2  and  O_18
REMARK    4  A    between atoms: C_5  and  C_14
REMARK    5  A    between atoms: C_14  and  C_15
REMARK    6  A    between atoms: C_14  and  C_16
REMARK    7  A    between atoms: C_14  and  C_17
REMARK                            x       y       z     vdW  Elec       q    Type
REMARK                         _______ _______ _______ _____ _____    ______ ____
ROOT
ATOM      1  C   UNL     1       0.729  -0.505   1.219  0.00  0.00    +0.075 A 
ATOM      2  C   UNL     1       0.167  -0.956   2.362  0.00  0.00    +0.071 A 
ATOM      3  N   UNL     1       1.140  -1.304   3.207  0.00  0.00    -0.232 NA
ATOM      4  C   UNL     1       2.314  -1.078   2.635  0.00  0.00    +0.138 A 
ATOM      5  N   UNL     1       2.086  -0.575   1.381  0.00  0.00    -0.299 N 
ATOM      6  C   UNL     1       3.131  -0.250   0.565  0.00  0.00    +0.113 A 
ATOM      7  C   UNL     1       4.405  -0.419   0.979  0.00  0.00    +0.058 A 
ATOM      8  C   UNL     1       4.671  -0.934   2.260  0.00  0.00    +0.025 A 
ATOM      9  C   UNL     1       3.638  -1.261   3.082  0.00  0.00    +0.048 A 
ATOM     10 CL   UNL     1       5.720  -0.001  -0.075  0.00  0.00    -0.082 Cl
ENDROOT
BRANCH   2  11
ATOM     11  C   UNL     1      -1.312  -1.053   2.636  0.00  0.00    +0.006 C 
ATOM     12  C   UNL     1      -1.941  -2.073   1.685  0.00  0.00    +0.017 C 
ATOM     13  C   UNL     1      -1.534  -1.499   4.082  0.00  0.00    +0.017 C 
ATOM     14  C   UNL     1      -1.962   0.315   2.419  0.00  0.00    +0.017 C 
ENDBRANCH   2  11
BRANCH   1  16
ATOM     15  C   UNL     1       0.098   1.512  -0.078  0.00  0.00    +0.044 C 
ATOM     16  C   UNL     1      -0.002  -0.013  -0.004  0.00  0.00    +0.160 C 
BRANCH  16  17
ATOM     17  O   UNL     1       0.585  -0.587  -1.173  0.00  0.00    -0.386 OA
ATOM     18  H   UNL     1       0.607  -1.680  -1.298  0.00  0.00    +0.210 HD
ENDBRANCH  16  17
ENDBRANCH   1  16
TORSDOF 3
