REMARK  Name = ZINC35900268
REMARK  6 active torsions:
REMARK  status: ('A' for Active; 'I' for Inactive)
REMARK    1  A    between atoms: C_1  and  C_2
REMARK    2  A    between atoms: N_13  and  C_16
REMARK    3  A    between atoms: C_19  and  O_22
REMARK    4  A    between atoms: O_22  and  C_23
REMARK    5  A    between atoms: C_23  and  C_25
REMARK    6  A    between atoms: N_30  and  C_32
REMARK                            x       y       z     vdW  Elec       q    Type
REMARK                         _______ _______ _______ _____ _____    ______ ____
ROOT
ATOM      1  C   UNL     1      -0.693  -3.056   4.551  0.00  0.00    +0.044 A 
ATOM      2  C   UNL     1       0.326  -3.033   5.493  0.00  0.00    +0.027 A 
ATOM      3  C   UNL     1       0.046  -3.300   6.819  0.00  0.00    +0.048 A 
ATOM      4  C   UNL     1      -1.253  -3.592   7.209  0.00  0.00    +0.132 A 
ATOM      5  C   UNL     1      -2.272  -3.615   6.267  0.00  0.00    +0.048 A 
ATOM      6  C   UNL     1      -1.994  -3.342   4.942  0.00  0.00    +0.027 A 
ENDROOT
BRANCH   1  16
ATOM      7  C   UNL     1       0.936  -5.570  -1.217  0.00  0.00    +0.007 C 
ATOM      8  C   UNL     1       0.782  -4.149  -0.670  0.00  0.00    -0.013 C 
ATOM      9  C   UNL     1       2.039  -3.760   0.115  0.00  0.00    +0.004 C 
ATOM     10  C   UNL     1       1.911  -2.297   0.523  0.00  0.00    +0.014 C 
ATOM     11  C   UNL     1       0.669  -2.017   1.315  0.00  0.00    +0.088 C 
ATOM     12  C   UNL     1      -0.606  -2.731   0.889  0.00  0.00    +0.088 C 
ATOM     13  C   UNL     1      -0.416  -4.089   0.268  0.00  0.00    +0.016 C 
ATOM     14  C   UNL     1      -1.327  -2.889   2.227  0.00  0.00    +0.230 C 
ATOM     15  O   UNL     1      -2.515  -3.075   2.380  0.00  0.00    -0.275 OA
ATOM     16  N   UNL     1      -0.409  -2.785   3.204  0.00  0.00    -0.210 N 
ATOM     17  C   UNL     1       0.798  -2.420   2.768  0.00  0.00    +0.230 C 
ATOM     18  O   UNL     1       1.813  -2.403   3.431  0.00  0.00    -0.275 OA
ENDBRANCH   1  16
BRANCH   4  19
ATOM     19  O   UNL     1      -1.527  -3.855   8.514  0.00  0.00    -0.426 OA
BRANCH  19  20
ATOM     20  C   UNL     1      -1.558  -2.824   9.372  0.00  0.00    +0.317 C 
ATOM     21  O   UNL     1      -1.438  -1.693   8.963  0.00  0.00    -0.250 OA
BRANCH  20  22
ATOM     22  C   UNL     1      -1.743  -3.075  10.847  0.00  0.00    +0.125 C 
ATOM     23  C   UNL     1      -3.131  -3.695  11.132  0.00  0.00    +0.112 C 
ATOM     24  C   UNL     1      -3.557  -3.063  12.439  0.00  0.00    +0.221 C 
ATOM     25  O   UNL     1      -4.447  -3.477  13.153  0.00  0.00    -0.275 OA
ATOM     26  N   UNL     1      -2.807  -1.978  12.694  0.00  0.00    -0.271 N 
ATOM     27  C   UNL     1      -1.825  -1.745  11.628  0.00  0.00    +0.128 C 
BRANCH  26  28
ATOM     28  C   UNL     1      -2.944  -1.173  13.831  0.00  0.00    +0.036 A 
ATOM     29  C   UNL     1      -3.977  -1.407  14.729  0.00  0.00    +0.023 A 
ATOM     30  C   UNL     1      -4.110  -0.610  15.849  0.00  0.00    +0.002 A 
ATOM     31  C   UNL     1      -3.215   0.419  16.078  0.00  0.00    +0.000 A 
ATOM     32  C   UNL     1      -2.185   0.654  15.185  0.00  0.00    +0.002 A 
ATOM     33  C   UNL     1      -2.043  -0.142  14.066  0.00  0.00    +0.023 A 
ENDBRANCH  26  28
ENDBRANCH  20  22
ENDBRANCH  19  20
ENDBRANCH   4  19
TORSDOF 5
