REMARK  Name = ZINC65735170
REMARK  7 active torsions:
REMARK  status: ('A' for Active; 'I' for Inactive)
REMARK    1  A    between atoms: C_1  and  C_2
REMARK    2  A    between atoms: C_13  and  C_14
REMARK    3  A    between atoms: C_13  and  O_15
REMARK    4  A    between atoms: C_20  and  C_31
REMARK    5  A    between atoms: C_22  and  C_27
REMARK    6  A    between atoms: C_27  and  O_29
REMARK    7  A    between atoms: O_29  and  C_30
REMARK                            x       y       z     vdW  Elec       q    Type
REMARK                         _______ _______ _______ _____ _____    ______ ____
ROOT
ATOM      1  C   UNL     1      -0.019   1.526   0.010  0.00  0.00    +0.014 C 
ATOM      2  C   UNL     1       0.002  -0.004   0.002  0.00  0.00    -0.000 C 
ATOM      3  C   UNL     1      -1.416  -0.536   0.067  0.00  0.00    +0.010 C 
ATOM      4  C   UNL     1      -2.083   0.091   1.303  0.00  0.00    +0.005 C 
ATOM      5  C   UNL     1      -1.302  -0.222   2.576  0.00  0.00    -0.001 C 
ATOM      6  C   UNL     1       0.165   0.218   2.463  0.00  0.00    -0.004 C 
ATOM      7  C   UNL     1       0.752  -0.526   1.258  0.00  0.00    +0.001 C 
ATOM      8  C   UNL     1       2.206  -0.186   0.913  0.00  0.00    +0.007 C 
ATOM      9  C   UNL     1       2.305  -0.569  -0.589  0.00  0.00    +0.035 C 
ATOM     10  C   UNL     1       0.864  -0.502  -1.153  0.00  0.00    +0.069 C 
ATOM     11  C   UNL     1       0.404  -1.891  -1.598  0.00  0.00    +0.042 C 
ATOM     12  C   UNL     1       0.899  -0.178   3.746  0.00  0.00    +0.004 C 
ATOM     13  C   UNL     1       0.254   0.537   4.934  0.00  0.00    +0.005 C 
ATOM     14  C   UNL     1      -1.217   0.129   5.051  0.00  0.00    +0.002 C 
ATOM     15  C   UNL     1      -1.942   0.494   3.768  0.00  0.00    -0.025 C 
ATOM     16  C   UNL     1      -3.408   0.063   3.871  0.00  0.00    +0.029 C 
ATOM     17  C   UNL     1      -4.091   0.833   5.005  0.00  0.00    +0.164 C 
ATOM     18  C   UNL     1      -3.295   0.617   6.274  0.00  0.00    +0.147 C 
ATOM     19  O   UNL     1      -3.833   0.242   7.288  0.00  0.00    -0.297 OA
ATOM     20  C   UNL     1      -1.842   0.887   6.229  0.00  0.00    +0.079 C 
ATOM     21  C   UNL     1      -1.867   2.007   3.554  0.00  0.00    +0.012 C 
ENDROOT
BRANCH  10  22
ATOM     22  O   UNL     1       0.803   0.415  -2.248  0.00  0.00    -0.388 OA
ATOM     23  H   UNL     1       1.333   0.151  -3.012  0.00  0.00    +0.210 HD
ENDBRANCH  10  22
BRANCH  17  24
ATOM     24  C   UNL     1      -5.496   0.321   5.193  0.00  0.00    +0.317 C 
ATOM     25  O   UNL     1      -5.912  -0.571   4.492  0.00  0.00    -0.250 OA
BRANCH  24  26
ATOM     26  O   UNL     1      -6.284   0.855   6.139  0.00  0.00    -0.467 OA
ATOM     27  C   UNL     1      -7.604   0.321   6.261  0.00  0.00    +0.280 C 
ENDBRANCH  24  26
ENDBRANCH  17  24
TORSDOF 3
