REMARK  Name = ZINC64742162
REMARK  5 active torsions:
REMARK  status: ('A' for Active; 'I' for Inactive)
REMARK    1  A    between atoms: C_6  and  C_7
REMARK    2  A    between atoms: C_7  and  S_8
REMARK    3  A    between atoms: S_8  and  C_9
REMARK    4  A    between atoms: C_15  and  C_23
REMARK    5  A    between atoms: N_25  and  C_26
REMARK                            x       y       z     vdW  Elec       q    Type
REMARK                         _______ _______ _______ _____ _____    ______ ____
ROOT
ATOM      1  C   UNL     1      -3.329  -1.974  -1.500  0.00  0.00    +0.182 C 
ATOM      2  N   UNL     1      -3.737  -2.236  -0.270  0.00  0.00    -0.154 NA
ATOM      3  C   UNL     1      -4.895  -2.850  -0.022  0.00  0.00    +0.249 C 
ATOM      4  O   UNL     1      -5.250  -3.110   1.112  0.00  0.00    -0.273 OA
ATOM      5  C   UNL     1      -5.746  -3.209  -1.223  0.00  0.00    +0.153 C 
ATOM      6  C   UNL     1      -6.045  -4.708  -1.168  0.00  0.00    +0.103 C 
ATOM      7  C   UNL     1      -7.043  -5.048  -2.278  0.00  0.00    +0.110 C 
ATOM      8  C   UNL     1      -6.605  -4.469  -3.592  0.00  0.00    +0.219 C 
ATOM      9  O   UNL     1      -7.077  -4.925  -4.611  0.00  0.00    -0.275 OA
ATOM     10  N   UNL     1      -5.715  -3.469  -3.688  0.00  0.00    -0.273 N 
ATOM     11  C   UNL     1      -5.118  -2.951  -2.580  0.00  0.00    +0.117 C 
ATOM     12  N   UNL     1      -3.972  -2.333  -2.618  0.00  0.00    -0.212 NA
ATOM     13  H   UNL     1      -5.501  -3.098  -4.559  0.00  0.00    +0.156 HD
ENDROOT
BRANCH   6  14
ATOM     14  C   UNL     1      -4.770  -5.485  -1.374  0.00  0.00    +0.222 C 
ATOM     15  O   UNL     1      -3.723  -4.898  -1.548  0.00  0.00    -0.275 OA
ATOM     16  N   UNL     1      -4.793  -6.833  -1.366  0.00  0.00    -0.283 N 
ATOM     17  H   UNL     1      -5.618  -7.302  -1.163  0.00  0.00    +0.155 HD
BRANCH  16  18
ATOM     18  C   UNL     1      -3.627  -7.556  -1.649  0.00  0.00    +0.069 A 
ATOM     19  C   UNL     1      -2.391  -7.066  -1.250  0.00  0.00    +0.029 A 
ATOM     20  C   UNL     1      -1.242  -7.780  -1.531  0.00  0.00    +0.040 A 
ATOM     21  C   UNL     1      -1.322  -8.984  -2.210  0.00  0.00    +0.126 A 
ATOM     22  C   UNL     1      -2.553  -9.476  -2.611  0.00  0.00    +0.078 A 
ATOM     23  C   UNL     1      -3.706  -8.768  -2.327  0.00  0.00    +0.147 A 
ATOM     24  F   UNL     1      -4.908  -9.250  -2.712  0.00  0.00    -0.203 F 
ATOM     25  F   UNL     1      -0.197  -9.680  -2.483  0.00  0.00    -0.205 F 
ENDBRANCH  16  18
ENDBRANCH   6  14
BRANCH   1  26
ATOM     26  S   UNL     1      -1.823  -1.077  -1.682  0.00  0.00    -0.084 S 
BRANCH  26  27
ATOM     27  C   UNL     1      -1.276  -0.787   0.023  0.00  0.00    +0.112 C 
BRANCH  27  33
ATOM     28  C   UNL     1       0.003   1.364   0.026  0.00  0.00    +0.006 A 
ATOM     29  C   UNL     1       1.192   2.070   0.015  0.00  0.00    +0.020 A 
ATOM     30  C   UNL     1       2.398   1.393  -0.011  0.00  0.00    +0.041 A 
ATOM     31  C   UNL     1       2.414   0.009  -0.027  0.00  0.00    +0.020 A 
ATOM     32  C   UNL     1       1.225  -0.695  -0.016  0.00  0.00    +0.006 A 
ATOM     33  C   UNL     1       0.020  -0.018   0.011  0.00  0.00    -0.037 A 
ATOM     34 CL   UNL     1       3.891   2.279  -0.025  0.00  0.00    -0.084 Cl
ENDBRANCH  27  33
ENDBRANCH  26  27
ENDBRANCH   1  26
TORSDOF 5
