REMARK  Name = ZINC67031993
REMARK  4 active torsions:
REMARK  status: ('A' for Active; 'I' for Inactive)
REMARK    1  A    between atoms: C_1  and  C_2
REMARK    2  A    between atoms: C_5  and  N_21
REMARK    3  A    between atoms: C_7  and  C_8
REMARK    4  A    between atoms: N_10  and  C_11
REMARK                            x       y       z     vdW  Elec       q    Type
REMARK                         _______ _______ _______ _____ _____    ______ ____
ROOT
ATOM      1  C   UNL     1       0.242   0.021   2.481  0.00  0.00    +0.245 C 
ATOM      2  O   UNL     1       0.134   1.232   2.503  0.00  0.00    -0.270 OA
ATOM      3  N   UNL     1       0.465  -0.656   3.625  0.00  0.00    -0.304 N 
ATOM      4  H   UNL     1       0.550  -1.622   3.607  0.00  0.00    +0.150 HD
ENDROOT
BRANCH   3   5
ATOM      5  C   UNL     1       0.577   0.067   4.894  0.00  0.00    +0.104 C 
ATOM      6  C   UNL     1       0.240  -0.869   6.075  0.00  0.00    +0.032 C 
ATOM      7  C   UNL     1       1.196  -0.367   7.178  0.00  0.00    +0.037 C 
ATOM      8  C   UNL     1       2.365   0.250   6.440  0.00  0.00    -0.042 A 
ATOM      9  C   UNL     1       2.009   0.501   5.126  0.00  0.00    -0.024 A 
ATOM     10  C   UNL     1       2.925   1.070   4.258  0.00  0.00    +0.006 A 
ATOM     11  C   UNL     1       4.195   1.388   4.699  0.00  0.00    +0.000 A 
ATOM     12  C   UNL     1       4.552   1.139   6.011  0.00  0.00    +0.000 A 
ATOM     13  C   UNL     1       3.638   0.568   6.881  0.00  0.00    +0.004 A 
ENDBRANCH   3   5
BRANCH   1  20
ATOM     14  C   UNL     1      -0.511   1.452   0.082  0.00  0.00    +0.044 C 
ATOM     15  C   UNL     1      -0.234  -0.028   0.036  0.00  0.00    -0.038 A 
ATOM     16  C   UNL     1      -0.334  -0.714  -1.157  0.00  0.00    +0.006 A 
ATOM     17  C   UNL     1      -0.080  -2.073  -1.200  0.00  0.00    +0.033 A 
ATOM     18  C   UNL     1       0.275  -2.754  -0.049  0.00  0.00    +0.127 A 
ATOM     19  C   UNL     1       0.378  -2.080   1.150  0.00  0.00    +0.046 A 
ATOM     20  C   UNL     1       0.128  -0.708   1.200  0.00  0.00    +0.042 A 
BRANCH  18  21
ATOM     21  N   UNL     1       0.545  -4.208  -0.105  0.00  0.00    +0.056 N 
ATOM     22  O   UNL     1       0.454  -4.800  -1.155  0.00  0.00    -0.126 OA
ATOM     23  O   UNL     1       0.855  -4.804   0.900  0.00  0.00    -0.126 OA
ENDBRANCH  18  21
ENDBRANCH   1  20
TORSDOF 3
