REMARK  Name = ZINC09971121
REMARK  6 active torsions:
REMARK  status: ('A' for Active; 'I' for Inactive)
REMARK    1  A    between atoms: C_1  and  C_2
REMARK    2  A    between atoms: C_2  and  C_4
REMARK    3  A    between atoms: C_2  and  N_11
REMARK    4  A    between atoms: C_4  and  C_5
REMARK    5  A    between atoms: C_21  and  S_24
REMARK    6  A    between atoms: S_24  and  C_27
REMARK                            x       y       z     vdW  Elec       q    Type
REMARK                         _______ _______ _______ _____ _____    ______ ____
ROOT
ATOM      1  N   UNL     1       5.793   0.509  -2.896  0.00  0.00    -0.325 N 
ATOM      2  C   UNL     1       5.173   1.716  -3.165  0.00  0.00    +0.137 A 
ATOM      3  C   UNL     1       5.280   2.292  -4.434  0.00  0.00    +0.077 A 
ATOM      4  C   UNL     1       4.668   3.511  -4.744  0.00  0.00    +0.087 A 
ATOM      5  C   UNL     1       4.856   3.972  -6.048  0.00  0.00    +0.036 A 
ATOM      6  C   UNL     1       5.591   3.252  -6.925  0.00  0.00    +0.048 A 
ATOM      7  S   UNL     1       6.082   1.839  -5.951  0.00  0.00    -0.092 S 
ATOM      8  N   UNL     1       3.951   4.102  -3.700  0.00  0.00    -0.192 N 
ATOM      9  C   UNL     1       3.879   3.506  -2.473  0.00  0.00    +0.204 A 
ATOM     10  N   UNL     1       4.479   2.329  -2.221  0.00  0.00    -0.209 NA
ATOM     11  C   UNL     1       3.101   4.342  -1.689  0.00  0.00    +0.249 A 
ATOM     12  N   UNL     1       2.740   5.389  -2.421  0.00  0.00    -0.108 NA
ATOM     13  N   UNL     1       3.218   5.291  -3.613  0.00  0.00    -0.057 NA
ATOM     14  H   UNL     1       6.302   0.060  -3.589  0.00  0.00    +0.148 HD
ENDROOT
BRANCH  11  15
ATOM     15  S   UNL     1       2.670   4.067  -0.003  0.00  0.00    +0.047 S 
ATOM     16  O   UNL     1       2.387   5.342   0.557  0.00  0.00    -0.163 OA
ATOM     17  O   UNL     1       3.662   3.202   0.534  0.00  0.00    -0.163 OA
BRANCH  15  18
ATOM     18  C   UNL     1       1.156   3.165   0.008  0.00  0.00    +0.095 A 
ATOM     19  C   UNL     1       1.175   1.783   0.000  0.00  0.00    +0.027 A 
ATOM     20  C   UNL     1      -0.013   1.076   0.008  0.00  0.00    +0.002 A 
ATOM     21  C   UNL     1      -1.219   1.751   0.017  0.00  0.00    +0.000 A 
ATOM     22  C   UNL     1      -1.238   3.133   0.030  0.00  0.00    +0.002 A 
ATOM     23  C   UNL     1      -0.050   3.840   0.022  0.00  0.00    +0.027 A 
ENDBRANCH  15  18
ENDBRANCH  11  15
BRANCH   1  25
ATOM     24  C   UNL     1       6.753   0.495  -0.646  0.00  0.00    +0.028 C 
ATOM     25  C   UNL     1       5.679  -0.092  -1.565  0.00  0.00    +0.073 C 
BRANCH  25  26
ATOM     26  C   UNL     1       5.872  -1.607  -1.671  0.00  0.00    +0.057 C 
BRANCH  26  27
ATOM     27  C   UNL     1       4.745  -2.202  -2.474  0.00  0.00    -0.046 A 
ATOM     28  C   UNL     1       3.595  -2.631  -1.839  0.00  0.00    +0.004 A 
ATOM     29  C   UNL     1       2.558  -3.172  -2.576  0.00  0.00    +0.000 A 
ATOM     30  C   UNL     1       2.677  -3.294  -3.948  0.00  0.00    +0.000 A 
ATOM     31  C   UNL     1       3.829  -2.869  -4.583  0.00  0.00    +0.000 A 
ATOM     32  C   UNL     1       4.863  -2.323  -3.846  0.00  0.00    +0.004 A 
ENDBRANCH  26  27
ENDBRANCH  25  26
ENDBRANCH   1  25
TORSDOF 5
