REMARK  Name = ZINC32796218
REMARK  2 active torsions:
REMARK  status: ('A' for Active; 'I' for Inactive)
REMARK    1  A    between atoms: C_6  and  C_7
REMARK    2  A    between atoms: C_13  and  C_15
REMARK                            x       y       z     vdW  Elec       q    Type
REMARK                         _______ _______ _______ _____ _____    ______ ____
ROOT
ATOM      1  C   UNL     1      -0.662   5.334   0.043  0.00  0.00    +0.107 C 
ATOM      2  C   UNL     1      -1.324   5.545   1.421  0.00  0.00    +0.029 C 
ATOM      3  C   UNL     1      -2.030   6.918   1.262  0.00  0.00    +0.021 C 
ATOM      4  C   UNL     1      -2.483   6.864  -0.219  0.00  0.00    +0.109 C 
ATOM      5  N   UNL     1      -1.390   6.169  -0.923  0.00  0.00    -0.288 N 
ATOM      6  C   UNL     1      -1.106   6.281  -2.236  0.00  0.00    +0.285 C 
ATOM      7  O   UNL     1      -1.686   7.108  -2.916  0.00  0.00    -0.267 OA
ENDROOT
BRANCH   1  13
ATOM      8  C   UNL     1       0.282   3.019  -0.077  0.00  0.00    +0.007 A 
ATOM      9  C   UNL     1       0.193   1.689  -0.443  0.00  0.00    +0.020 A 
ATOM     10  C   UNL     1      -0.939   1.224  -1.087  0.00  0.00    +0.041 A 
ATOM     11  C   UNL     1      -1.979   2.091  -1.371  0.00  0.00    +0.020 A 
ATOM     12  C   UNL     1      -1.891   3.420  -1.001  0.00  0.00    +0.007 A 
ATOM     13  C   UNL     1      -0.760   3.884  -0.356  0.00  0.00    -0.027 A 
ATOM     14 CL   UNL     1      -1.052  -0.447  -1.547  0.00  0.00    -0.084 Cl
ENDBRANCH   1  13
BRANCH   6  15
ATOM     15  C   UNL     1      -0.099   5.409  -2.844  0.00  0.00    +0.217 C 
ATOM     16  C   UNL     1       0.760   4.752  -2.053  0.00  0.00    +0.238 C 
ATOM     17  O   UNL     1       1.712   3.941  -2.561  0.00  0.00    -0.492 OA
ATOM     18  C   UNL     1       1.539   3.513  -3.917  0.00  0.00    +0.269 C 
ATOM     19  C   UNL     1       1.143   4.736  -4.756  0.00  0.00    +0.270 C 
ATOM     20  O   UNL     1      -0.062   5.280  -4.199  0.00  0.00    -0.481 OA
ENDBRANCH   6  15
TORSDOF 2
