REMARK  Name = ZINC46864517
REMARK  7 active torsions:
REMARK  status: ('A' for Active; 'I' for Inactive)
REMARK    1  A    between atoms: C_1  and  C_2
REMARK    2  A    between atoms: N_10  and  C_14
REMARK    3  A    between atoms: C_14  and  C_15
REMARK    4  A    between atoms: N_17  and  C_18
REMARK    5  A    between atoms: C_18  and  C_19
REMARK    6  A    between atoms: C_19  and  C_21
REMARK    7  A    between atoms: C_19  and  N_22
REMARK                            x       y       z     vdW  Elec       q    Type
REMARK                         _______ _______ _______ _____ _____    ______ ____
ROOT
ATOM      1  C   UNL     1       3.488  -6.201  -1.487  0.00  0.00    +0.231 C 
ATOM      2  O   UNL     1       3.200  -5.459  -2.403  0.00  0.00    -0.274 OA
ATOM      3  N   UNL     1       3.954  -7.439  -1.744  0.00  0.00    -0.312 N 
ATOM      4  H   UNL     1       4.185  -8.032  -1.012  0.00  0.00    +0.149 HD
ENDROOT
BRANCH   1   5
ATOM      5  C   UNL     1       3.325  -5.738  -0.062  0.00  0.00    +0.213 C 
BRANCH   5  15
ATOM      6  C   UNL     1      -0.019   1.526   0.010  0.00  0.00    +0.007 C 
ATOM      7  C   UNL     1       0.002  -0.004   0.002  0.00  0.00    -0.014 C 
ATOM      8  C   UNL     1       0.716  -0.497  -1.258  0.00  0.00    +0.006 C 
ATOM      9  C   UNL     1       0.727  -2.028  -1.271  0.00  0.00    +0.035 C 
ATOM     10  C   UNL     1       1.442  -2.543  -0.027  0.00  0.00    +0.113 C 
ATOM     11  C   UNL     1       0.753  -2.041   1.238  0.00  0.00    +0.035 C 
ATOM     12  C   UNL     1       0.742  -0.510   1.242  0.00  0.00    +0.006 C 
ATOM     13  C   UNL     1       1.495  -4.053  -0.035  0.00  0.00    +0.247 C 
ATOM     14  O   UNL     1       0.556  -4.821  -0.030  0.00  0.00    -0.273 OA
ATOM     15  N   UNL     1       2.807  -4.367  -0.051  0.00  0.00    -0.215 N 
ATOM     16  C   UNL     1       3.576  -3.272  -0.053  0.00  0.00    +0.310 C 
ATOM     17  O   UNL     1       4.791  -3.300  -0.065  0.00  0.00    -0.252 OA
ATOM     18  N   UNL     1       2.853  -2.136  -0.039  0.00  0.00    -0.285 N 
ATOM     19  H   UNL     1       3.196  -1.229  -0.038  0.00  0.00    +0.151 HD
ENDBRANCH   5  15
ENDBRANCH   1   5
BRANCH   3  20
ATOM     20  C   UNL     1       4.112  -7.889  -3.129  0.00  0.00    +0.126 C 
BRANCH  20  21
ATOM     21  C   UNL     1       4.654  -9.320  -3.142  0.00  0.00    +0.087 C 
ATOM     22  C   UNL     1       4.937  -9.746  -4.584  0.00  0.00    +0.029 C 
BRANCH  21  23
ATOM     23  N   UNL     1       5.893  -9.380  -2.363  0.00  0.00    -0.325 N 
ATOM     24  C   UNL     1       6.102 -10.221  -1.181  0.00  0.00    +0.110 C 
ATOM     25  C   UNL     1       7.543  -9.931  -0.730  0.00  0.00    +0.056 C 
ATOM     26  C   UNL     1       8.055  -8.915  -1.725  0.00  0.00    -0.025 A 
ATOM     27  C   UNL     1       7.049  -8.649  -2.642  0.00  0.00    +0.033 A 
ATOM     28  C   UNL     1       7.292  -7.736  -3.670  0.00  0.00    +0.023 A 
ATOM     29  C   UNL     1       8.518  -7.114  -3.771  0.00  0.00    +0.002 A 
ATOM     30  C   UNL     1       9.516  -7.388  -2.854  0.00  0.00    +0.000 A 
ATOM     31  C   UNL     1       9.280  -8.285  -1.828  0.00  0.00    +0.005 A 
ENDBRANCH  21  23
ENDBRANCH  20  21
ENDBRANCH   3  20
TORSDOF 5
