REMARK  Name = ZINC20692030
REMARK  4 active torsions:
REMARK  status: ('A' for Active; 'I' for Inactive)
REMARK    1  A    between atoms: C_1  and  C_2
REMARK    2  A    between atoms: C_5  and  C_8
REMARK    3  A    between atoms: C_19  and  N_25
REMARK    4  A    between atoms: C_21  and  C_24
REMARK                            x       y       z     vdW  Elec       q    Type
REMARK                         _______ _______ _______ _____ _____    ______ ____
ROOT
ATOM      1  C   UNL     1      -0.076   5.774   0.033  0.00  0.00    +0.105 C 
ATOM      2  C   UNL     1      -0.440   6.278   1.414  0.00  0.00    +0.029 C 
ATOM      3  C   UNL     1       0.431   5.832   2.595  0.00  0.00    +0.033 C 
ATOM      4  C   UNL     1      -0.581   5.852   3.744  0.00  0.00    -0.030 C 
ATOM      5  C   UNL     1      -1.808   5.669   3.269  0.00  0.00    -0.023 C 
ATOM      6  C   UNL     1      -1.722   5.477   1.800  0.00  0.00    +0.049 C 
ATOM      7  C   UNL     1      -2.790   5.913   0.875  0.00  0.00    -0.017 A 
ATOM      8  C   UNL     1      -4.111   5.976   1.268  0.00  0.00    +0.038 A 
ATOM      9  C   UNL     1      -5.090   6.372   0.377  0.00  0.00    +0.127 A 
ATOM     10  C   UNL     1      -4.740   6.708  -0.918  0.00  0.00    +0.038 A 
ATOM     11  C   UNL     1      -3.424   6.654  -1.318  0.00  0.00    -0.027 A 
ATOM     12  C   UNL     1      -2.422   6.262  -0.427  0.00  0.00    +0.034 A 
ATOM     13  N   UNL     1      -1.109   6.267  -0.893  0.00  0.00    -0.336 N 
ATOM     14  C   UNL     1      -3.059   7.022  -2.733  0.00  0.00    +0.046 C 
ATOM     15  H   UNL     1      -0.826   6.616  -1.897  0.00  0.00    +0.147 HD
ENDROOT
BRANCH   1  20
ATOM     16  C   UNL     1       0.002  -0.004   0.000  0.00  0.00    +0.044 C 
ATOM     17  C   UNL     1      -0.018   1.503   0.009  0.00  0.00    -0.050 A 
ATOM     18  C   UNL     1       1.105   2.207   0.399  0.00  0.00    +0.004 A 
ATOM     19  C   UNL     1       1.088   3.589   0.403  0.00  0.00    +0.006 A 
ATOM     20  C   UNL     1      -0.056   4.267   0.025  0.00  0.00    -0.027 A 
ATOM     21  C   UNL     1      -1.181   3.563  -0.361  0.00  0.00    +0.006 A 
ATOM     22  C   UNL     1      -1.162   2.181  -0.369  0.00  0.00    +0.004 A 
ENDBRANCH   1  20
BRANCH   9  23
ATOM     23  N   UNL     1      -6.505   6.437   0.807  0.00  0.00    +0.056 N 
ATOM     24  O   UNL     1      -7.365   6.787   0.019  0.00  0.00    -0.126 OA
ATOM     25  O   UNL     1      -6.809   6.141   1.948  0.00  0.00    -0.126 OA
ENDBRANCH   9  23
TORSDOF 2
