REMARK  Name = ZINC39327759
REMARK  2 active torsions:
REMARK  status: ('A' for Active; 'I' for Inactive)
REMARK    1  A    between atoms: C_6  and  N_7
REMARK    2  A    between atoms: N_13  and  C_16
REMARK                            x       y       z     vdW  Elec       q    Type
REMARK                         _______ _______ _______ _____ _____    ______ ____
ROOT
ATOM      1  N   UNL     1      -0.882  -1.313   0.388  0.00  0.00    -0.269 N 
ATOM      2  C   UNL     1      -0.904  -2.524  -0.204  0.00  0.00    +0.307 C 
ATOM      3  O   UNL     1       0.120  -3.001  -0.653  0.00  0.00    -0.252 OA
ATOM      4  N   UNL     1      -2.063  -3.207  -0.297  0.00  0.00    -0.282 N 
ATOM      5  C   UNL     1      -3.322  -2.611   0.170  0.00  0.00    +0.128 C 
ATOM      6  C   UNL     1      -4.334  -2.636  -0.983  0.00  0.00    +0.124 C 
ATOM      7  N   UNL     1      -4.360  -3.990  -1.554  0.00  0.00    -0.327 N 
ATOM      8  C   UNL     1      -3.101  -4.586  -2.022  0.00  0.00    +0.124 C 
ATOM      9  C   UNL     1      -2.090  -4.558  -0.874  0.00  0.00    +0.128 C 
ATOM     10  H   UNL     1      -1.696  -0.941   0.761  0.00  0.00    +0.156 HD
ENDROOT
BRANCH   7  11
ATOM     11  C   UNL     1      -5.558  -4.696  -1.651  0.00  0.00    +0.035 C 
ATOM     12  C   UNL     1      -5.602  -6.065  -1.759  0.00  0.00    +0.023 C 
ATOM     13  C   UNL     1      -6.838  -6.733  -1.920  0.00  0.00    -0.000 C 
ATOM     14  C   UNL     1      -8.025  -6.168  -1.670  0.00  0.00    +0.004 C 
ATOM     15  C   UNL     1      -8.066  -4.766  -1.138  0.00  0.00    +0.160 C 
ATOM     16  C   UNL     1      -6.819  -4.058  -1.640  0.00  0.00    +0.003 C 
ATOM     17  C   UNL     1      -7.246  -2.855  -2.045  0.00  0.00    +0.027 C 
ATOM     18  C   UNL     1      -8.661  -2.850  -2.088  0.00  0.00    +0.106 C 
ATOM     19  N   UNL     1      -9.171  -3.948  -1.615  0.00  0.00    -0.279 NA
ENDBRANCH   7  11
BRANCH   1  25
ATOM     20  C   UNL     1       0.295   0.795   0.463  0.00  0.00    +0.025 A 
ATOM     21  C   UNL     1       1.479   1.502   0.538  0.00  0.00    +0.022 A 
ATOM     22  C   UNL     1       2.686   0.829   0.615  0.00  0.00    +0.041 A 
ATOM     23  C   UNL     1       2.709  -0.555   0.616  0.00  0.00    +0.022 A 
ATOM     24  C   UNL     1       1.529  -1.267   0.541  0.00  0.00    +0.025 A 
ATOM     25  C   UNL     1       0.317  -0.594   0.464  0.00  0.00    +0.035 A 
ATOM     26 CL   UNL     1       4.172   1.721   0.710  0.00  0.00    -0.084 Cl
ENDBRANCH   1  25
TORSDOF 2
