REMARK  Name = ZINC65420754
REMARK  6 active torsions:
REMARK  status: ('A' for Active; 'I' for Inactive)
REMARK    1  A    between atoms: C_1  and  C_2
REMARK    2  A    between atoms: C_4  and  C_25
REMARK    3  A    between atoms: N_8  and  C_9
REMARK    4  A    between atoms: C_9  and  C_11
REMARK    5  A    between atoms: C_9  and  C_12
REMARK    6  A    between atoms: C_21  and  O_24
REMARK                            x       y       z     vdW  Elec       q    Type
REMARK                         _______ _______ _______ _____ _____    ______ ____
ROOT
ATOM      1  C   UNL     1       0.046  -1.929   3.606  0.00  0.00    +0.076 C 
ATOM      2  C   UNL     1       1.479  -1.540   3.973  0.00  0.00    +0.028 C 
ENDROOT
BRANCH   1  10
ATOM      3  C   UNL     1      -0.018   1.503   0.010  0.00  0.00    +0.066 C 
ATOM      4  C   UNL     1       0.002  -0.004   0.002  0.00  0.00    +0.044 A 
ATOM      5  C   UNL     1       0.006  -0.699  -1.197  0.00  0.00    +0.046 A 
ATOM      6  C   UNL     1       0.025  -2.084  -1.160  0.00  0.00    +0.044 A 
ATOM      7  N   UNL     1       0.040  -2.698   0.011  0.00  0.00    -0.220 NA
ATOM      8  C   UNL     1       0.035  -2.004   1.140  0.00  0.00    +0.216 A 
ATOM      9  N   UNL     1       0.022  -0.679   1.139  0.00  0.00    -0.220 NA
ATOM     10  N   UNL     1       0.050  -2.679   2.348  0.00  0.00    -0.310 N 
ATOM     11  C   UNL     1       0.030  -2.881  -2.439  0.00  0.00    +0.066 C 
ATOM     12  H   UNL     1       0.063  -3.649   2.362  0.00  0.00    +0.149 HD
ENDBRANCH   1  10
BRANCH   1  13
ATOM     13  C   UNL     1      -0.547  -2.799   4.717  0.00  0.00    -0.008 C 
ATOM     14  C   UNL     1      -1.980  -3.188   4.350  0.00  0.00    +0.012 C 
ATOM     15  C   UNL     1      -2.573  -4.057   5.460  0.00  0.00    -0.007 C 
ATOM     16  C   UNL     1      -1.728  -5.322   5.623  0.00  0.00    +0.007 C 
ATOM     17  C   UNL     1      -0.294  -4.933   5.990  0.00  0.00    -0.007 C 
ATOM     18  C   UNL     1       0.298  -4.064   4.880  0.00  0.00    +0.012 C 
ATOM     19  C   UNL     1      -0.299  -4.150   7.304  0.00  0.00    +0.038 C 
ATOM     20  C   UNL     1      -1.144  -2.885   7.141  0.00  0.00    +0.067 C 
ATOM     21  C   UNL     1      -2.578  -3.274   6.774  0.00  0.00    +0.038 C 
ATOM     22  C   UNL     1      -0.552  -2.015   6.031  0.00  0.00    +0.043 C 
BRANCH  20  23
ATOM     23  O   UNL     1      -1.149  -2.153   8.368  0.00  0.00    -0.389 OA
ATOM     24  H   UNL     1      -1.512  -2.644   9.118  0.00  0.00    +0.210 HD
ENDBRANCH  20  23
ENDBRANCH   1  13
TORSDOF 3
