REMARK  Name = ZINC09820106
REMARK  2 active torsions:
REMARK  status: ('A' for Active; 'I' for Inactive)
REMARK    1  A    between atoms: C_10  and  C_11
REMARK    2  A    between atoms: C_21  and  C_23
REMARK                            x       y       z     vdW  Elec       q    Type
REMARK                         _______ _______ _______ _____ _____    ______ ____
ROOT
ATOM      1  C   UNL     1       2.258   1.397  -0.979  0.00  0.00    +0.252 C 
ATOM      2  O   UNL     1       3.275   2.063  -1.012  0.00  0.00    -0.270 OA
ATOM      3  N   UNL     1       1.425   1.491   0.077  0.00  0.00    -0.255 N 
ATOM      4  C   UNL     1       1.679   2.232   1.234  0.00  0.00    +0.041 A 
ATOM      5  C   UNL     1       2.791   3.012   1.560  0.00  0.00    +0.024 A 
ATOM      6  C   UNL     1       2.846   3.673   2.768  0.00  0.00    +0.002 A 
ATOM      7  C   UNL     1       1.801   3.568   3.667  0.00  0.00    +0.000 A 
ATOM      8  C   UNL     1       0.697   2.798   3.353  0.00  0.00    +0.005 A 
ATOM      9  C   UNL     1       0.637   2.134   2.142  0.00  0.00    -0.024 A 
ATOM     10  C   UNL     1      -0.432   1.241   1.553  0.00  0.00    +0.069 C 
ATOM     11  C   UNL     1       0.122   0.829   0.179  0.00  0.00    +0.171 C 
ENDROOT
BRANCH   1  21
ATOM     12  C   UNL     1       2.208   1.763  -6.076  0.00  0.00    +0.001 A 
ATOM     13  C   UNL     1       2.518   2.640  -5.039  0.00  0.00    +0.001 A 
ATOM     14  C   UNL     1       2.436   2.243  -3.738  0.00  0.00    +0.009 A 
ATOM     15  C   UNL     1       2.028   0.937  -3.435  0.00  0.00    -0.006 A 
ATOM     16  C   UNL     1       1.718   0.043  -4.487  0.00  0.00    -0.017 A 
ATOM     17  C   UNL     1       1.814   0.486  -5.818  0.00  0.00    +0.008 A 
ATOM     18  C   UNL     1       1.315  -1.270  -4.185  0.00  0.00    +0.008 A 
ATOM     19  C   UNL     1       1.229  -1.677  -2.887  0.00  0.00    +0.001 A 
ATOM     20  C   UNL     1       1.534  -0.816  -1.841  0.00  0.00    +0.014 A 
ATOM     21  C   UNL     1       1.936   0.488  -2.093  0.00  0.00    +0.045 A 
ENDBRANCH   1  21
BRANCH  11  22
ATOM     22  C   UNL     1      -0.793   1.305  -0.919  0.00  0.00    +0.232 C 
ATOM     23  O   UNL     1      -0.393   2.105  -1.738  0.00  0.00    -0.274 OA
ATOM     24  N   UNL     1      -2.056   0.840  -0.993  0.00  0.00    -0.328 N 
ATOM     25  H   UNL     1      -2.376   0.200  -0.338  0.00  0.00    +0.145 HD
ATOM     26  H   UNL     1      -2.645   1.146  -1.700  0.00  0.00    +0.145 HD
ENDBRANCH  11  22
TORSDOF 2
