REMARK  Name = ZINC65423664
REMARK  5 active torsions:
REMARK  status: ('A' for Active; 'I' for Inactive)
REMARK    1  A    between atoms: C_3  and  N_9
REMARK    2  A    between atoms: N_12  and  C_13
REMARK    3  A    between atoms: C_13  and  C_14
REMARK    4  A    between atoms: C_17  and  N_20
REMARK    5  A    between atoms: C_21  and  C_23
REMARK                            x       y       z     vdW  Elec       q    Type
REMARK                         _______ _______ _______ _____ _____    ______ ____
ROOT
ATOM      1  C   UNL     1       4.708   5.601  -0.341  0.00  0.00    +0.141 C 
ENDROOT
BRANCH   1   5
ATOM      2  N   UNL     1       3.603   2.108  -0.029  0.00  0.00    -0.267 N 
ATOM      3  C   UNL     1       3.580   3.452  -0.127  0.00  0.00    +0.304 C 
ATOM      4  O   UNL     1       2.517   4.044  -0.119  0.00  0.00    -0.252 OA
ATOM      5  N   UNL     1       4.734   4.140  -0.235  0.00  0.00    -0.295 N 
ATOM      6  H   UNL     1       4.450   1.642   0.047  0.00  0.00    +0.156 HD
ATOM      7  H   UNL     1       5.581   3.668  -0.241  0.00  0.00    +0.151 HD
BRANCH   2  10
ATOM      8  C   UNL     1       0.090   1.204  -0.646  0.00  0.00    +0.005 A 
ATOM      9  C   UNL     1       1.273   1.919  -0.638  0.00  0.00    +0.026 A 
ATOM     10  C   UNL     1       2.404   1.384  -0.037  0.00  0.00    +0.073 A 
ATOM     11  C   UNL     1       2.344   0.129   0.556  0.00  0.00    +0.179 A 
ATOM     12  C   UNL     1       1.157  -0.584   0.545  0.00  0.00    +0.160 A 
ATOM     13  C   UNL     1       0.031  -0.045  -0.056  0.00  0.00    +0.041 A 
ATOM     14  F   UNL     1       1.096  -1.804   1.121  0.00  0.00    -0.202 F 
ATOM     15  F   UNL     1       3.443  -0.396   1.142  0.00  0.00    -0.201 F 
ENDBRANCH   2  10
ENDBRANCH   1   5
BRANCH   1  16
ATOM     16  C   UNL     1       6.118   6.121  -0.449  0.00  0.00    -0.030 A 
ATOM     17  C   UNL     1       6.824   6.442   0.696  0.00  0.00    +0.007 A 
ATOM     18  C   UNL     1       8.117   6.920   0.602  0.00  0.00    +0.023 A 
ATOM     19  C   UNL     1       8.708   7.077  -0.646  0.00  0.00    +0.034 A 
ATOM     20  C   UNL     1       7.996   6.753  -1.794  0.00  0.00    +0.023 A 
ATOM     21  C   UNL     1       6.706   6.271  -1.692  0.00  0.00    +0.007 A 
BRANCH  19  22
ATOM     22  N   UNL     1      10.016   7.560  -0.745  0.00  0.00    -0.279 N 
ATOM     23  C   UNL     1      10.364   8.354  -1.777  0.00  0.00    +0.284 C 
ATOM     24  O   UNL     1       9.566   8.581  -2.667  0.00  0.00    -0.266 OA
ATOM     25  H   UNL     1      10.673   7.324  -0.072  0.00  0.00    +0.155 HD
BRANCH  23  26
ATOM     26  C   UNL     1      11.705   8.944  -1.827  0.00  0.00    +0.189 A 
ATOM     27  C   UNL     1      12.184   9.767  -2.807  0.00  0.00    +0.054 A 
ATOM     28  C   UNL     1      13.502  10.092  -2.453  0.00  0.00    +0.042 A 
ATOM     29  C   UNL     1      13.768   9.462  -1.287  0.00  0.00    +0.196 A 
ATOM     30  O   UNL     1      12.681   8.776  -0.911  0.00  0.00    -0.458 OA
ENDBRANCH  23  26
ENDBRANCH  19  22
ENDBRANCH   1  16
TORSDOF 5
