REMARK  Name = ZINC08707203
REMARK  7 active torsions:
REMARK  status: ('A' for Active; 'I' for Inactive)
REMARK    1  A    between atoms: C_1  and  C_2
REMARK    2  A    between atoms: C_2  and  C_25
REMARK    3  A    between atoms: N_5  and  C_9
REMARK    4  A    between atoms: C_9  and  C_10
REMARK    5  A    between atoms: C_18  and  C_20
REMARK    6  A    between atoms: C_28  and  O_31
REMARK    7  A    between atoms: O_31  and  C_32
REMARK                            x       y       z     vdW  Elec       q    Type
REMARK                         _______ _______ _______ _____ _____    ______ ____
ROOT
ATOM      1  C   UNL     1      -5.726  -1.366   0.555  0.00  0.00    +0.047 C 
ATOM      2  C   UNL     1      -4.518  -1.215  -0.372  0.00  0.00    +0.135 C 
ATOM      3  C   UNL     1      -3.788  -2.535  -0.516  0.00  0.00    +0.251 C 
ATOM      4  O   UNL     1      -4.229  -3.570  -0.970  0.00  0.00    -0.272 OA
ATOM      5  N   UNL     1      -2.548  -2.320  -0.035  0.00  0.00    -0.215 N 
ATOM      6  C   UNL     1      -2.394  -1.061   0.389  0.00  0.00    +0.310 C 
ATOM      7  O   UNL     1      -1.362  -0.629   0.864  0.00  0.00    -0.252 OA
ATOM      8  N   UNL     1      -3.510  -0.326   0.230  0.00  0.00    -0.281 N 
ATOM      9  H   UNL     1      -3.627   0.608   0.466  0.00  0.00    +0.152 HD
ENDROOT
BRANCH   2  10
ATOM     10  C   UNL     1      -4.946  -0.695  -1.721  0.00  0.00    -0.015 A 
ATOM     11  C   UNL     1      -5.232  -1.581  -2.743  0.00  0.00    +0.010 A 
ATOM     12  C   UNL     1      -5.630  -1.107  -3.978  0.00  0.00    +0.046 A 
ATOM     13  C   UNL     1      -5.730   0.259  -4.196  0.00  0.00    +0.120 A 
ATOM     14  C   UNL     1      -5.436   1.146  -3.171  0.00  0.00    +0.046 A 
ATOM     15  C   UNL     1      -5.045   0.667  -1.936  0.00  0.00    +0.010 A 
BRANCH  13  16
ATOM     16  O   UNL     1      -6.114   0.728  -5.412  0.00  0.00    -0.495 OA
ATOM     17  C   UNL     1      -6.401  -0.244  -6.421  0.00  0.00    +0.277 C 
ENDBRANCH  13  16
ENDBRANCH   2  10
BRANCH   5  18
ATOM     18  C   UNL     1      -1.497  -3.340   0.017  0.00  0.00    +0.213 C 
BRANCH  18  19
ATOM     19  C   UNL     1      -0.700  -3.305  -1.262  0.00  0.00    +0.234 C 
ATOM     20  O   UNL     1      -0.982  -2.508  -2.131  0.00  0.00    -0.274 OA
ATOM     21  N   UNL     1       0.326  -4.161  -1.440  0.00  0.00    -0.297 N 
ATOM     22  C   UNL     1       0.683  -5.129  -0.393  0.00  0.00    +0.127 C 
ATOM     23  C   UNL     1       0.666  -6.538  -1.009  0.00  0.00    +0.127 C 
ATOM     24  N   UNL     1       1.452  -6.516  -2.250  0.00  0.00    -0.294 N 
ATOM     25  C   UNL     1       1.099  -5.545  -3.295  0.00  0.00    +0.127 C 
ATOM     26  C   UNL     1       1.111  -4.139  -2.682  0.00  0.00    +0.127 C 
ATOM     27  C   UNL     1       2.479  -7.371  -2.428  0.00  0.00    +0.253 C 
ATOM     28  O   UNL     1       3.049  -7.422  -3.502  0.00  0.00    -0.269 OA
BRANCH  27  29
ATOM     29  C   UNL     1       2.908  -8.239  -1.328  0.00  0.00    +0.074 A 
ATOM     30  C   UNL     1       3.465  -9.507  -1.382  0.00  0.00    +0.021 A 
ATOM     31  C   UNL     1       3.782 -10.102  -0.186  0.00  0.00    +0.008 A 
ATOM     32  C   UNL     1       3.530  -9.439   0.973  0.00  0.00    +0.046 A 
ATOM     33  S   UNL     1       2.842  -7.942   0.430  0.00  0.00    -0.092 S 
ENDBRANCH  27  29
ENDBRANCH  18  19
ENDBRANCH   5  18
TORSDOF 5
