REMARK  Name = ZINC13644917
REMARK  3 active torsions:
REMARK  status: ('A' for Active; 'I' for Inactive)
REMARK    1  A    between atoms: C_4  and  C_7
REMARK    2  A    between atoms: N_15  and  C_18
REMARK    3  A    between atoms: N_26  and  C_27
REMARK                            x       y       z     vdW  Elec       q    Type
REMARK                         _______ _______ _______ _____ _____    ______ ____
ROOT
ATOM      1  C   UNL     1       3.711  -0.707  -0.038  0.00  0.00    +0.157 C 
ATOM      2  C   UNL     1       4.047  -1.238   1.350  0.00  0.00    +0.145 C 
ATOM      3  C   UNL     1       4.842  -2.518   0.887  0.00  0.00    +0.249 C 
ATOM      4  C   UNL     1       5.576  -2.855   2.091  0.00  0.00    +0.259 C 
ATOM      5  O   UNL     1       5.880  -3.962   2.482  0.00  0.00    -0.272 OA
ATOM      6  N   UNL     1       5.853  -1.656   2.694  0.00  0.00    -0.208 N 
ATOM      7  C   UNL     1       5.131  -0.606   2.166  0.00  0.00    +0.235 C 
ATOM      8  O   UNL     1       5.331   0.580   2.320  0.00  0.00    -0.274 OA
ATOM      9  O   UNL     1       4.006  -3.076  -0.039  0.00  0.00    -0.257 OA
ATOM     10  N   UNL     1       3.612  -1.940  -0.872  0.00  0.00    -0.244 N 
ENDROOT
BRANCH   6  11
ATOM     11  C   UNL     1       6.765  -1.510   3.749  0.00  0.00    +0.044 A 
ATOM     12  C   UNL     1       6.985  -0.259   4.310  0.00  0.00    +0.027 A 
ATOM     13  C   UNL     1       7.884  -0.117   5.349  0.00  0.00    +0.040 A 
ATOM     14  C   UNL     1       8.566  -1.221   5.831  0.00  0.00    +0.124 A 
ATOM     15  C   UNL     1       8.349  -2.470   5.272  0.00  0.00    +0.040 A 
ATOM     16  C   UNL     1       7.446  -2.616   4.237  0.00  0.00    +0.027 A 
ATOM     17  F   UNL     1       9.446  -1.080   6.846  0.00  0.00    -0.205 F 
ENDBRANCH   6  11
BRANCH   1  21
ATOM     18  C   UNL     1      -0.017   1.378   0.010  0.00  0.00    +0.000 A 
ATOM     19  C   UNL     1       1.171   2.086   0.002  0.00  0.00    +0.000 A 
ATOM     20  C   UNL     1       2.377   1.411  -0.013  0.00  0.00    +0.006 A 
ATOM     21  C   UNL     1       2.396   0.029  -0.020  0.00  0.00    -0.022 A 
ATOM     22  C   UNL     1       1.208  -0.679  -0.012  0.00  0.00    +0.006 A 
ATOM     23  C   UNL     1       0.002  -0.004   0.002  0.00  0.00    +0.000 A 
ENDBRANCH   1  21
BRANCH  10  24
ATOM     24  C   UNL     1       3.206  -1.997  -2.207  0.00  0.00    +0.065 A 
ATOM     25  C   UNL     1       2.853  -0.832  -2.877  0.00  0.00    +0.028 A 
ATOM     26  C   UNL     1       2.452  -0.892  -4.198  0.00  0.00    +0.002 A 
ATOM     27  C   UNL     1       2.401  -2.109  -4.852  0.00  0.00    +0.000 A 
ATOM     28  C   UNL     1       2.751  -3.270  -4.188  0.00  0.00    +0.002 A 
ATOM     29  C   UNL     1       3.159  -3.217  -2.869  0.00  0.00    +0.028 A 
ENDBRANCH  10  24
TORSDOF 3
