REMARK  Name = ZINC06188048
REMARK  5 active torsions:
REMARK  status: ('A' for Active; 'I' for Inactive)
REMARK    1  A    between atoms: C_1  and  C_2
REMARK    2  A    between atoms: C_7  and  C_24
REMARK    3  A    between atoms: C_8  and  S_12
REMARK    4  A    between atoms: S_12  and  C_13
REMARK    5  A    between atoms: N_17  and  C_18
REMARK                            x       y       z     vdW  Elec       q    Type
REMARK                         _______ _______ _______ _____ _____    ______ ____
ROOT
ATOM      1  C   UNL     1      -0.018   1.503   0.010  0.00  0.00    +0.044 C 
ATOM      2  C   UNL     1       0.002  -0.004   0.002  0.00  0.00    -0.048 A 
ATOM      3  C   UNL     1       0.006  -0.683  -1.214  0.00  0.00    +0.004 A 
ATOM      4  C   UNL     1       0.024  -2.045  -1.254  0.00  0.00    +0.010 A 
ATOM      5  C   UNL     1       0.040  -2.774  -0.056  0.00  0.00    +0.001 A 
ATOM      6  C   UNL     1       0.060  -4.184  -0.057  0.00  0.00    +0.016 A 
ATOM      7  C   UNL     1       0.075  -4.831   1.142  0.00  0.00    -0.018 A 
ATOM      8  C   UNL     1       0.071  -4.093   2.334  0.00  0.00    +0.108 A 
ATOM      9  N   UNL     1       0.052  -2.775   2.329  0.00  0.00    -0.240 NA
ATOM     10  C   UNL     1       0.037  -2.086   1.182  0.00  0.00    +0.073 A 
ATOM     11  C   UNL     1       0.022  -0.680   1.183  0.00  0.00    +0.031 A 
ATOM     12  C   UNL     1       0.096  -6.337   1.186  0.00  0.00    +0.046 C 
ENDROOT
BRANCH   8  13
ATOM     13  S   UNL     1       0.090  -4.947   3.875  0.00  0.00    -0.028 S 
BRANCH  13  14
ATOM     14  C   UNL     1       0.079  -3.658   5.077  0.00  0.00    +0.220 A 
ATOM     15  N   UNL     1       0.054  -2.365   4.837  0.00  0.00    -0.101 NA
ATOM     16  N   UNL     1       0.052  -1.703   5.937  0.00  0.00    -0.022 NA
ATOM     17  N   UNL     1       0.075  -2.506   6.945  0.00  0.00    -0.038 NA
ATOM     18  N   UNL     1       0.087  -3.812   6.425  0.00  0.00    -0.187 N 
BRANCH  18  19
ATOM     19  C   UNL     1       0.107  -5.016   7.144  0.00  0.00    +0.070 A 
ATOM     20  C   UNL     1      -0.564  -6.129   6.657  0.00  0.00    +0.028 A 
ATOM     21  C   UNL     1      -0.543  -7.313   7.368  0.00  0.00    +0.002 A 
ATOM     22  C   UNL     1       0.147  -7.390   8.564  0.00  0.00    +0.000 A 
ATOM     23  C   UNL     1       0.816  -6.283   9.052  0.00  0.00    +0.002 A 
ATOM     24  C   UNL     1       0.804  -5.098   8.342  0.00  0.00    +0.028 A 
ENDBRANCH  18  19
ENDBRANCH  13  14
ENDBRANCH   8  13
TORSDOF 3
