REMARK  Name = ZINC24124708
REMARK  5 active torsions:
REMARK  status: ('A' for Active; 'I' for Inactive)
REMARK    1  A    between atoms: C_1  and  C_2
REMARK    2  A    between atoms: C_5  and  C_7
REMARK    3  A    between atoms: N_9  and  N_10
REMARK    4  A    between atoms: C_11  and  C_13
REMARK    5  A    between atoms: C_13  and  C_14
REMARK                            x       y       z     vdW  Elec       q    Type
REMARK                         _______ _______ _______ _____ _____    ______ ____
ROOT
ATOM      1  N   UNL     1      -0.011   0.966   0.007  0.00  0.00    -0.234 N 
ATOM      2  C   UNL     1       1.147   1.655   0.000  0.00  0.00    +0.229 C 
ATOM      3  O   UNL     1       1.130   2.868   0.007  0.00  0.00    -0.274 OA
ATOM      4  H   UNL     1       0.004  -0.134   0.006  0.00  0.00    +0.173 HD
ENDROOT
BRANCH   1   7
ATOM      5  C   UNL     1      -2.392   0.960   0.019  0.00  0.00    +0.295 C 
ATOM      6  O   UNL     1      -2.375  -0.257   0.012  0.00  0.00    -0.265 OA
ATOM      7  N   UNL     1      -1.234   1.650   0.017  0.00  0.00    -0.228 N 
ATOM      8  H   UNL     1      -1.249   2.750   0.023  0.00  0.00    +0.173 HD
BRANCH   5  13
ATOM      9  C   UNL     1      -5.726   4.696   0.054  0.00  0.00    +0.086 C 
ATOM     10  C   UNL     1      -5.137   3.308   0.044  0.00  0.00    +0.103 A 
ATOM     11  C   UNL     1      -5.841   2.155   0.042  0.00  0.00    +0.045 A 
ATOM     12  C   UNL     1      -4.911   1.103   0.026  0.00  0.00    +0.055 A 
ATOM     13  C   UNL     1      -3.672   1.676   0.029  0.00  0.00    +0.191 A 
ATOM     14  O   UNL     1      -3.830   3.016   0.036  0.00  0.00    -0.455 OA
ENDBRANCH   5  13
ENDBRANCH   1   7
BRANCH   2  15
ATOM     15  C   UNL     1       2.462   0.920  -0.017  0.00  0.00    +0.102 C 
BRANCH  15  16
ATOM     16  C   UNL     1       3.611   1.930  -0.022  0.00  0.00    +0.020 C 
ATOM     17  C   UNL     1       3.595   2.728   1.292  0.00  0.00    +0.028 C 
ATOM     18  C   UNL     1       4.935   3.512   1.399  0.00  0.00    +0.166 C 
ATOM     19  S   UNL     1       6.119   2.243   0.780  0.00  0.00    -0.031 S 
ATOM     20  O   UNL     1       6.625   1.506   1.885  0.00  0.00    -0.174 OA
ATOM     21  O   UNL     1       7.024   2.857  -0.125  0.00  0.00    -0.174 OA
ATOM     22  C   UNL     1       4.956   1.177  -0.166  0.00  0.00    +0.170 C 
ENDBRANCH  15  16
ENDBRANCH   2  15
TORSDOF 4
