REMARK  Name = ZINC10061032
REMARK  7 active torsions:
REMARK  status: ('A' for Active; 'I' for Inactive)
REMARK    1  A    between atoms: C_1  and  C_2
REMARK    2  A    between atoms: C_2  and  O_3
REMARK    3  A    between atoms: O_3  and  C_4
REMARK    4  A    between atoms: C_12  and  N_17
REMARK    5  A    between atoms: C_13  and  C_14
REMARK    6  A    between atoms: C_18  and  C_20
REMARK    7  A    between atoms: C_20  and  C_21
REMARK                            x       y       z     vdW  Elec       q    Type
REMARK                         _______ _______ _______ _____ _____    ______ ____
ROOT
ATOM      1  C   UNL     1       3.199   7.477   8.671  0.00  0.00    +0.403 C 
ATOM      2  O   UNL     1       3.555   8.566   9.076  0.00  0.00    -0.226 OA
ATOM      3  N   UNL     1       2.335   7.391   7.640  0.00  0.00    -0.262 N 
ATOM      4  C   UNL     1       1.808   8.597   6.984  0.00  0.00    +0.116 C 
ATOM      5  C   UNL     1       2.290   8.643   5.533  0.00  0.00    +0.056 C 
ATOM      6  C   UNL     1       2.060   7.284   4.884  0.00  0.00    -0.020 A 
ATOM      7  C   UNL     1       1.887   6.171   5.629  0.00  0.00    +0.013 A 
ATOM      8  S   UNL     1       1.663   4.866   4.455  0.00  0.00    -0.076 S 
ATOM      9  C   UNL     1       1.796   5.784   2.991  0.00  0.00    +0.084 A 
ATOM     10  C   UNL     1       2.016   7.076   3.446  0.00  0.00    +0.068 A 
ATOM     11  C   UNL     1       1.884   6.082   7.126  0.00  0.00    +0.153 C 
ENDROOT
BRANCH  10  12
ATOM     12  C   UNL     1       2.194   8.191   2.511  0.00  0.00    +0.244 C 
ATOM     13  O   UNL     1       1.229   8.828   2.132  0.00  0.00    -0.270 OA
ATOM     14  N   UNL     1       3.427   8.510   2.070  0.00  0.00    -0.325 N 
ATOM     15  H   UNL     1       4.197   8.003   2.372  0.00  0.00    +0.145 HD
ATOM     16  H   UNL     1       3.545   9.248   1.451  0.00  0.00    +0.145 HD
ENDBRANCH  10  12
BRANCH   9  17
ATOM     17  N   UNL     1       1.709   5.334   1.682  0.00  0.00    -0.279 N 
ATOM     18  C   UNL     1       1.495   4.028   1.430  0.00  0.00    +0.222 C 
ATOM     19  O   UNL     1       1.377   3.245   2.349  0.00  0.00    -0.275 OA
ATOM     20  H   UNL     1       1.803   5.960   0.947  0.00  0.00    +0.155 HD
BRANCH  18  21
ATOM     21  C   UNL     1       1.401   3.539   0.008  0.00  0.00    +0.138 C 
BRANCH  21  22
ATOM     22  C   UNL     1       1.159   2.052   0.002  0.00  0.00    -0.000 A 
ATOM     23  C   UNL     1      -0.017   1.379   0.010  0.00  0.00    +0.013 A 
ATOM     24  C   UNL     1       0.002  -0.004   0.002  0.00  0.00    +0.028 A 
ATOM     25  C   UNL     1       1.198  -0.645  -0.013  0.00  0.00    +0.078 A 
ATOM     26  S   UNL     1       2.348   0.720  -0.017  0.00  0.00    -0.081 S 
ATOM     27 CL   UNL     1       1.524  -2.350  -0.026  0.00  0.00    -0.076 Cl
ENDBRANCH  21  22
ENDBRANCH  18  21
ENDBRANCH   9  17
BRANCH   1  28
ATOM     28  O   UNL     1       3.666   6.356   9.253  0.00  0.00    -0.451 OA
BRANCH  28  30
ATOM     29  C   UNL     1       5.011   5.151  10.886  0.00  0.00    +0.048 C 
ATOM     30  C   UNL     1       4.593   6.524  10.358  0.00  0.00    +0.230 C 
ENDBRANCH  28  30
ENDBRANCH   1  28
TORSDOF 6
