REMARK  Name = ZINC06857158
REMARK  5 active torsions:
REMARK  status: ('A' for Active; 'I' for Inactive)
REMARK    1  A    between atoms: C_1  and  C_2
REMARK    2  A    between atoms: C_2  and  C_4
REMARK    3  A    between atoms: C_5  and  N_18
REMARK    4  A    between atoms: C_6  and  C_16
REMARK    5  A    between atoms: N_8  and  C_9
REMARK                            x       y       z     vdW  Elec       q    Type
REMARK                         _______ _______ _______ _____ _____    ______ ____
ROOT
ATOM      1  C   UNL     1      -0.222   1.232   2.516  0.00  0.00    +0.111 A 
ATOM      2  C   UNL     1       0.901   0.454   2.776  0.00  0.00    +0.071 A 
ATOM      3  C   UNL     1       1.024   0.377   4.187  0.00  0.00    +0.091 A 
ATOM      4  C   UNL     1      -0.021   1.097   4.732  0.00  0.00    +0.112 A 
ATOM      5  N   UNL     1      -0.767   1.609   3.736  0.00  0.00    -0.311 N 
ENDROOT
BRANCH   5   6
ATOM      6  C   UNL     1      -1.913   2.396   3.904  0.00  0.00    +0.047 A 
ATOM      7  C   UNL     1      -2.036   3.600   3.224  0.00  0.00    +0.027 A 
ATOM      8  C   UNL     1      -3.169   4.372   3.387  0.00  0.00    +0.022 A 
ATOM      9  C   UNL     1      -4.178   3.952   4.236  0.00  0.00    +0.041 A 
ATOM     10  C   UNL     1      -4.056   2.754   4.919  0.00  0.00    +0.022 A 
ATOM     11  C   UNL     1      -2.927   1.976   4.755  0.00  0.00    +0.027 A 
ATOM     12 CL   UNL     1      -5.598   4.928   4.444  0.00  0.00    -0.084 Cl
ENDBRANCH   5   6
BRANCH   1  14
ATOM     13  C   UNL     1      -0.013   1.086   0.008  0.00  0.00    +0.093 C 
ATOM     14  C   UNL     1      -0.718   1.572   1.248  0.00  0.00    +0.178 C 
ATOM     15  O   UNL     1      -1.717   2.258   1.150  0.00  0.00    -0.291 OA
ENDBRANCH   1  14
BRANCH   2  16
ATOM     16  N   UNL     1       1.738  -0.130   1.841  0.00  0.00    -0.355 N 
ATOM     17  H   UNL     1       1.563  -0.012   0.894  0.00  0.00    +0.142 HD
ATOM     18  H   UNL     1       2.498  -0.657   2.132  0.00  0.00    +0.142 HD
ENDBRANCH   2  16
BRANCH   3  19
ATOM     19  C   UNL     1       2.042  -0.321   4.913  0.00  0.00    +0.103 C 
ATOM     20  N   UNL     1       2.849  -0.876   5.489  0.00  0.00    -0.191 NA
ENDBRANCH   3  19
TORSDOF 4
