REMARK  Name = ZINC64623148
REMARK  6 active torsions:
REMARK  status: ('A' for Active; 'I' for Inactive)
REMARK    1  A    between atoms: C_1  and  O_2
REMARK    2  A    between atoms: O_2  and  C_3
REMARK    3  A    between atoms: C_7  and  N_9
REMARK    4  A    between atoms: C_18  and  O_34
REMARK    5  A    between atoms: C_25  and  C_27
REMARK    6  A    between atoms: O_34  and  C_35
REMARK                            x       y       z     vdW  Elec       q    Type
REMARK                         _______ _______ _______ _____ _____    ______ ____
ROOT
ATOM      1  N   UNL     1       1.384  -3.612   2.869  0.00  0.00    -0.269 N 
ATOM      2  C   UNL     1       2.168  -4.414   3.616  0.00  0.00    +0.307 C 
ATOM      3  O   UNL     1       2.881  -3.937   4.478  0.00  0.00    -0.252 OA
ATOM      4  N   UNL     1       2.162  -5.746   3.408  0.00  0.00    -0.276 N 
ATOM      5  C   UNL     1       1.412  -6.300   2.276  0.00  0.00    +0.114 C 
ATOM      6  C   UNL     1       2.365  -7.104   1.373  0.00  0.00    +0.052 C 
ATOM      7  C   UNL     1       3.205  -7.962   2.287  0.00  0.00    -0.035 C 
ATOM      8  C   UNL     1       3.456  -9.265   2.281  0.00  0.00    +0.003 A 
ATOM      9  C   UNL     1       3.102 -10.330   1.330  0.00  0.00    +0.055 A 
ATOM     10  C   UNL     1       3.510 -11.590   1.644  0.00  0.00    +0.121 A 
ATOM     11  C   UNL     1       4.232 -11.915   2.802  0.00  0.00    +0.047 A 
ATOM     12  C   UNL     1       4.616 -11.012   3.740  0.00  0.00    +0.029 A 
ATOM     13  C   UNL     1       4.241  -9.611   3.506  0.00  0.00    +0.043 A 
ATOM     14  N   UNL     1       4.486  -8.544   4.206  0.00  0.00    -0.375 N 
ATOM     15  C   UNL     1       3.947  -7.388   3.488  0.00  0.00    +0.131 C 
ATOM     16  C   UNL     1       2.913  -6.628   4.316  0.00  0.00    +0.134 C 
ATOM     17  H   UNL     1       0.759  -3.998   2.236  0.00  0.00    +0.156 HD
ATOM     18  H   UNL     1       4.948  -8.518   5.059  0.00  0.00    +0.160 HD
ENDROOT
BRANCH  16  19
ATOM     19  C   UNL     1       1.972  -7.605   4.972  0.00  0.00    -0.025 A 
ATOM     20  C   UNL     1       1.711  -7.510   6.327  0.00  0.00    +0.008 A 
ATOM     21  C   UNL     1       0.848  -8.405   6.930  0.00  0.00    +0.038 A 
ATOM     22  C   UNL     1       0.244  -9.397   6.177  0.00  0.00    +0.123 A 
ATOM     23  C   UNL     1       0.505  -9.492   4.820  0.00  0.00    +0.038 A 
ATOM     24  C   UNL     1       1.365  -8.592   4.218  0.00  0.00    +0.008 A 
ATOM     25  F   UNL     1      -0.600 -10.273   6.765  0.00  0.00    -0.205 F 
ENDBRANCH  16  19
BRANCH   1  30
ATOM     26  C   UNL     1       1.349  -0.024   2.050  0.00  0.00    +0.122 A 
ATOM     27  C   UNL     1       1.649   0.528   3.288  0.00  0.00    +0.046 A 
ATOM     28  C   UNL     1       1.859  -0.292   4.380  0.00  0.00    +0.005 A 
ATOM     29  C   UNL     1       1.772  -1.664   4.243  0.00  0.00    +0.023 A 
ATOM     30  C   UNL     1       1.472  -2.222   3.007  0.00  0.00    +0.038 A 
ATOM     31  C   UNL     1       1.255  -1.399   1.911  0.00  0.00    +0.069 A 
BRANCH  26  33
ATOM     32  C   UNL     1       1.254   2.192   1.194  0.00  0.00    +0.277 C 
ATOM     33  O   UNL     1       1.142   0.784   0.977  0.00  0.00    -0.495 OA
ENDBRANCH  26  33
ENDBRANCH   1  30
BRANCH  10  34
ATOM     34  O   UNL     1       3.198 -12.595   0.784  0.00  0.00    -0.495 OA
ATOM     35  C   UNL     1       3.636 -13.909   1.135  0.00  0.00    +0.277 C 
ENDBRANCH  10  34
TORSDOF 4
