REMARK  Name = ZINC29750221
REMARK  6 active torsions:
REMARK  status: ('A' for Active; 'I' for Inactive)
REMARK    1  A    between atoms: C_1  and  C_2
REMARK    2  A    between atoms: C_9  and  C_16
REMARK    3  A    between atoms: C_11  and  O_12
REMARK    4  A    between atoms: C_16  and  N_17
REMARK    5  A    between atoms: C_20  and  C_28
REMARK    6  A    between atoms: N_22  and  C_25
REMARK                            x       y       z     vdW  Elec       q    Type
REMARK                         _______ _______ _______ _____ _____    ______ ____
ROOT
ATOM      1  C   UNL     1      -0.615   1.507  -2.164  0.00  0.00    +0.109 C 
ATOM      2  C   UNL     1      -0.605   0.000  -2.168  0.00  0.00    +0.214 C 
ATOM      3  O   UNL     1      -1.143  -0.608  -3.068  0.00  0.00    -0.276 OA
ATOM      4  N   UNL     1       0.002  -0.672  -1.169  0.00  0.00    -0.286 N 
ATOM      5  C   UNL     1      -0.070  -2.064  -1.121  0.00  0.00    +0.037 A 
ATOM      6  C   UNL     1      -0.137  -2.712   0.112  0.00  0.00    +0.024 A 
ATOM      7  C   UNL     1      -0.213  -4.073   0.175  0.00  0.00    +0.014 A 
ATOM      8  C   UNL     1      -0.211  -4.825  -1.006  0.00  0.00    +0.023 A 
ATOM      9  C   UNL     1      -0.286  -6.287  -0.967  0.00  0.00    -0.010 A 
ATOM     10  C   UNL     1      -0.280  -6.961  -2.147  0.00  0.00    +0.093 A 
ATOM     11  C   UNL     1      -0.205  -6.248  -3.361  0.00  0.00    +0.285 A 
ATOM     12  O   UNL     1      -0.137  -4.908  -3.390  0.00  0.00    -0.425 OA
ATOM     13  C   UNL     1      -0.138  -4.178  -2.253  0.00  0.00    +0.141 A 
ATOM     14  C   UNL     1      -0.067  -2.794  -2.300  0.00  0.00    +0.070 A 
ATOM     15  H   UNL     1       0.554  -0.122  -0.393  0.00  0.00    +0.155 HD
ENDROOT
BRANCH  11  16
ATOM     16  O   UNL     1      -0.201  -6.865  -4.412  0.00  0.00    -0.480 OA
ATOM     17  H   UNL     1      -0.142  -6.323  -5.367  0.00  0.00    +0.295 HD
ENDBRANCH  11  16
BRANCH   9  18
ATOM     18  C   UNL     1      -0.366  -7.024   0.345  0.00  0.00    +0.166 C 
BRANCH  18  19
ATOM     19  N   UNL     1      -0.309  -8.467   0.099  0.00  0.00    -0.255 N 
ATOM     20  C   UNL     1      -1.453  -9.176   0.001  0.00  0.00    +0.274 A 
ATOM     21  O   UNL     1      -2.534  -8.631   0.116  0.00  0.00    -0.266 OA
ATOM     22  C   UNL     1      -1.363 -10.624  -0.251  0.00  0.00    +0.132 A 
ATOM     23  C   UNL     1      -0.109 -11.187  -0.366  0.00  0.00    +0.115 A 
ATOM     24  N   UNL     1       0.991 -10.395  -0.248  0.00  0.00    -0.296 N 
ATOM     25  C   UNL     1       0.883  -9.076  -0.023  0.00  0.00    +0.333 A 
ATOM     26  O   UNL     1       1.896  -8.411   0.073  0.00  0.00    -0.246 OA
BRANCH  24  27
ATOM     27  C   UNL     1       2.322 -10.994  -0.370  0.00  0.00    +0.092 C 
ATOM     28  C   UNL     1       2.401 -12.453  -0.825  0.00  0.00    +0.027 C 
ATOM     29  C   UNL     1       2.699 -12.088   0.630  0.00  0.00    +0.027 C 
ENDBRANCH  24  27
BRANCH  22  30
ATOM     30  C   UNL     1      -2.544 -11.425  -0.368  0.00  0.00    +0.106 C 
ATOM     31  N   UNL     1      -3.481 -12.061  -0.462  0.00  0.00    -0.191 NA
ENDBRANCH  22  30
ENDBRANCH  18  19
ENDBRANCH   9  18
TORSDOF 5
