REMARK  Name = ZINC41357331
REMARK  7 active torsions:
REMARK  status: ('A' for Active; 'I' for Inactive)
REMARK    1  A    between atoms: C_1  and  C_2
REMARK    2  A    between atoms: C_2  and  O_3
REMARK    3  A    between atoms: O_3  and  C_4
REMARK    4  A    between atoms: C_9  and  C_10
REMARK    5  A    between atoms: C_12  and  O_13
REMARK    6  A    between atoms: C_22  and  C_24
REMARK    7  A    between atoms: C_24  and  C_26
REMARK                            x       y       z     vdW  Elec       q    Type
REMARK                         _______ _______ _______ _____ _____    ______ ____
ROOT
ATOM      1  C   UNL     1       1.282  -1.304  -4.007  0.00  0.00    +0.143 A 
ATOM      2  C   UNL     1       1.375   0.038  -3.688  0.00  0.00    +0.093 A 
ATOM      3  C   UNL     1       2.233   0.863  -4.413  0.00  0.00    +0.131 A 
ATOM      4  C   UNL     1       2.991   0.288  -5.466  0.00  0.00    +0.059 A 
ATOM      5  C   UNL     1       3.871   1.072  -6.228  0.00  0.00    +0.017 A 
ATOM      6  C   UNL     1       4.589   0.504  -7.233  0.00  0.00    +0.024 A 
ATOM      7  C   UNL     1       4.455  -0.866  -7.515  0.00  0.00    +0.037 A 
ATOM      8  C   UNL     1       3.583  -1.658  -6.765  0.00  0.00    +0.070 A 
ATOM      9  C   UNL     1       2.849  -1.088  -5.740  0.00  0.00    +0.141 A 
ATOM     10  O   UNL     1       2.006  -1.840  -5.001  0.00  0.00    -0.454 OA
ATOM     11  N   UNL     1       5.179  -1.424  -8.525  0.00  0.00    -0.284 N 
ATOM     12  C   UNL     1       6.216  -0.783  -9.025  0.00  0.00    +0.235 C 
ATOM     13  O   UNL     1       6.603   0.249  -8.505  0.00  0.00    -0.274 OA
ATOM     14  H   UNL     1       4.931  -2.294  -8.876  0.00  0.00    +0.155 HD
ENDROOT
BRANCH   1  20
ATOM     15  C   UNL     1       0.172  -3.501  -3.614  0.00  0.00    +0.131 A 
ATOM     16  C   UNL     1      -0.683  -4.305  -2.874  0.00  0.00    +0.046 A 
ATOM     17  C   UNL     1      -1.339  -3.790  -1.774  0.00  0.00    +0.004 A 
ATOM     18  C   UNL     1      -1.150  -2.469  -1.399  0.00  0.00    +0.001 A 
ATOM     19  C   UNL     1      -0.304  -1.655  -2.121  0.00  0.00    +0.015 A 
ATOM     20  C   UNL     1       0.371  -2.165  -3.234  0.00  0.00    +0.059 A 
BRANCH  15  21
ATOM     21  O   UNL     1       0.817  -4.006  -4.695  0.00  0.00    -0.492 OA
BRANCH  21  23
ATOM     22  C   UNL     1       1.374  -5.762  -6.260  0.00  0.00    +0.048 C 
ATOM     23  C   UNL     1       0.564  -5.375  -5.021  0.00  0.00    +0.226 C 
ENDBRANCH  21  23
ENDBRANCH  15  21
ENDBRANCH   1  20
BRANCH  12  24
ATOM     24  C   UNL     1       6.924  -1.326 -10.239  0.00  0.00    +0.163 C 
ATOM     25  C   UNL     1       8.437  -1.262 -10.019  0.00  0.00    +0.034 C 
ATOM     26 CL   UNL     1       6.484  -0.340 -11.683  0.00  0.00    -0.112 Cl
ENDBRANCH  12  24
BRANCH   3  27
ATOM     27  O   UNL     1       2.342   2.177  -4.120  0.00  0.00    -0.506 OA
ATOM     28  H   UNL     1       1.782   2.464  -3.385  0.00  0.00    +0.292 HD
ENDBRANCH   3  27
TORSDOF 5
