REMARK  Name = ZINC08299361
REMARK  6 active torsions:
REMARK  status: ('A' for Active; 'I' for Inactive)
REMARK    1  A    between atoms: C_1  and  S_2
REMARK    2  A    between atoms: S_2  and  C_3
REMARK    3  A    between atoms: C_6  and  C_9
REMARK    4  A    between atoms: C_19  and  N_27
REMARK    5  A    between atoms: N_30  and  C_31
REMARK    6  A    between atoms: C_31  and  C_32
REMARK                            x       y       z     vdW  Elec       q    Type
REMARK                         _______ _______ _______ _____ _____    ______ ____
ROOT
ATOM      1  C   UNL     1      -0.018   1.479   0.010  0.00  0.00    -0.017 A 
ATOM      2  C   UNL     1      -1.235   2.164   0.020  0.00  0.00    +0.010 A 
ATOM      3  C   UNL     1      -1.252   3.538   0.028  0.00  0.00    +0.024 A 
ATOM      4  C   UNL     1      -0.061   4.273   0.016  0.00  0.00    +0.046 A 
ATOM      5  C   UNL     1       1.158   3.594   0.010  0.00  0.00    +0.059 A 
ATOM      6  C   UNL     1       1.171   2.192   0.003  0.00  0.00    +0.023 A 
ATOM      7  C   UNL     1       2.458   4.283   0.019  0.00  0.00    +0.249 C 
ATOM      8  O   UNL     1       3.366   3.827  -0.648  0.00  0.00    -0.270 OA
ATOM      9  N   UNL     1       2.680   5.394   0.733  0.00  0.00    -0.284 N 
ATOM     10  C   UNL     1       3.940   6.154   0.793  0.00  0.00    +0.131 C 
ATOM     11  C   UNL     1       3.875   6.929   2.133  0.00  0.00    +0.094 C 
ATOM     12  C   UNL     1       2.369   7.295   2.209  0.00  0.00    +0.056 C 
ATOM     13  C   UNL     1       1.682   6.062   1.587  0.00  0.00    +0.164 C 
ATOM     14  C   UNL     1       0.549   6.516   0.704  0.00  0.00    +0.238 C 
ATOM     15  O   UNL     1       0.293   7.699   0.629  0.00  0.00    -0.273 OA
ATOM     16  N   UNL     1      -0.177   5.650   0.004  0.00  0.00    -0.283 N 
ATOM     17  H   UNL     1      -0.860   6.023  -0.575  0.00  0.00    +0.155 HD
ENDROOT
BRANCH   1  21
ATOM     18  C   UNL     1       0.040  -2.775  -0.014  0.00  0.00    +0.008 A 
ATOM     19  C   UNL     1      -1.175  -2.097   0.002  0.00  0.00    +0.015 A 
ATOM     20  C   UNL     1      -1.195  -0.718   0.010  0.00  0.00    +0.009 A 
ATOM     21  C   UNL     1       0.002  -0.004   0.002  0.00  0.00    -0.018 A 
ATOM     22  C   UNL     1       1.218  -0.685  -0.019  0.00  0.00    +0.009 A 
ATOM     23  C   UNL     1       1.235  -2.064  -0.021  0.00  0.00    +0.015 A 
BRANCH  18  25
ATOM     24  C   UNL     1       1.829  -4.951  -0.043  0.00  0.00    +0.090 C 
ATOM     25  S   UNL     1       0.064  -4.536  -0.024  0.00  0.00    -0.129 S 
ENDBRANCH  18  25
ENDBRANCH   1  21
BRANCH  11  26
ATOM     26  N   UNL     1       4.707   8.134   2.083  0.00  0.00    -0.295 N 
ATOM     27  C   UNL     1       5.984   8.090   2.510  0.00  0.00    +0.300 C 
ATOM     28  O   UNL     1       6.446   7.050   2.938  0.00  0.00    -0.253 OA
ATOM     29  N   UNL     1       6.749   9.198   2.464  0.00  0.00    -0.296 N 
ATOM     30  H   UNL     1       4.338   8.964   1.741  0.00  0.00    +0.151 HD
ATOM     31  H   UNL     1       6.380  10.028   2.123  0.00  0.00    +0.151 HD
BRANCH  29  32
ATOM     32  C   UNL     1       8.137   9.150   2.929  0.00  0.00    +0.132 C 
BRANCH  32  33
ATOM     33  C   UNL     1       8.767  10.510   2.772  0.00  0.00    -0.016 C 
ATOM     34  C   UNL     1       9.320  11.099   3.803  0.00  0.00    +0.005 C 
ENDBRANCH  32  33
ENDBRANCH  29  32
ENDBRANCH  11  26
TORSDOF 5
