REMARK  Name = ZINC35524734
REMARK  8 active torsions:
REMARK  status: ('A' for Active; 'I' for Inactive)
REMARK    1  A    between atoms: C_1  and  C_2
REMARK    2  A    between atoms: C_2  and  C_3
REMARK    3  A    between atoms: C_2  and  C_4
REMARK    4  A    between atoms: C_2  and  C_6
REMARK    5  A    between atoms: C_21  and  C_23
REMARK    6  A    between atoms: C_23  and  N_24
REMARK    7  A    between atoms: N_24  and  C_25
REMARK    8  A    between atoms: N_24  and  C_26
REMARK                            x       y       z     vdW  Elec       q    Type
REMARK                         _______ _______ _______ _____ _____    ______ ____
ROOT
ATOM      1  C   UNL     1       1.310  -1.040   0.743  0.00  0.00    +0.222 C 
ATOM      2  O   UNL     1       0.524  -0.128   0.601  0.00  0.00    -0.275 OA
ATOM      3  N   UNL     1       2.635  -0.795   0.740  0.00  0.00    -0.298 N 
ATOM      4  C   UNL     1       3.595  -1.870   1.025  0.00  0.00    +0.126 C 
ATOM      5  C   UNL     1       4.589  -1.961  -0.140  0.00  0.00    +0.125 C 
ATOM      6  N   UNL     1       5.099  -0.614  -0.428  0.00  0.00    -0.312 N 
ATOM      7  C   UNL     1       4.139   0.462  -0.713  0.00  0.00    +0.125 C 
ATOM      8  C   UNL     1       3.146   0.552   0.446  0.00  0.00    +0.126 C 
ATOM      9  C   UNL     1       6.459  -0.361  -0.431  0.00  0.00    +0.133 A 
ATOM     10  C   UNL     1       7.247  -0.669  -1.575  0.00  0.00    +0.051 A 
ATOM     11  C   UNL     1       6.825  -1.255  -2.848  0.00  0.00    -0.025 A 
ATOM     12  C   UNL     1       7.780  -1.447  -3.780  0.00  0.00    -0.004 A 
ATOM     13  S   UNL     1       9.279  -0.867  -3.032  0.00  0.00    -0.073 S 
ATOM     14  C   UNL     1       8.619  -0.368  -1.463  0.00  0.00    +0.114 A 
ATOM     15  N   UNL     1       9.122   0.161  -0.365  0.00  0.00    -0.227 NA
ATOM     16  C   UNL     1       8.341   0.423   0.665  0.00  0.00    +0.116 A 
ATOM     17  N   UNL     1       7.044   0.174   0.628  0.00  0.00    -0.219 NA
ATOM     18  C   UNL     1       7.608  -2.026  -5.151  0.00  0.00    +0.043 C 
ATOM     19  C   UNL     1       6.240  -2.721  -5.215  0.00  0.00    +0.005 C 
ATOM     20  C   UNL     1       5.182  -1.775  -4.639  0.00  0.00    +0.005 C 
ATOM     21  C   UNL     1       5.374  -1.639  -3.128  0.00  0.00    +0.037 C 
ENDROOT
BRANCH   1  23
ATOM     22  C   UNL     1       1.226  -2.970   2.298  0.00  0.00    +0.022 C 
ATOM     23  C   UNL     1       0.805  -2.449   0.923  0.00  0.00    +0.055 C 
ATOM     24  C   UNL     1       1.398  -3.346  -0.166  0.00  0.00    +0.022 C 
BRANCH  23  25
ATOM     25  C   UNL     1      -0.722  -2.460   0.818  0.00  0.00    +0.124 C 
ATOM     26 CL   UNL     1      -1.326  -4.146   1.032  0.00  0.00    -0.124 Cl
ENDBRANCH  23  25
ENDBRANCH   1  23
BRANCH  16  27
ATOM     27  C   UNL     1       8.940   1.028   1.909  0.00  0.00    -0.002 C 
BRANCH  27  28
ATOM     28  N   UNL     1       8.899   2.493   1.811  0.00  0.00    +0.381 N 
ATOM     29  C   UNL     1       9.371   3.082   3.071  0.00  0.00    -0.096 C 
ATOM     30  C   UNL     1       9.764   2.934   0.709  0.00  0.00    -0.096 C 
ATOM     31  H   UNL     1       7.951   2.791   1.635  0.00  0.00    -0.082 HD
ENDBRANCH  27  28
ENDBRANCH  16  27
TORSDOF 4
