REMARK  Name = ZINC36597138
REMARK  13 active torsions:
REMARK  status: ('A' for Active; 'I' for Inactive)
REMARK    1  A    between atoms: C_1  and  C_2
REMARK    2  A    between atoms: C_5  and  C_7
REMARK    3  A    between atoms: C_7  and  N_8
REMARK    4  A    between atoms: N_8  and  C_9
REMARK    5  A    between atoms: C_9  and  C_11
REMARK    6  A    between atoms: C_9  and  C_18
REMARK    7  A    between atoms: C_14  and  O_17
REMARK    8  A    between atoms: N_20  and  C_21
REMARK    9  A    between atoms: C_21  and  C_22
REMARK   10  A    between atoms: C_21  and  C_23
REMARK   11  A    between atoms: C_21  and  C_24
REMARK   12  A    between atoms: C_25  and  C_27
REMARK   13  A    between atoms: C_30  and  O_33
REMARK                            x       y       z     vdW  Elec       q    Type
REMARK                         _______ _______ _______ _____ _____    ______ ____
ROOT
ATOM      1  N   UNL     1       2.900  -2.674  -1.377  0.00  0.00    -0.275 N 
ATOM      2  C   UNL     1       1.703  -2.168  -1.020  0.00  0.00    +0.248 C 
ATOM      3  O   UNL     1       1.436  -2.011   0.156  0.00  0.00    -0.270 OA
ENDROOT
BRANCH   2   4
ATOM      4  C   UNL     1       0.717  -1.803  -2.056  0.00  0.00    +0.037 A 
ATOM      5  C   UNL     1       0.852  -2.298  -3.356  0.00  0.00    +0.016 A 
ATOM      6  C   UNL     1      -0.070  -1.956  -4.320  0.00  0.00    +0.046 A 
ATOM      7  C   UNL     1      -1.134  -1.120  -4.001  0.00  0.00    +0.117 A 
ATOM      8  C   UNL     1      -1.272  -0.626  -2.709  0.00  0.00    +0.046 A 
ATOM      9  C   UNL     1      -0.357  -0.968  -1.738  0.00  0.00    +0.016 A 
BRANCH   7  10
ATOM     10  O   UNL     1      -2.040  -0.784  -4.954  0.00  0.00    -0.507 OA
ATOM     11  H   UNL     1      -2.791  -1.391  -5.013  0.00  0.00    +0.292 HD
ENDBRANCH   7  10
ENDBRANCH   2   4
BRANCH   1  12
ATOM     12  C   UNL     1       3.801  -3.214  -0.356  0.00  0.00    +0.183 C 
BRANCH  12  17
ATOM     13  C   UNL     1       2.026  -7.813   0.709  0.00  0.00    +0.086 C 
ATOM     14  C   UNL     1       2.894  -6.714   0.154  0.00  0.00    +0.102 A 
ATOM     15  C   UNL     1       3.998  -6.886  -0.596  0.00  0.00    +0.045 A 
ATOM     16  C   UNL     1       4.496  -5.597  -0.894  0.00  0.00    +0.046 A 
ATOM     17  C   UNL     1       3.667  -4.714  -0.309  0.00  0.00    +0.122 A 
ATOM     18  O   UNL     1       2.695  -5.396   0.320  0.00  0.00    -0.463 OA
ENDBRANCH  12  17
ENDBRANCH   1  12
BRANCH   1  19
ATOM     19  C   UNL     1       3.300  -2.685  -2.787  0.00  0.00    +0.193 C 
BRANCH  19  20
ATOM     20  C   UNL     1       2.841  -1.411  -3.449  0.00  0.00    -0.018 A 
ATOM     21  C   UNL     1       2.409  -0.349  -2.676  0.00  0.00    +0.009 A 
ATOM     22  C   UNL     1       1.988   0.820  -3.281  0.00  0.00    +0.046 A 
ATOM     23  C   UNL     1       1.997   0.926  -4.664  0.00  0.00    +0.117 A 
ATOM     24  C   UNL     1       2.431  -0.141  -5.437  0.00  0.00    +0.046 A 
ATOM     25  C   UNL     1       2.856  -1.306  -4.827  0.00  0.00    +0.009 A 
BRANCH  23  26
ATOM     26  O   UNL     1       1.582   2.074  -5.261  0.00  0.00    -0.507 OA
ATOM     27  H   UNL     1       2.287   2.720  -5.404  0.00  0.00    +0.292 HD
ENDBRANCH  23  26
ENDBRANCH  19  20
BRANCH  19  28
ATOM     28  C   UNL     1       4.800  -2.788  -2.882  0.00  0.00    +0.239 C 
ATOM     29  O   UNL     1       5.415  -3.454  -2.076  0.00  0.00    -0.273 OA
ATOM     30  N   UNL     1       5.459  -2.140  -3.863  0.00  0.00    -0.309 N 
ATOM     31  H   UNL     1       4.975  -1.559  -4.471  0.00  0.00    +0.149 HD
BRANCH  30  32
ATOM     32  C   UNL     1       6.906  -2.314  -4.013  0.00  0.00    +0.026 C 
ATOM     33  C   UNL     1       7.215  -3.781  -4.314  0.00  0.00    +0.031 C 
ATOM     34  C   UNL     1       7.408  -1.440  -5.164  0.00  0.00    +0.031 C 
ATOM     35  C   UNL     1       7.606  -1.901  -2.716  0.00  0.00    +0.031 C 
ENDBRANCH  30  32
ENDBRANCH  19  28
ENDBRANCH   1  19
TORSDOF 9
