REMARK  Name = ZINC49243243
REMARK  5 active torsions:
REMARK  status: ('A' for Active; 'I' for Inactive)
REMARK    1  A    between atoms: C_1  and  C_2
REMARK    2  A    between atoms: C_7  and  N_10
REMARK    3  A    between atoms: N_13  and  C_14
REMARK    4  A    between atoms: N_13  and  C_15
REMARK    5  A    between atoms: C_15  and  C_16
REMARK                            x       y       z     vdW  Elec       q    Type
REMARK                         _______ _______ _______ _____ _____    ______ ____
ROOT
ATOM      1  N   UNL     1       1.471  -2.526   2.420  0.00  0.00    -0.296 N 
ATOM      2  C   UNL     1       2.056  -3.740   2.406  0.00  0.00    +0.302 C 
ATOM      3  O   UNL     1       1.996  -4.433   1.409  0.00  0.00    -0.253 OA
ATOM      4  N   UNL     1       2.708  -4.187   3.498  0.00  0.00    -0.284 N 
ATOM      5  C   UNL     1       2.781  -3.352   4.700  0.00  0.00    +0.134 C 
ATOM      6  H   UNL     1       1.520  -1.974   3.216  0.00  0.00    +0.151 HD
ENDROOT
BRANCH   1  12
ATOM      7  C   UNL     1      -0.019   1.526   0.010  0.00  0.00    +0.007 C 
ATOM      8  C   UNL     1       0.002  -0.004   0.002  0.00  0.00    -0.012 C 
ATOM      9  C   UNL     1      -1.433  -0.534   0.013  0.00  0.00    +0.003 C 
ATOM     10  C   UNL     1      -1.413  -2.063   0.004  0.00  0.00    +0.002 C 
ATOM     11  C   UNL     1      -0.673  -2.570   1.244  0.00  0.00    +0.022 C 
ATOM     12  C   UNL     1       0.763  -2.041   1.233  0.00  0.00    +0.075 C 
ATOM     13  C   UNL     1       0.742  -0.511   1.242  0.00  0.00    +0.025 C 
ENDBRANCH   1  12
BRANCH   4  14
ATOM     14  C   UNL     1       3.344  -5.506   3.483  0.00  0.00    +0.151 C 
BRANCH  14  15
ATOM     15  C   UNL     1       4.765  -5.374   2.999  0.00  0.00    +0.008 A 
ATOM     16  C   UNL     1       5.894  -5.159   3.716  0.00  0.00    +0.014 A 
ATOM     17  C   UNL     1       7.104  -5.071   3.053  0.00  0.00    +0.023 A 
ATOM     18  C   UNL     1       7.124  -5.202   1.703  0.00  0.00    +0.055 A 
ATOM     19  S   UNL     1       5.398  -5.466   1.332  0.00  0.00    -0.085 S 
ATOM     20 BR   UNL     1       8.599  -5.131   0.522  0.00  0.00    -0.043 Br
ENDBRANCH  14  15
ENDBRANCH   4  14
TORSDOF 3
