REMARK  Name = ZINC07524805
REMARK  15 active torsions:
REMARK  status: ('A' for Active; 'I' for Inactive)
REMARK    1  A    between atoms: C_1  and  C_2
REMARK    2  A    between atoms: C_4  and  C_30
REMARK    3  A    between atoms: C_5  and  N_9
REMARK    4  A    between atoms: C_6  and  C_8
REMARK    5  A    between atoms: C_10  and  C_12
REMARK    6  A    between atoms: C_12  and  N_60
REMARK    7  A    between atoms: C_13  and  N_60
REMARK    8  A    between atoms: C_14  and  C_16
REMARK    9  A    between atoms: C_14  and  C_17
REMARK   10  A    between atoms: C_14  and  N_60
REMARK   11  A    between atoms: C_17  and  C_19
REMARK   12  A    between atoms: C_20  and  C_29
REMARK   13  A    between atoms: C_21  and  C_26
REMARK   14  A    between atoms: C_22  and  C_25
REMARK   15  A    between atoms: C_26  and  C_28
REMARK                            x       y       z     vdW  Elec       q    Type
REMARK                         _______ _______ _______ _____ _____    ______ ____
ROOT
ATOM      1  C   UNL     1      -5.914   2.929  -1.544  0.00  0.00    -0.095 C 
ATOM      2  N   UNL     1      -5.916   1.941  -0.444  0.00  0.00    +0.390 N 
ATOM      3  H   UNL     1      -5.880   2.440   0.452  0.00  0.00    -0.081 HD
ENDROOT
BRANCH   2   4
ATOM      4  C   UNL     1      -7.152   1.132  -0.494  0.00  0.00    +0.003 C 
ATOM      5  C   UNL     1      -7.163   0.170   0.695  0.00  0.00    -0.005 C 
BRANCH   4   6
ATOM      6  C   UNL     1      -8.343   2.051  -0.408  0.00  0.00    +0.166 C 
ATOM      7  O   UNL     1      -8.195   3.206  -0.062  0.00  0.00    -0.292 OA
BRANCH   6   8
ATOM      8  C   UNL     1      -9.634   1.568  -0.729  0.00  0.00    +0.084 A 
ATOM      9  C   UNL     1     -10.802   2.297  -0.693  0.00  0.00    -0.012 A 
ATOM     10  C   UNL     1     -11.841   1.424  -1.087  0.00  0.00    +0.041 A 
ATOM     11  C   UNL     1     -11.261   0.192  -1.350  0.00  0.00    +0.024 A 
ATOM     12  N   UNL     1      -9.941   0.286  -1.139  0.00  0.00    -0.355 N 
ATOM     13  H   UNL     1      -9.302  -0.434  -1.255  0.00  0.00    +0.166 HD
ATOM     14  C   UNL     1     -11.993  -1.046  -1.803  0.00  0.00    +0.064 C 
ATOM     15  C   UNL     1     -10.945   3.747  -0.307  0.00  0.00    +0.047 C 
BRANCH  10  16
ATOM     16  C   UNL     1     -13.265   1.758  -1.198  0.00  0.00    +0.162 C 
ATOM     17  O   UNL     1     -13.981   1.693  -0.221  0.00  0.00    -0.292 OA
ATOM     18  C   UNL     1     -13.839   2.182  -2.526  0.00  0.00    +0.091 C 
ENDBRANCH  10  16
ENDBRANCH   6   8
ENDBRANCH   4   6
ENDBRANCH   2   4
BRANCH   2  19
ATOM     19  C   UNL     1      -4.732   1.063  -0.552  0.00  0.00    +0.019 C 
BRANCH  19  21
ATOM     20  N   UNL     1      -2.282   1.291  -0.301  0.00  0.00    -0.287 N 
ATOM     21  C   UNL     1      -3.495   1.878  -0.278  0.00  0.00    +0.201 C 
ATOM     22  O   UNL     1      -3.590   3.063  -0.038  0.00  0.00    -0.278 OA
ATOM     23  H   UNL     1      -2.210   0.330  -0.412  0.00  0.00    +0.155 HD
BRANCH  20  28
ATOM     24  C   UNL     1       2.411   4.429   0.265  0.00  0.00    +0.044 C 
ATOM     25  C   UNL     1       1.163   3.598   0.113  0.00  0.00    -0.050 A 
ATOM     26  C   UNL     1       0.184   3.637   1.089  0.00  0.00    +0.008 A 
ATOM     27  C   UNL     1      -0.960   2.877   0.954  0.00  0.00    -0.029 A 
ATOM     28  C   UNL     1      -1.126   2.067  -0.163  0.00  0.00    +0.039 A 
ATOM     29  C   UNL     1      -0.145   2.035  -1.145  0.00  0.00    -0.029 A 
ATOM     30  C   UNL     1       0.998   2.797  -1.003  0.00  0.00    +0.008 A 
ATOM     31  C   UNL     1      -0.323   1.163  -2.361  0.00  0.00    +0.045 C 
ATOM     32  C   UNL     1      -2.025   2.920   2.019  0.00  0.00    +0.045 C 
ENDBRANCH  20  28
ENDBRANCH  19  21
ENDBRANCH   2  19
TORSDOF 7
