REMARK  Name = ZINC08976508
REMARK  4 active torsions:
REMARK  status: ('A' for Active; 'I' for Inactive)
REMARK    1  A    between atoms: C_3  and  S_8
REMARK    2  A    between atoms: S_8  and  N_11
REMARK    3  A    between atoms: C_14  and  C_17
REMARK    4  A    between atoms: N_19  and  C_20
REMARK                            x       y       z     vdW  Elec       q    Type
REMARK                         _______ _______ _______ _____ _____    ______ ____
ROOT
ATOM      1  N   UNL     1       1.366   2.019  -0.000  0.00  0.00    -0.177 NA
ATOM      2  C   UNL     1      -0.019   1.528   0.010  0.00  0.00    +0.110 C 
ATOM      3  C   UNL     1       0.002  -0.004   0.002  0.00  0.00    +0.030 C 
ATOM      4  C   UNL     1       0.834  -0.492  -1.186  0.00  0.00    +0.078 C 
ATOM      5  C   UNL     1       2.272   0.009  -1.045  0.00  0.00    +0.030 C 
ATOM      6  C   UNL     1       2.277   1.541  -1.048  0.00  0.00    +0.110 C 
ENDROOT
BRANCH   4   7
ATOM      7  C   UNL     1       0.828  -1.999  -1.218  0.00  0.00    +0.223 C 
ATOM      8  O   UNL     1       0.219  -2.621  -0.373  0.00  0.00    -0.275 OA
ATOM      9  N   UNL     1       1.500  -2.656  -2.184  0.00  0.00    -0.254 N 
ATOM     10  H   UNL     1       1.986  -2.158  -2.860  0.00  0.00    +0.158 HD
BRANCH   9  11
ATOM     11  C   UNL     1       1.495  -4.043  -2.213  0.00  0.00    +0.227 A 
ATOM     12  C   UNL     1       2.119  -4.843  -3.116  0.00  0.00    +0.037 A 
ATOM     13  C   UNL     1       1.802  -6.151  -2.701  0.00  0.00    +0.089 A 
ATOM     14  N   UNL     1       1.054  -6.028  -1.641  0.00  0.00    -0.081 NA
ATOM     15  O   UNL     1       0.876  -4.867  -1.350  0.00  0.00    -0.339 OA
ATOM     16  C   UNL     1       2.448  -7.141  -3.641  0.00  0.00    +0.059 C 
ATOM     17  C   UNL     1       2.818  -6.329  -4.901  0.00  0.00    +0.011 C 
ATOM     18  C   UNL     1       2.987  -4.897  -4.346  0.00  0.00    +0.042 C 
ENDBRANCH   9  11
ENDBRANCH   4   7
BRANCH   1  19
ATOM     19  S   UNL     1       1.889   3.092   1.148  0.00  0.00    +0.061 S 
ATOM     20  O   UNL     1       2.997   3.781   0.585  0.00  0.00    -0.153 OA
ATOM     21  O   UNL     1       0.735   3.768   1.628  0.00  0.00    -0.153 OA
BRANCH  19  24
ATOM     22  C   UNL     1       4.344   1.042   3.580  0.00  0.00    +0.040 A 
ATOM     23  C   UNL     1       3.850   1.783   2.523  0.00  0.00    +0.031 A 
ATOM     24  C   UNL     1       2.517   2.147   2.496  0.00  0.00    +0.106 A 
ATOM     25  C   UNL     1       1.677   1.775   3.529  0.00  0.00    +0.031 A 
ATOM     26  C   UNL     1       2.167   1.029   4.585  0.00  0.00    +0.040 A 
ATOM     27  C   UNL     1       3.502   0.664   4.612  0.00  0.00    +0.124 A 
ATOM     28  F   UNL     1       3.983  -0.060   5.646  0.00  0.00    -0.205 F 
ENDBRANCH  19  24
ENDBRANCH   1  19
TORSDOF 4
