REMARK  Name = ZINC39909132
REMARK  5 active torsions:
REMARK  status: ('A' for Active; 'I' for Inactive)
REMARK    1  A    between atoms: C_4  and  N_27
REMARK    2  A    between atoms: C_5  and  C_7
REMARK    3  A    between atoms: N_9  and  C_10
REMARK    4  A    between atoms: N_9  and  C_19
REMARK    5  A    between atoms: C_10  and  C_11
REMARK                            x       y       z     vdW  Elec       q    Type
REMARK                         _______ _______ _______ _____ _____    ______ ____
ROOT
ATOM      1  C   UNL     1       1.304  -2.138   0.038  0.00  0.00    +0.249 C 
ATOM      2  O   UNL     1       1.274  -0.923   0.009  0.00  0.00    -0.270 OA
ATOM      3  N   UNL     1       0.156  -2.838   0.129  0.00  0.00    -0.288 N 
ENDROOT
BRANCH   3   4
ATOM      4  C   UNL     1      -1.132  -2.143   0.070  0.00  0.00    +0.099 C 
ATOM      5  C   UNL     1      -1.268  -1.216   1.289  0.00  0.00    +0.047 C 
ATOM      6  C   UNL     1      -2.479  -0.270   1.046  0.00  0.00    +0.168 C 
ATOM      7  S   UNL     1      -2.247   0.121  -0.740  0.00  0.00    -0.029 S 
ATOM      8  O   UNL     1      -1.476   1.310  -0.856  0.00  0.00    -0.174 OA
ATOM      9  O   UNL     1      -3.503   0.035  -1.399  0.00  0.00    -0.174 OA
ATOM     10  C   UNL     1      -1.210  -1.314  -1.234  0.00  0.00    +0.188 C 
ENDBRANCH   3   4
BRANCH   1  15
ATOM     11  C   UNL     1       4.105  -4.328  -1.173  0.00  0.00    +0.001 A 
ATOM     12  C   UNL     1       5.026  -4.177  -0.152  0.00  0.00    +0.002 A 
ATOM     13  C   UNL     1       4.740  -3.364   0.931  0.00  0.00    +0.033 A 
ATOM     14  C   UNL     1       3.533  -2.699   0.998  0.00  0.00    +0.138 A 
ATOM     15  C   UNL     1       2.600  -2.847  -0.028  0.00  0.00    +0.067 A 
ATOM     16  C   UNL     1       2.894  -3.669  -1.118  0.00  0.00    +0.015 A 
BRANCH  14  17
ATOM     17  N   UNL     1       3.229  -1.830   2.158  0.00  0.00    +0.057 N 
ATOM     18  O   UNL     1       3.999  -1.771   3.087  0.00  0.00    -0.126 OA
ATOM     19  O   UNL     1       2.210  -1.180   2.175  0.00  0.00    -0.126 OA
ENDBRANCH  14  17
ENDBRANCH   1  15
BRANCH   3  20
ATOM     20  C   UNL     1       0.197  -4.294   0.287  0.00  0.00    +0.145 C 
BRANCH  20  21
ATOM     21  C   UNL     1       0.230  -4.639   1.754  0.00  0.00    -0.012 A 
ATOM     22  C   UNL     1       1.429  -4.963   2.361  0.00  0.00    +0.008 A 
ATOM     23  C   UNL     1       1.459  -5.280   3.706  0.00  0.00    +0.020 A 
ATOM     24  C   UNL     1       0.290  -5.273   4.446  0.00  0.00    +0.042 A 
ATOM     25  C   UNL     1      -0.910  -4.948   3.839  0.00  0.00    +0.040 A 
ATOM     26  C   UNL     1      -0.939  -4.626   2.494  0.00  0.00    +0.047 A 
ATOM     27 CL   UNL     1      -2.444  -4.213   1.732  0.00  0.00    -0.083 Cl
ATOM     28 CL   UNL     1       0.329  -5.671   6.135  0.00  0.00    -0.083 Cl
ENDBRANCH  20  21
ENDBRANCH   3  20
TORSDOF 5
