REMARK  Name = ZINC60740933
REMARK  4 active torsions:
REMARK  status: ('A' for Active; 'I' for Inactive)
REMARK    1  A    between atoms: C_4  and  C_7
REMARK    2  A    between atoms: C_12  and  O_13
REMARK    3  A    between atoms: O_13  and  C_14
REMARK    4  A    between atoms: C_14  and  C_16
REMARK                            x       y       z     vdW  Elec       q    Type
REMARK                         _______ _______ _______ _____ _____    ______ ____
ROOT
ATOM      1  C   UNL     1       2.942  -1.354   2.942  0.00  0.00    +0.361 C 
ATOM      2  O   UNL     1       3.668  -0.392   3.102  0.00  0.00    -0.243 OA
ENDROOT
BRANCH   1   3
ATOM      3  C   UNL     1       2.006  -1.754   4.006  0.00  0.00    +0.128 A 
ATOM      4  C   UNL     1       1.966  -1.031   5.154  0.00  0.00    +0.041 A 
ATOM      5  C   UNL     1       1.040  -1.421   6.217  0.00  0.00    -0.011 A 
ATOM      6  C   UNL     1       0.958  -0.712   7.417  0.00  0.00    +0.009 A 
ATOM      7  C   UNL     1       0.068  -1.120   8.387  0.00  0.00    +0.001 A 
ATOM      8  C   UNL     1      -0.746  -2.226   8.182  0.00  0.00    +0.001 A 
ATOM      9  C   UNL     1      -0.681  -2.940   7.005  0.00  0.00    +0.014 A 
ATOM     10  C   UNL     1       0.210  -2.547   6.010  0.00  0.00    +0.046 A 
ATOM     11  C   UNL     1       0.318  -3.273   4.736  0.00  0.00    +0.257 A 
ATOM     12  O   UNL     1      -0.381  -4.247   4.524  0.00  0.00    -0.267 OA
ATOM     13  N   UNL     1       1.193  -2.849   3.803  0.00  0.00    -0.316 N 
ATOM     14  H   UNL     1       1.255  -3.331   2.964  0.00  0.00    +0.169 HD
ENDBRANCH   1   3
BRANCH   1  15
ATOM     15  O   UNL     1       2.995  -2.054   1.792  0.00  0.00    -0.421 OA
BRANCH  15  21
ATOM     16  C   UNL     1       3.690  -0.703  -0.051  0.00  0.00    +0.025 A 
ATOM     17  C   UNL     1       4.671  -0.357  -0.978  0.00  0.00    +0.012 A 
ATOM     18  C   UNL     1       5.883  -1.017  -0.976  0.00  0.00    +0.001 A 
ATOM     19  C   UNL     1       6.129  -2.021  -0.056  0.00  0.00    +0.004 A 
ATOM     20  C   UNL     1       5.163  -2.372   0.868  0.00  0.00    +0.047 A 
ATOM     21  C   UNL     1       3.943  -1.714   0.881  0.00  0.00    +0.140 A 
BRANCH  16  25
ATOM     22  C   UNL     1      -0.049   1.321  -0.045  0.00  0.00    +0.000 A 
ATOM     23  C   UNL     1       1.128   2.048  -0.056  0.00  0.00    +0.001 A 
ATOM     24  C   UNL     1       2.344   1.396  -0.058  0.00  0.00    +0.008 A 
ATOM     25  C   UNL     1       2.386   0.003  -0.049  0.00  0.00    -0.014 A 
ATOM     26  C   UNL     1       1.197  -0.724  -0.037  0.00  0.00    +0.008 A 
ATOM     27  C   UNL     1      -0.014  -0.062  -0.036  0.00  0.00    +0.001 A 
ENDBRANCH  16  25
ENDBRANCH  15  21
ENDBRANCH   1  15
TORSDOF 4
