REMARK  Name = ZINC49153783
REMARK  7 active torsions:
REMARK  status: ('A' for Active; 'I' for Inactive)
REMARK    1  A    between atoms: C_1  and  C_2
REMARK    2  A    between atoms: C_4  and  C_19
REMARK    3  A    between atoms: C_5  and  C_9
REMARK    4  A    between atoms: C_6  and  C_8
REMARK    5  A    between atoms: C_9  and  N_10
REMARK    6  A    between atoms: C_13  and  C_17
REMARK    7  A    between atoms: C_13  and  C_18
REMARK                            x       y       z     vdW  Elec       q    Type
REMARK                         _______ _______ _______ _____ _____    ______ ____
ROOT
ATOM      1  C   UNL     1       0.059  -4.275  -0.021  0.00  0.00    +0.153 C 
ENDROOT
BRANCH   1   2
ATOM      2  N   UNL     1       1.447  -4.746  -0.032  0.00  0.00    -0.220 N 
ATOM      3  C   UNL     1       2.159  -4.978  -1.152  0.00  0.00    +0.246 C 
ATOM      4  O   UNL     1       1.787  -4.842  -2.298  0.00  0.00    -0.273 OA
ATOM      5  C   UNL     1       3.523  -5.443  -0.681  0.00  0.00    +0.107 C 
ATOM      6  N   UNL     1       3.410  -5.417   0.787  0.00  0.00    -0.285 N 
ATOM      7  C   UNL     1       2.165  -4.993   1.070  0.00  0.00    +0.310 C 
ATOM      8  O   UNL     1       1.739  -4.852   2.200  0.00  0.00    -0.252 OA
ATOM      9  C   UNL     1       3.807  -6.864  -1.174  0.00  0.00    +0.041 C 
ATOM     10  C   UNL     1       4.614  -4.480  -1.154  0.00  0.00    +0.041 C 
ATOM     11  H   UNL     1       4.099  -5.656   1.426  0.00  0.00    +0.151 HD
ENDBRANCH   1   2
BRANCH   1  16
ATOM     12  C   UNL     1      -0.018   1.503   0.010  0.00  0.00    +0.044 C 
ATOM     13  C   UNL     1       0.002  -0.004   0.002  0.00  0.00    -0.050 A 
ATOM     14  C   UNL     1       0.006  -0.689  -1.199  0.00  0.00    +0.007 A 
ATOM     15  C   UNL     1       0.025  -2.071  -1.206  0.00  0.00    -0.045 A 
ATOM     16  C   UNL     1       0.040  -2.768  -0.013  0.00  0.00    -0.024 A 
ATOM     17  C   UNL     1       0.037  -2.084   1.188  0.00  0.00    -0.045 A 
ATOM     18  C   UNL     1       0.023  -0.702   1.195  0.00  0.00    +0.007 A 
ATOM     19  C   UNL     1       0.054  -2.844   2.489  0.00  0.00    +0.044 C 
ATOM     20  C   UNL     1       0.027  -2.817  -2.516  0.00  0.00    +0.044 C 
ENDBRANCH   1  16
TORSDOF 2
