REMARK  Name = ZINC06840767
REMARK  5 active torsions:
REMARK  status: ('A' for Active; 'I' for Inactive)
REMARK    1  A    between atoms: C_1  and  C_2
REMARK    2  A    between atoms: C_5  and  C_8
REMARK    3  A    between atoms: N_11  and  N_12
REMARK    4  A    between atoms: N_12  and  C_13
REMARK    5  A    between atoms: C_18  and  C_19
REMARK                            x       y       z     vdW  Elec       q    Type
REMARK                         _______ _______ _______ _____ _____    ______ ____
ROOT
ATOM      1  C   UNL     1       0.058  -4.250  -0.021  0.00  0.00    +0.141 C 
ATOM      2  C   UNL     1       0.068  -5.017   1.088  0.00  0.00    +0.083 C 
ATOM      3  C   UNL     1       0.086  -6.417   0.628  0.00  0.00    +0.169 C 
ATOM      4  N   UNL     1       0.099  -7.511   1.364  0.00  0.00    -0.175 NA
ATOM      5  C   UNL     1       0.084  -6.317  -0.844  0.00  0.00    +0.365 C 
ATOM      6  O   UNL     1       0.094  -7.240  -1.636  0.00  0.00    -0.243 OA
ATOM      7  O   UNL     1       0.062  -5.004  -1.139  0.00  0.00    -0.421 OA
ENDROOT
BRANCH   1  12
ATOM      8  C   UNL     1      -0.018   1.503   0.010  0.00  0.00    +0.044 C 
ATOM      9  C   UNL     1       0.002  -0.004   0.002  0.00  0.00    -0.050 A 
ATOM     10  C   UNL     1       0.006  -0.686  -1.202  0.00  0.00    +0.004 A 
ATOM     11  C   UNL     1       0.024  -2.065  -1.217  0.00  0.00    +0.012 A 
ATOM     12  C   UNL     1       0.039  -2.773  -0.013  0.00  0.00    +0.017 A 
ATOM     13  C   UNL     1       0.036  -2.078   1.198  0.00  0.00    +0.012 A 
ATOM     14  C   UNL     1       0.023  -0.699   1.198  0.00  0.00    +0.004 A 
ENDBRANCH   1  12
BRANCH   4  15
ATOM     15  N   UNL     1       0.114  -8.670   0.797  0.00  0.00    -0.237 N 
ATOM     16  H   UNL     1       0.115  -8.737  -0.170  0.00  0.00    +0.174 HD
BRANCH  15  17
ATOM     17  C   UNL     1       0.128  -9.827   1.576  0.00  0.00    +0.051 A 
ATOM     18  C   UNL     1       0.121  -9.733   2.963  0.00  0.00    +0.025 A 
ATOM     19  C   UNL     1       0.135 -10.881   3.731  0.00  0.00    +0.002 A 
ATOM     20  C   UNL     1       0.156 -12.123   3.121  0.00  0.00    +0.000 A 
ATOM     21  C   UNL     1       0.164 -12.220   1.742  0.00  0.00    +0.005 A 
ATOM     22  C   UNL     1       0.143 -11.076   0.967  0.00  0.00    -0.028 A 
ATOM     23  C   UNL     1       0.145 -11.183  -0.536  0.00  0.00    +0.046 C 
ENDBRANCH  15  17
ENDBRANCH   4  15
TORSDOF 3
