REMARK  Name = ZINC33256007
REMARK  9 active torsions:
REMARK  status: ('A' for Active; 'I' for Inactive)
REMARK    1  A    between atoms: C_1  and  C_2
REMARK    2  A    between atoms: N_5  and  C_8
REMARK    3  A    between atoms: C_17  and  C_21
REMARK    4  A    between atoms: N_19  and  C_20
REMARK    5  A    between atoms: C_23  and  C_26
REMARK    6  A    between atoms: C_29  and  O_34
REMARK    7  A    between atoms: C_30  and  O_32
REMARK    8  A    between atoms: O_32  and  C_33
REMARK    9  A    between atoms: O_34  and  C_35
REMARK                            x       y       z     vdW  Elec       q    Type
REMARK                         _______ _______ _______ _____ _____    ______ ____
ROOT
ATOM      1  C   UNL     1      -4.719  -8.538  -0.004  0.00  0.00    +0.067 A 
ATOM      2  C   UNL     1      -5.406  -7.335   0.009  0.00  0.00    +0.052 A 
ATOM      3  C   UNL     1      -4.702  -6.137   0.009  0.00  0.00    +0.054 A 
ATOM      4  C   UNL     1      -3.295  -6.167  -0.004  0.00  0.00    +0.049 A 
ATOM      5  C   UNL     1      -2.616  -7.388  -0.016  0.00  0.00    +0.054 A 
ATOM      6  C   UNL     1      -3.322  -8.557  -0.016  0.00  0.00    +0.145 A 
ATOM      7  F   UNL     1      -2.666  -9.738  -0.028  0.00  0.00    -0.204 F 
ATOM      8  C   UNL     1      -2.563  -4.890  -0.003  0.00  0.00    +0.202 A 
ATOM      9  O   UNL     1      -1.344  -4.857  -0.014  0.00  0.00    -0.286 OA
ATOM     10  C   UNL     1      -3.362  -3.655   0.012  0.00  0.00    +0.103 A 
ATOM     11  C   UNL     1      -4.736  -3.749   0.029  0.00  0.00    +0.103 A 
ATOM     12  N   UNL     1      -5.371  -4.932   0.022  0.00  0.00    -0.349 N 
ATOM     13  C   UNL     1      -6.836  -4.942   0.035  0.00  0.00    +0.149 C 
ENDROOT
BRANCH   1  18
ATOM     14  C   UNL     1      -7.100 -13.588   0.798  0.00  0.00    +0.007 C 
ATOM     15  C   UNL     1      -6.238 -12.335   0.963  0.00  0.00    -0.011 C 
ATOM     16  C   UNL     1      -7.141 -11.105   1.087  0.00  0.00    +0.022 C 
ATOM     17  C   UNL     1      -6.273  -9.849   1.191  0.00  0.00    +0.105 C 
ATOM     18  N   UNL     1      -5.426  -9.738  -0.003  0.00  0.00    -0.328 N 
ATOM     19  C   UNL     1      -4.517 -10.885  -0.118  0.00  0.00    +0.105 C 
ATOM     20  C   UNL     1      -5.332 -12.172  -0.261  0.00  0.00    +0.022 C 
ENDBRANCH   1  18
BRANCH  10  21
ATOM     21  C   UNL     1      -2.703  -2.337   0.013  0.00  0.00    +0.264 A 
ATOM     22  N   UNL     1      -1.401  -2.107  -0.002  0.00  0.00    -0.187 NA
ATOM     23  C   UNL     1      -1.272  -0.764   0.010  0.00  0.00    +0.202 A 
ATOM     24  N   UNL     1      -2.478  -0.256   0.023  0.00  0.00    -0.056 NA
ATOM     25  O   UNL     1      -3.309  -1.139   0.025  0.00  0.00    -0.332 OA
BRANCH  23  26
ATOM     26  C   UNL     1       0.002  -0.004   0.002  0.00  0.00    +0.026 A 
ATOM     27  C   UNL     1       1.219  -0.682  -0.013  0.00  0.00    +0.015 A 
ATOM     28  C   UNL     1       2.404   0.025  -0.021  0.00  0.00    +0.050 A 
ATOM     29  C   UNL     1       2.386   1.412  -0.013  0.00  0.00    +0.162 A 
ATOM     30  C   UNL     1       1.173   2.095   0.002  0.00  0.00    +0.162 A 
ATOM     31  C   UNL     1      -0.017   1.389   0.010  0.00  0.00    +0.061 A 
BRANCH  30  32
ATOM     32  O   UNL     1       1.158   3.455   0.009  0.00  0.00    -0.491 OA
ATOM     33  C   UNL     1      -0.123   4.089   0.024  0.00  0.00    +0.277 C 
ENDBRANCH  30  32
BRANCH  29  34
ATOM     34  O   UNL     1       3.555   2.105  -0.021  0.00  0.00    -0.491 OA
ATOM     35  C   UNL     1       4.763   1.341  -0.038  0.00  0.00    +0.277 C 
ENDBRANCH  29  34
ENDBRANCH  23  26
ENDBRANCH  10  21
TORSDOF 5
