REMARK  Name = ZINC36769131
REMARK  6 active torsions:
REMARK  status: ('A' for Active; 'I' for Inactive)
REMARK    1  A    between atoms: C_1  and  C_2
REMARK    2  A    between atoms: C_2  and  C_3
REMARK    3  A    between atoms: N_6  and  S_10
REMARK    4  A    between atoms: S_10  and  C_13
REMARK    5  A    between atoms: C_15  and  N_21
REMARK    6  A    between atoms: C_16  and  C_20
REMARK                            x       y       z     vdW  Elec       q    Type
REMARK                         _______ _______ _______ _____ _____    ______ ____
ROOT
ATOM      1  S   UNL     1      -3.481  -3.603  -1.000  0.00  0.00    +0.061 S 
ATOM      2  O   UNL     1      -4.888  -3.452  -0.865  0.00  0.00    -0.153 OA
ATOM      3  O   UNL     1      -2.810  -3.411  -2.237  0.00  0.00    -0.153 OA
ENDROOT
BRANCH   1   4
ATOM      4  C   UNL     1      -3.097  -5.238  -0.466  0.00  0.00    +0.109 A 
ATOM      5  C   UNL     1      -1.945  -5.856  -0.913  0.00  0.00    +0.051 A 
ATOM      6  C   UNL     1      -1.642  -7.145  -0.492  0.00  0.00    +0.031 A 
ATOM      7  C   UNL     1      -2.499  -7.808   0.377  0.00  0.00    -0.011 A 
ATOM      8  C   UNL     1      -3.650  -7.184   0.820  0.00  0.00    +0.047 A 
ATOM      9  C   UNL     1      -3.945  -5.898   0.403  0.00  0.00    +0.049 A 
ATOM     10 CL   UNL     1      -4.722  -8.012   1.906  0.00  0.00    -0.083 Cl
ATOM     11  C   UNL     1      -2.174  -9.206   0.836  0.00  0.00    +0.047 C 
BRANCH   6  12
ATOM     12  N   UNL     1      -0.478  -7.772  -0.942  0.00  0.00    -0.358 N 
ATOM     13  H   UNL     1       0.119  -7.308  -1.550  0.00  0.00    +0.142 HD
ATOM     14  H   UNL     1      -0.268  -8.672  -0.648  0.00  0.00    +0.142 HD
ENDBRANCH   6  12
ENDBRANCH   1   4
BRANCH   1  17
ATOM     15  C   UNL     1      -1.433  -0.534   0.013  0.00  0.00    +0.134 C 
ATOM     16  C   UNL     1      -1.417  -2.061  -0.119  0.00  0.00    +0.141 C 
ATOM     17  N   UNL     1      -2.787  -2.559   0.082  0.00  0.00    -0.172 NA
ATOM     18  C   UNL     1      -3.521  -2.102   1.272  0.00  0.00    +0.137 C 
ATOM     19  C   UNL     1      -3.435  -0.573   1.336  0.00  0.00    +0.177 C 
ATOM     20  O   UNL     1      -2.066  -0.173   1.243  0.00  0.00    -0.374 OA
BRANCH  15  22
ATOM     21  C   UNL     1      -0.019   1.526   0.010  0.00  0.00    +0.006 C 
ATOM     22  C   UNL     1       0.002  -0.004   0.002  0.00  0.00    +0.029 C 
ENDBRANCH  15  22
ENDBRANCH   1  17
TORSDOF 4
