REMARK  Name = ZINC00300523
REMARK  4 active torsions:
REMARK  status: ('A' for Active; 'I' for Inactive)
REMARK    1  A    between atoms: C_1  and  C_2
REMARK    2  A    between atoms: C_7  and  N_48
REMARK    3  A    between atoms: N_12  and  S_15
REMARK    4  A    between atoms: S_15  and  C_18
REMARK                            x       y       z     vdW  Elec       q    Type
REMARK                         _______ _______ _______ _____ _____    ______ ____
ROOT
ATOM      1  C   UNL     1      -2.099   5.596   1.288  0.00  0.00    -0.061 C 
ATOM      2  C   UNL     1      -1.938   7.119   1.337  0.00  0.00    +0.091 C 
ATOM      3  N   UNL     1      -2.499   7.689   0.103  0.00  0.00    -0.180 NA
ATOM      4  C   UNL     1      -2.057   7.132  -1.184  0.00  0.00    +0.091 C 
ATOM      5  C   UNL     1      -2.214   5.608  -1.134  0.00  0.00    -0.061 C 
ATOM      6  N   UNL     1      -1.480   5.093   0.043  0.00  0.00    +0.383 N 
ATOM      7  H   UNL     1      -0.508   5.421  -0.002  0.00  0.00    -0.081 HD
ENDROOT
BRANCH   6  13
ATOM      8  C   UNL     1      -2.164   1.050   1.278  0.00  0.00    +0.007 C 
ATOM      9  C   UNL     1      -0.729   1.579   1.267  0.00  0.00    -0.016 C 
ATOM     10  C   UNL     1      -0.013   1.086   0.008  0.00  0.00    +0.003 C 
ATOM     11  C   UNL     1      -0.753   1.593  -1.232  0.00  0.00    -0.001 C 
ATOM     12  C   UNL     1      -0.773   3.123  -1.223  0.00  0.00    -0.015 C 
ATOM     13  C   UNL     1      -1.490   3.616   0.036  0.00  0.00    -0.068 C 
ATOM     14  C   UNL     1      -0.750   3.109   1.275  0.00  0.00    -0.012 C 
ENDBRANCH   6  13
BRANCH   3  15
ATOM     15  S   UNL     1      -3.598   8.926   0.161  0.00  0.00    +0.061 S 
ATOM     16  O   UNL     1      -3.398   9.589   1.401  0.00  0.00    -0.153 OA
ATOM     17  O   UNL     1      -3.515   9.602  -1.086  0.00  0.00    -0.153 OA
BRANCH  15  18
ATOM     18  C   UNL     1      -5.200   8.196   0.233  0.00  0.00    +0.105 A 
ATOM     19  C   UNL     1      -5.887   7.921  -0.935  0.00  0.00    +0.028 A 
ATOM     20  C   UNL     1      -7.142   7.343  -0.879  0.00  0.00    +0.002 A 
ATOM     21  C   UNL     1      -7.714   7.051   0.345  0.00  0.00    +0.000 A 
ATOM     22  C   UNL     1      -7.029   7.331   1.513  0.00  0.00    +0.002 A 
ATOM     23  C   UNL     1      -5.772   7.904   1.456  0.00  0.00    +0.028 A 
ENDBRANCH  15  18
ENDBRANCH   3  15
TORSDOF 3
