REMARK  Name = ZINC02414055
REMARK  11 active torsions:
REMARK  status: ('A' for Active; 'I' for Inactive)
REMARK    1  A    between atoms: C_1  and  C_2
REMARK    2  A    between atoms: C_2  and  C_3
REMARK    3  A    between atoms: C_3  and  C_24
REMARK    4  A    between atoms: C_10  and  N_16
REMARK    5  A    between atoms: C_12  and  S_14
REMARK    6  A    between atoms: S_14  and  C_15
REMARK    7  A    between atoms: N_16  and  C_17
REMARK    8  A    between atoms: C_17  and  C_18
REMARK    9  A    between atoms: C_18  and  N_19
REMARK   10  A    between atoms: N_19  and  C_20
REMARK   11  A    between atoms: N_19  and  C_21
REMARK                            x       y       z     vdW  Elec       q    Type
REMARK                         _______ _______ _______ _____ _____    ______ ____
ROOT
ATOM      1  C   UNL     1      -1.637  -0.442  -0.766  0.00  0.00    +0.071 C 
ATOM      2  C   UNL     1      -1.549  -1.950  -0.518  0.00  0.00    +0.071 C 
ATOM      3  C   UNL     1      -2.954  -2.465  -0.214  0.00  0.00    -0.020 A 
ATOM      4  C   UNL     1      -3.919  -1.587   0.150  0.00  0.00    +0.021 A 
ATOM      5  S   UNL     1      -5.372  -2.570   0.407  0.00  0.00    -0.071 S 
ATOM      6  C   UNL     1      -4.690  -4.152   0.026  0.00  0.00    +0.115 A 
ATOM      7  C   UNL     1      -3.338  -3.862  -0.292  0.00  0.00    +0.051 A 
ATOM      8  C   UNL     1      -2.509  -4.965  -0.650  0.00  0.00    +0.132 A 
ATOM      9  N   UNL     1      -3.095  -6.160  -0.650  0.00  0.00    -0.206 NA
ATOM     10  C   UNL     1      -4.368  -6.358  -0.341  0.00  0.00    +0.191 A 
ATOM     11  N   UNL     1      -5.196  -5.369   0.004  0.00  0.00    -0.215 NA
ATOM     12  C   UNL     1      -3.758  -0.106   0.298  0.00  0.00    +0.203 C 
ATOM     13  O   UNL     1      -2.353   0.191   0.299  0.00  0.00    -0.368 OA
ATOM     14  C   UNL     1      -2.366  -0.189  -2.087  0.00  0.00    +0.042 C 
ENDROOT
BRANCH   1  16
ATOM     15  C   UNL     1      -0.310   1.647  -1.109  0.00  0.00    +0.007 C 
ATOM     16  C   UNL     1      -0.225   0.143  -0.846  0.00  0.00    +0.032 C 
ENDBRANCH   1  16
BRANCH  10  17
ATOM     17  S   UNL     1      -4.998  -8.003  -0.386  0.00  0.00    -0.089 S 
ATOM     18  C   UNL     1      -6.737  -7.821   0.094  0.00  0.00    +0.093 C 
ENDBRANCH  10  17
BRANCH   8  19
ATOM     19  N   UNL     1      -1.176  -4.803  -0.980  0.00  0.00    -0.330 N 
ATOM     20  H   UNL     1      -0.757  -3.932  -0.894  0.00  0.00    +0.147 HD
BRANCH  19  21
ATOM     21  C   UNL     1      -0.396  -5.947  -1.460  0.00  0.00    +0.084 C 
BRANCH  21  22
ATOM     22  C   UNL     1       1.038  -5.500  -1.751  0.00  0.00    -0.061 C 
BRANCH  22  23
ATOM     23  N   UNL     1       1.820  -6.646  -2.232  0.00  0.00    +0.377 N 
ATOM     24  C   UNL     1       3.162  -6.194  -2.625  0.00  0.00    -0.097 C 
ATOM     25  C   UNL     1       1.935  -7.645  -1.161  0.00  0.00    -0.097 C 
ATOM     26  H   UNL     1       1.358  -7.058  -3.029  0.00  0.00    -0.083 HD
ENDBRANCH  22  23
ENDBRANCH  21  22
ENDBRANCH  19  21
ENDBRANCH   8  19
TORSDOF 6
