REMARK  Name = ZINC12617644
REMARK  12 active torsions:
REMARK  status: ('A' for Active; 'I' for Inactive)
REMARK    1  A    between atoms: C_1  and  C_2
REMARK    2  A    between atoms: C_7  and  C_33
REMARK    3  A    between atoms: C_10  and  C_12
REMARK    4  A    between atoms: C_12  and  C_14
REMARK    5  A    between atoms: C_12  and  S_15
REMARK    6  A    between atoms: S_15  and  C_16
REMARK    7  A    between atoms: C_19  and  C_28
REMARK    8  A    between atoms: N_20  and  C_21
REMARK    9  A    between atoms: C_28  and  C_30
REMARK   10  A    between atoms: C_28  and  N_62
REMARK   11  A    between atoms: C_31  and  N_62
REMARK   12  A    between atoms: C_32  and  N_62
REMARK                            x       y       z     vdW  Elec       q    Type
REMARK                         _______ _______ _______ _____ _____    ______ ____
ROOT
ATOM      1  C   UNL     1       0.158  -2.573  -5.821  0.00  0.00    +0.197 A 
ATOM      2  N   UNL     1       1.454  -2.788  -5.829  0.00  0.00    -0.122 NA
ATOM      3  N   UNL     1       1.800  -3.330  -6.941  0.00  0.00    -0.135 NA
ATOM      4  C   UNL     1       0.757  -3.494  -7.705  0.00  0.00    +0.125 A 
ATOM      5  N   UNL     1      -0.329  -3.022  -7.018  0.00  0.00    -0.275 N 
ENDROOT
BRANCH   5   6
ATOM      6  C   UNL     1      -1.663  -3.002  -7.451  0.00  0.00    +0.050 A 
ATOM      7  C   UNL     1      -2.340  -4.193  -7.676  0.00  0.00    +0.029 A 
ATOM      8  C   UNL     1      -3.654  -4.171  -8.098  0.00  0.00    +0.040 A 
ATOM      9  C   UNL     1      -4.295  -2.961  -8.307  0.00  0.00    +0.124 A 
ATOM     10  C   UNL     1      -3.620  -1.772  -8.089  0.00  0.00    +0.040 A 
ATOM     11  C   UNL     1      -2.307  -1.790  -7.662  0.00  0.00    +0.029 A 
ATOM     12  F   UNL     1      -5.580  -2.942  -8.726  0.00  0.00    -0.205 F 
ENDBRANCH   5   6
BRANCH   4  13
ATOM     13  C   UNL     1       0.748  -4.096  -9.087  0.00  0.00    -0.003 C 
ATOM     14  C   UNL     1       1.319  -3.088 -10.086  0.00  0.00    -0.005 C 
BRANCH  13  17
ATOM     15  C   UNL     1       1.488  -5.993 -10.396  0.00  0.00    -0.096 C 
ATOM     16  C   UNL     1       2.963  -5.011  -8.747  0.00  0.00    -0.096 C 
ATOM     17  N   UNL     1       1.558  -5.332  -9.077  0.00  0.00    +0.382 N 
ATOM     18  H   UNL     1       1.185  -5.969  -8.364  0.00  0.00    -0.082 HD
ENDBRANCH  13  17
ENDBRANCH   4  13
BRANCH   1  19
ATOM     19  S   UNL     1      -0.776  -1.851  -4.514  0.00  0.00    -0.073 S 
BRANCH  19  20
ATOM     20  C   UNL     1       0.545  -1.543  -3.316  0.00  0.00    +0.137 C 
ATOM     21  C   UNL     1       1.131  -2.877  -2.849  0.00  0.00    +0.029 C 
BRANCH  20  29
ATOM     22  C   UNL     1       2.613  -0.519  -2.626  0.00  0.00    +0.028 C 
ATOM     23  C   UNL     1       2.211  -0.519  -1.149  0.00  0.00    +0.073 C 
ATOM     24  C   UNL     1       2.683   0.781  -0.489  0.00  0.00    +0.022 C 
ATOM     25  C   UNL     1       2.158   0.838   0.948  0.00  0.00    +0.004 C 
ATOM     26  C   UNL     1       0.628   0.831   0.934  0.00  0.00    +0.022 C 
ATOM     27  C   UNL     1       0.133  -0.468   0.290  0.00  0.00    +0.073 C 
ATOM     28  N   UNL     1       0.748  -0.602  -1.037  0.00  0.00    -0.295 N 
ATOM     29  C   UNL     1      -0.014  -0.798  -2.131  0.00  0.00    +0.229 C 
ATOM     30  O   UNL     1      -1.150  -0.375  -2.162  0.00  0.00    -0.274 OA
ATOM     31  C   UNL     1      -1.390  -0.421   0.147  0.00  0.00    +0.028 C 
ENDBRANCH  20  29
ENDBRANCH  19  20
ENDBRANCH   1  19
TORSDOF 6
