REMARK  Name = ZINC14456432
REMARK  4 active torsions:
REMARK  status: ('A' for Active; 'I' for Inactive)
REMARK    1  A    between atoms: C_1  and  C_2
REMARK    2  A    between atoms: C_5  and  C_7
REMARK    3  A    between atoms: C_18  and  N_24
REMARK    4  A    between atoms: C_20  and  O_23
REMARK                            x       y       z     vdW  Elec       q    Type
REMARK                         _______ _______ _______ _____ _____    ______ ____
ROOT
ATOM      1  C   UNL     1       2.392  -2.679   0.554  0.00  0.00    +0.112 C 
ATOM      2  C   UNL     1       3.616  -2.186  -0.221  0.00  0.00    +0.029 C 
ATOM      3  C   UNL     1       4.884  -2.661   0.543  0.00  0.00    +0.033 C 
ATOM      4  C   UNL     1       5.052  -1.622   1.634  0.00  0.00    -0.030 C 
ATOM      5  C   UNL     1       4.428  -0.516   1.315  0.00  0.00    -0.023 C 
ATOM      6  C   UNL     1       3.749  -0.660  -0.028  0.00  0.00    +0.049 C 
ATOM      7  C   UNL     1       2.408   0.012  -0.018  0.00  0.00    -0.014 A 
ATOM      8  C   UNL     1       2.376   1.402  -0.012  0.00  0.00    +0.039 A 
ATOM      9  C   UNL     1       1.175   2.080   0.002  0.00  0.00    +0.130 A 
ATOM     10  C   UNL     1      -0.017   1.378   0.010  0.00  0.00    +0.080 A 
ATOM     11  C   UNL     1       0.002  -0.004   0.002  0.00  0.00    +0.140 A 
ATOM     12  C   UNL     1       1.219  -0.693  -0.012  0.00  0.00    +0.074 A 
ATOM     13  N   UNL     1       1.182  -2.090  -0.022  0.00  0.00    -0.333 N 
ATOM     14  H   UNL     1       0.356  -2.433   0.444  0.00  0.00    +0.147 HD
ENDROOT
BRANCH   1  19
ATOM     15  C   UNL     1       2.527  -0.253   5.671  0.00  0.00    +0.051 C 
ATOM     16  C   UNL     1       2.576  -1.113   4.435  0.00  0.00    -0.013 A 
ATOM     17  C   UNL     1       2.943  -2.413   4.313  0.00  0.00    +0.011 A 
ATOM     18  C   UNL     1       2.905  -3.006   3.066  0.00  0.00    +0.013 A 
ATOM     19  C   UNL     1       2.512  -2.269   1.999  0.00  0.00    +0.010 A 
ATOM     20  S   UNL     1       2.167  -0.687   2.750  0.00  0.00    -0.097 S 
ENDBRANCH   1  19
BRANCH   9  21
ATOM     21  N   UNL     1       1.162   3.560   0.008  0.00  0.00    +0.057 N 
ATOM     22  O   UNL     1       0.102   4.159   0.020  0.00  0.00    -0.126 OA
ATOM     23  O   UNL     1       2.211   4.179   0.002  0.00  0.00    -0.126 OA
ENDBRANCH   9  21
BRANCH  11  24
ATOM     24  O   UNL     1      -1.168  -0.697   0.009  0.00  0.00    -0.505 OA
ATOM     25  H   UNL     1      -1.514  -0.893  -0.873  0.00  0.00    +0.292 HD
ENDBRANCH  11  24
TORSDOF 3
