REMARK  Name = ZINC01051239
REMARK  6 active torsions:
REMARK  status: ('A' for Active; 'I' for Inactive)
REMARK    1  A    between atoms: C_4  and  C_7
REMARK    2  A    between atoms: N_9  and  N_10
REMARK    3  A    between atoms: N_10  and  C_11
REMARK    4  A    between atoms: N_16  and  C_19
REMARK    5  A    between atoms: C_22  and  O_25
REMARK    6  A    between atoms: O_25  and  C_26
REMARK                            x       y       z     vdW  Elec       q    Type
REMARK                         _______ _______ _______ _____ _____    ______ ____
ROOT
ATOM      1  C   UNL     1       4.695  -4.162  -0.061  0.00  0.00    +0.168 C 
ATOM      2  C   UNL     1       5.872  -4.904   0.605  0.00  0.00    +0.126 C 
ATOM      3  C   UNL     1       6.423  -5.768  -0.508  0.00  0.00    +0.228 C 
ATOM      4  O   UNL     1       7.367  -6.522  -0.410  0.00  0.00    -0.275 OA
ATOM      5  N   UNL     1       5.702  -5.569  -1.618  0.00  0.00    -0.209 N 
ATOM      6  C   UNL     1       4.700  -4.685  -1.481  0.00  0.00    +0.245 C 
ATOM      7  O   UNL     1       3.925  -4.357  -2.353  0.00  0.00    -0.273 OA
ENDROOT
BRANCH   5   8
ATOM      8  C   UNL     1       5.969  -6.231  -2.826  0.00  0.00    +0.044 A 
ATOM      9  C   UNL     1       5.110  -6.079  -3.906  0.00  0.00    +0.027 A 
ATOM     10  C   UNL     1       5.373  -6.730  -5.095  0.00  0.00    +0.048 A 
ATOM     11  C   UNL     1       6.496  -7.537  -5.210  0.00  0.00    +0.129 A 
ATOM     12  C   UNL     1       7.354  -7.690  -4.130  0.00  0.00    +0.048 A 
ATOM     13  C   UNL     1       7.095  -7.034  -2.943  0.00  0.00    +0.027 A 
BRANCH  11  14
ATOM     14  O   UNL     1       6.754  -8.179  -6.380  0.00  0.00    -0.456 OA
BRANCH  14  15
ATOM     15  C   UNL     1       5.949  -7.917  -7.442  0.00  0.00    +0.128 A 
ATOM     16  C   UNL     1       6.082  -6.724  -8.138  0.00  0.00    +0.046 A 
ATOM     17  C   UNL     1       5.263  -6.461  -9.218  0.00  0.00    +0.004 A 
ATOM     18  C   UNL     1       4.310  -7.385  -9.606  0.00  0.00    +0.000 A 
ATOM     19  C   UNL     1       4.174  -8.574  -8.914  0.00  0.00    +0.004 A 
ATOM     20  C   UNL     1       4.995  -8.845  -7.837  0.00  0.00    +0.046 A 
ENDBRANCH  14  15
ENDBRANCH  11  14
ENDBRANCH   5   8
BRANCH   1  21
ATOM     21  N   UNL     1       4.921  -2.711  -0.044  0.00  0.00    -0.228 NA
ATOM     22  H   UNL     1       5.498  -2.426  -0.822  0.00  0.00    +0.145 HD
BRANCH  21  25
ATOM     23  C   UNL     1       3.734  -0.683  -0.021  0.00  0.00    +0.258 C 
ATOM     24  O   UNL     1       4.785  -0.073  -0.013  0.00  0.00    -0.269 OA
ATOM     25  N   UNL     1       3.737  -2.031  -0.037  0.00  0.00    -0.246 N 
ATOM     26  H   UNL     1       2.898  -2.518  -0.043  0.00  0.00    +0.169 HD
BRANCH  23  30
ATOM     27  C   UNL     1       0.051   1.433   0.001  0.00  0.00    +0.000 A 
ATOM     28  C   UNL     1       1.246   2.130   0.011  0.00  0.00    +0.001 A 
ATOM     29  C   UNL     1       2.445   1.449   0.004  0.00  0.00    +0.013 A 
ATOM     30  C   UNL     1       2.452   0.053  -0.013  0.00  0.00    +0.038 A 
ATOM     31  C   UNL     1       1.243  -0.644  -0.022  0.00  0.00    +0.013 A 
ATOM     32  C   UNL     1       0.050   0.049  -0.015  0.00  0.00    +0.001 A 
ENDBRANCH  23  30
ENDBRANCH  21  25
ENDBRANCH   1  21
TORSDOF 6
