REMARK  Name = ZINC40015233
REMARK  4 active torsions:
REMARK  status: ('A' for Active; 'I' for Inactive)
REMARK    1  A    between atoms: C_1  and  C_2
REMARK    2  A    between atoms: C_2  and  C_3
REMARK    3  A    between atoms: C_6  and  C_9
REMARK    4  A    between atoms: C_27  and  C_30
REMARK                            x       y       z     vdW  Elec       q    Type
REMARK                         _______ _______ _______ _____ _____    ______ ____
ROOT
ATOM      1  C   UNL     1      -5.419  -2.005   0.043  0.00  0.00    +0.151 C 
ATOM      2  C   UNL     1      -6.381  -0.893  -0.216  0.00  0.00    +0.072 A 
ATOM      3  C   UNL     1      -6.658   0.339   0.529  0.00  0.00    +0.199 A 
ATOM      4  O   UNL     1      -5.967   0.729   1.454  0.00  0.00    -0.287 OA
ATOM      5  C   UNL     1      -7.861   1.066   0.051  0.00  0.00    +0.067 A 
ATOM      6  C   UNL     1      -8.371   2.142   0.777  0.00  0.00    +0.053 A 
ATOM      7  C   UNL     1      -9.492   2.803   0.321  0.00  0.00    +0.124 A 
ATOM      8  C   UNL     1     -10.108   2.395  -0.857  0.00  0.00    +0.042 A 
ATOM      9  C   UNL     1      -9.612   1.335  -1.582  0.00  0.00    +0.050 A 
ATOM     10  C   UNL     1      -8.478   0.653  -1.142  0.00  0.00    +0.140 A 
ATOM     11  O   UNL     1      -8.006  -0.379  -1.879  0.00  0.00    -0.450 OA
ATOM     12  C   UNL     1      -7.062  -1.190  -1.363  0.00  0.00    +0.199 A 
ATOM     13  C   UNL     1      -6.573  -2.484  -1.868  0.00  0.00    +0.289 C 
ATOM     14  O   UNL     1      -6.976  -3.036  -2.873  0.00  0.00    -0.266 OA
ATOM     15  N   UNL     1      -5.612  -2.969  -1.053  0.00  0.00    -0.235 N 
ATOM     16  C   UNL     1      -4.924  -4.169  -1.219  0.00  0.00    +0.172 A 
ATOM     17  C   UNL     1      -3.993  -4.726  -0.313  0.00  0.00    +0.091 A 
ATOM     18  C   UNL     1      -3.550  -5.886  -0.830  0.00  0.00    +0.136 A 
ATOM     19  O   UNL     1      -4.159  -6.077  -2.011  0.00  0.00    -0.358 OA
ATOM     20  N   UNL     1      -5.029  -4.983  -2.238  0.00  0.00    -0.063 NA
ATOM     21  C   UNL     1      -2.545  -6.810  -0.194  0.00  0.00    +0.089 C 
ATOM     22  F   UNL     1      -9.992   3.846   1.018  0.00  0.00    -0.205 F 
ENDROOT
BRANCH   1  26
ATOM     23  C   UNL     1      -1.412  -0.526   0.013  0.00  0.00    -0.048 A 
ATOM     24  C   UNL     1      -2.051  -0.766   1.215  0.00  0.00    +0.004 A 
ATOM     25  C   UNL     1      -3.348  -1.244   1.225  0.00  0.00    +0.006 A 
ATOM     26  C   UNL     1      -4.006  -1.482   0.032  0.00  0.00    -0.022 A 
ATOM     27  C   UNL     1      -3.367  -1.241  -1.170  0.00  0.00    +0.006 A 
ATOM     28  C   UNL     1      -2.072  -0.758  -1.179  0.00  0.00    +0.004 A 
BRANCH  23  30
ATOM     29  C   UNL     1      -0.019   1.526   0.010  0.00  0.00    +0.009 C 
ATOM     30  C   UNL     1       0.002  -0.004   0.002  0.00  0.00    +0.032 C 
ENDBRANCH  23  30
ENDBRANCH   1  26
TORSDOF 2
