REMARK  Name = ZINC38520179
REMARK  5 active torsions:
REMARK  status: ('A' for Active; 'I' for Inactive)
REMARK    1  A    between atoms: C_1  and  N_2
REMARK    2  A    between atoms: C_8  and  C_10
REMARK    3  A    between atoms: C_15  and  O_16
REMARK    4  A    between atoms: O_16  and  C_17
REMARK    5  A    between atoms: C_19  and  C_25
REMARK                            x       y       z     vdW  Elec       q    Type
REMARK                         _______ _______ _______ _____ _____    ______ ____
ROOT
ATOM      1  C   UNL     1      -0.018   1.461   0.010  0.00  0.00    +0.174 C 
ATOM      2  N   UNL     1       0.002  -0.004   0.002  0.00  0.00    -0.251 N 
ATOM      3  C   UNL     1       0.008  -0.791  -1.090  0.00  0.00    +0.129 A 
ATOM      4  C   UNL     1       0.041  -2.092  -0.665  0.00  0.00    +0.042 A 
ATOM      5  C   UNL     1       0.041  -2.089   0.727  0.00  0.00    +0.153 A 
ATOM      6  N   UNL     1       0.025  -0.837   1.132  0.00  0.00    -0.154 NA
ATOM      7  N   UNL     1       0.062  -3.221   1.552  0.00  0.00    -0.265 N 
ATOM      8  C   UNL     1       0.061  -3.078   2.892  0.00  0.00    +0.253 C 
ATOM      9  O   UNL     1       0.041  -1.967   3.385  0.00  0.00    -0.270 OA
ATOM     10  C   UNL     1       0.078  -3.254  -1.626  0.00  0.00    +0.071 C 
ATOM     11  C   UNL     1      -0.624  -2.831  -2.920  0.00  0.00    +0.109 C 
ATOM     12  C   UNL     1      -0.204  -1.450  -3.340  0.00  0.00    +0.219 C 
ATOM     13  O   UNL     1      -0.044  -1.218  -4.520  0.00  0.00    -0.275 OA
ATOM     14  N   UNL     1       0.001  -0.461  -2.445  0.00  0.00    -0.270 N 
ATOM     15  H   UNL     1       0.078  -4.108   1.158  0.00  0.00    +0.157 HD
ATOM     16  H   UNL     1       0.140   0.454  -2.736  0.00  0.00    +0.156 HD
ENDROOT
BRANCH   8  17
ATOM     17  C   UNL     1       0.083  -4.270   3.760  0.00  0.00    +0.080 A 
ATOM     18  C   UNL     1       0.112  -5.549   3.198  0.00  0.00    +0.036 A 
ATOM     19  C   UNL     1       0.133  -6.659   4.016  0.00  0.00    +0.042 A 
ATOM     20  C   UNL     1       0.125  -6.512   5.394  0.00  0.00    +0.023 A 
ATOM     21  C   UNL     1       0.097  -5.254   5.962  0.00  0.00    +0.048 A 
ATOM     22  C   UNL     1       0.081  -4.126   5.154  0.00  0.00    +0.132 A 
ATOM     23 CL   UNL     1       0.168  -8.248   3.317  0.00  0.00    -0.084 Cl
BRANCH  22  24
ATOM     24  O   UNL     1       0.059  -2.889   5.711  0.00  0.00    -0.494 OA
ATOM     25  C   UNL     1       0.059  -2.821   7.139  0.00  0.00    +0.277 C 
ENDBRANCH  22  24
ENDBRANCH   8  17
BRANCH  10  26
ATOM     26  C   UNL     1       1.508  -3.624  -1.920  0.00  0.00    -0.002 A 
ATOM     27  C   UNL     1       2.147  -4.801  -1.708  0.00  0.00    +0.012 A 
ATOM     28  C   UNL     1       3.478  -4.915  -2.062  0.00  0.00    +0.008 A 
ATOM     29  C   UNL     1       4.106  -3.846  -2.609  0.00  0.00    +0.045 A 
ATOM     30  S   UNL     1       2.801  -2.629  -2.645  0.00  0.00    -0.101 S 
ENDBRANCH  10  26
TORSDOF 3
