REMARK  Name = ZINC39360414
REMARK  6 active torsions:
REMARK  status: ('A' for Active; 'I' for Inactive)
REMARK    1  A    between atoms: C_1  and  C_2
REMARK    2  A    between atoms: C_2  and  C_3
REMARK    3  A    between atoms: C_2  and  C_4
REMARK    4  A    between atoms: C_7  and  C_10
REMARK    5  A    between atoms: C_16  and  S_20
REMARK    6  A    between atoms: S_20  and  C_21
REMARK                            x       y       z     vdW  Elec       q    Type
REMARK                         _______ _______ _______ _____ _____    ______ ____
ROOT
ATOM      1  C   UNL     1      -5.419  -2.005   0.043  0.00  0.00    +0.073 C 
ATOM      2  C   UNL     1      -5.394  -3.534   0.050  0.00  0.00    +0.152 C 
ATOM      3  C   UNL     1      -6.783  -4.012  -0.303  0.00  0.00    +0.115 C 
ATOM      4  N   UNL     1      -7.458  -4.800   0.476  0.00  0.00    -0.213 NA
ATOM      5  C   UNL     1      -6.982  -5.217   1.657  0.00  0.00    +0.182 C 
ATOM      6  N   UNL     1      -5.795  -4.835   2.107  0.00  0.00    -0.154 NA
ATOM      7  C   UNL     1      -4.993  -4.040   1.405  0.00  0.00    +0.250 C 
ATOM      8  O   UNL     1      -3.917  -3.711   1.866  0.00  0.00    -0.273 OA
ATOM      9  N   UNL     1      -7.301  -3.556  -1.483  0.00  0.00    -0.305 N 
ATOM     10  C   UNL     1      -7.035  -2.256  -1.852  0.00  0.00    +0.016 C 
ATOM     11  C   UNL     1      -6.149  -1.500  -1.181  0.00  0.00    +0.021 C 
ATOM     12  C   UNL     1      -5.864  -0.184  -1.599  0.00  0.00    +0.161 C 
ATOM     13  O   UNL     1      -5.063   0.478  -0.970  0.00  0.00    -0.292 OA
ATOM     14  C   UNL     1      -6.529   0.417  -2.805  0.00  0.00    +0.080 C 
ATOM     15  C   UNL     1      -6.896  -0.703  -3.784  0.00  0.00    +0.014 C 
ATOM     16  C   UNL     1      -7.779  -1.707  -3.046  0.00  0.00    +0.051 C 
ATOM     17  H   UNL     1      -7.843  -4.133  -2.045  0.00  0.00    +0.153 HD
ENDROOT
BRANCH   1  21
ATOM     18  C   UNL     1      -1.412  -0.526   0.013  0.00  0.00    -0.045 A 
ATOM     19  C   UNL     1      -2.259  -0.204   1.056  0.00  0.00    +0.004 A 
ATOM     20  C   UNL     1      -3.556  -0.683   1.066  0.00  0.00    +0.004 A 
ATOM     21  C   UNL     1      -4.006  -1.482   0.032  0.00  0.00    -0.039 A 
ATOM     22  C   UNL     1      -3.159  -1.803  -1.012  0.00  0.00    +0.004 A 
ATOM     23  C   UNL     1      -1.863  -1.321  -1.024  0.00  0.00    +0.004 A 
BRANCH  18  25
ATOM     24  C   UNL     1      -0.019   1.526   0.010  0.00  0.00    +0.012 C 
ATOM     25  C   UNL     1       0.002  -0.004   0.002  0.00  0.00    +0.013 C 
ATOM     26  C   UNL     1       0.742  -0.511   1.242  0.00  0.00    +0.012 C 
ENDBRANCH  18  25
ENDBRANCH   1  21
BRANCH   5  27
ATOM     27  S   UNL     1      -7.962  -6.303   2.640  0.00  0.00    -0.092 S 
ATOM     28  C   UNL     1      -6.946  -6.596   4.114  0.00  0.00    +0.093 C 
ENDBRANCH   5  27
TORSDOF 3
