REMARK  Name = ZINC67103463
REMARK  5 active torsions:
REMARK  status: ('A' for Active; 'I' for Inactive)
REMARK    1  A    between atoms: C_4  and  C_7
REMARK    2  A    between atoms: C_7  and  C_8
REMARK    3  A    between atoms: N_10  and  N_11
REMARK    4  A    between atoms: C_17  and  C_20
REMARK    5  A    between atoms: N_22  and  C_23
REMARK                            x       y       z     vdW  Elec       q    Type
REMARK                         _______ _______ _______ _____ _____    ______ ____
ROOT
ATOM      1  N   UNL     1       3.717  -4.017  -3.440  0.00  0.00    -0.218 N 
ATOM      2  C   UNL     1       4.411  -4.662  -4.398  0.00  0.00    +0.319 C 
ATOM      3  O   UNL     1       4.520  -5.873  -4.359  0.00  0.00    -0.251 OA
ATOM      4  N   UNL     1       4.983  -3.967  -5.401  0.00  0.00    -0.284 N 
ATOM      5  C   UNL     1       4.963  -2.498  -5.399  0.00  0.00    +0.110 C 
ATOM      6  C   UNL     1       4.378  -2.011  -6.729  0.00  0.00    +0.032 C 
ATOM      7  C   UNL     1       5.169  -2.628  -7.885  0.00  0.00    +0.078 C 
ATOM      8  C   UNL     1       5.048  -4.152  -7.833  0.00  0.00    +0.032 C 
ATOM      9  C   UNL     1       5.645  -4.663  -6.513  0.00  0.00    +0.110 C 
ATOM     10  H   UNL     1       3.567  -3.061  -3.511  0.00  0.00    +0.174 HD
ENDROOT
BRANCH   1  13
ATOM     11  C   UNL     1       2.609  -4.066  -1.334  0.00  0.00    +0.229 C 
ATOM     12  O   UNL     1       2.500  -2.859  -1.378  0.00  0.00    -0.274 OA
ATOM     13  N   UNL     1       3.214  -4.726  -2.341  0.00  0.00    -0.233 N 
ATOM     14  H   UNL     1       3.301  -5.691  -2.306  0.00  0.00    +0.173 HD
BRANCH  11  15
ATOM     15  C   UNL     1       2.067  -4.829  -0.152  0.00  0.00    +0.101 C 
BRANCH  15  19
ATOM     16  C   UNL     1       1.228  -2.737   3.542  0.00  0.00    +0.000 C 
ATOM     17  C   UNL     1       0.144  -3.654   2.970  0.00  0.00    +0.000 C 
ATOM     18  C   UNL     1       0.776  -4.632   1.978  0.00  0.00    +0.004 C 
ATOM     19  C   UNL     1       1.435  -3.850   0.840  0.00  0.00    -0.002 C 
ATOM     20  C   UNL     1       2.518  -2.933   1.412  0.00  0.00    +0.004 C 
ATOM     21  C   UNL     1       1.887  -1.955   2.404  0.00  0.00    +0.000 C 
ENDBRANCH  15  19
ENDBRANCH  11  15
ENDBRANCH   1  13
BRANCH   7  22
ATOM     22  C   UNL     1       4.619  -2.125  -9.195  0.00  0.00    +0.216 C 
ATOM     23  O   UNL     1       3.686  -1.350  -9.203  0.00  0.00    -0.276 OA
ATOM     24  N   UNL     1       5.163  -2.536 -10.357  0.00  0.00    -0.312 N 
ATOM     25  H   UNL     1       5.909  -3.156 -10.351  0.00  0.00    +0.149 HD
BRANCH  24  26
ATOM     26  C   UNL     1       4.628  -2.047 -11.630  0.00  0.00    +0.073 C 
ATOM     27  C   UNL     1       4.438  -3.067 -12.755  0.00  0.00    +0.024 C 
ATOM     28  C   UNL     1       5.569  -2.041 -12.836  0.00  0.00    +0.024 C 
ENDBRANCH  24  26
ENDBRANCH   7  22
TORSDOF 5
