REMARK  Name = ZINC63302895
REMARK  6 active torsions:
REMARK  status: ('A' for Active; 'I' for Inactive)
REMARK    1  A    between atoms: C_6  and  C_11
REMARK    2  A    between atoms: C_17  and  C_20
REMARK    3  A    between atoms: N_22  and  C_23
REMARK    4  A    between atoms: C_23  and  C_24
REMARK    5  A    between atoms: C_24  and  C_25
REMARK    6  A    between atoms: C_28  and  O_31
REMARK                            x       y       z     vdW  Elec       q    Type
REMARK                         _______ _______ _______ _____ _____    ______ ____
ROOT
ATOM      1  C   UNL     1       3.656  -2.764   1.185  0.00  0.00    +0.242 C 
ATOM      2  O   UNL     1       4.332  -2.165   1.995  0.00  0.00    -0.273 OA
ATOM      3  N   UNL     1       3.363  -4.065   1.381  0.00  0.00    -0.299 N 
ATOM      4  C   UNL     1       2.551  -4.805   0.406  0.00  0.00    +0.108 C 
ATOM      5  C   UNL     1       1.375  -5.457   1.139  0.00  0.00    +0.020 C 
ATOM      6  C   UNL     1       1.907  -6.313   2.291  0.00  0.00    +0.016 C 
ATOM      7  C   UNL     1       2.660  -5.423   3.283  0.00  0.00    +0.092 C 
ATOM      8  C   UNL     1       3.856  -4.771   2.571  0.00  0.00    +0.120 C 
ENDROOT
BRANCH   1  14
ATOM      9  C   UNL     1      -0.016   1.348   0.009  0.00  0.00    +0.001 A 
ATOM     10  C   UNL     1       1.166   2.101   0.002  0.00  0.00    +0.002 A 
ATOM     11  C   UNL     1       2.391   1.535  -0.013  0.00  0.00    +0.026 A 
ATOM     12  C   UNL     1       2.529   0.120  -0.022  0.00  0.00    +0.043 A 
ATOM     13  N   UNL     1       3.587  -0.654  -0.037  0.00  0.00    -0.370 N 
ATOM     14  C   UNL     1       3.143  -2.053  -0.041  0.00  0.00    +0.190 C 
ATOM     15  C   UNL     1       1.631  -2.008  -0.025  0.00  0.00    +0.016 C 
ATOM     16  C   UNL     1       1.295  -0.698  -0.014  0.00  0.00    -0.004 A 
ATOM     17  C   UNL     1       0.002  -0.004   0.002  0.00  0.00    +0.010 A 
ATOM     18  H   UNL     1       4.509  -0.353  -0.045  0.00  0.00    +0.161 HD
ENDBRANCH   1  14
BRANCH   7  19
ATOM     19  C   UNL     1       3.156  -6.261   4.433  0.00  0.00    +0.218 C 
ATOM     20  O   UNL     1       4.344  -6.327   4.667  0.00  0.00    -0.275 OA
ATOM     21  N   UNL     1       2.279  -6.936   5.202  0.00  0.00    -0.315 N 
ATOM     22  H   UNL     1       1.329  -6.882   5.015  0.00  0.00    +0.149 HD
BRANCH  21  23
ATOM     23  C   UNL     1       2.761  -7.750   6.321  0.00  0.00    +0.109 C 
BRANCH  23  24
ATOM     24  C   UNL     1       1.571  -8.404   7.025  0.00  0.00    +0.054 C 
BRANCH  24  25
ATOM     25  C   UNL     1       2.066  -9.242   8.176  0.00  0.00    -0.046 A 
ATOM     26  C   UNL     1       2.389 -10.571   7.973  0.00  0.00    +0.007 A 
ATOM     27  C   UNL     1       2.843 -11.341   9.027  0.00  0.00    +0.045 A 
ATOM     28  C   UNL     1       2.976 -10.779  10.288  0.00  0.00    +0.117 A 
ATOM     29  C   UNL     1       2.652  -9.445  10.489  0.00  0.00    +0.045 A 
ATOM     30  C   UNL     1       2.203  -8.678   9.431  0.00  0.00    +0.007 A 
BRANCH  28  31
ATOM     31  O   UNL     1       3.422 -11.535  11.326  0.00  0.00    -0.507 OA
ATOM     32  H   UNL     1       4.383 -11.523  11.436  0.00  0.00    +0.292 HD
ENDBRANCH  28  31
ENDBRANCH  24  25
ENDBRANCH  23  24
ENDBRANCH  21  23
ENDBRANCH   7  19
TORSDOF 6
