REMARK  Name = ZINC59782446
REMARK  8 active torsions:
REMARK  status: ('A' for Active; 'I' for Inactive)
REMARK    1  A    between atoms: C_1  and  O_2
REMARK    2  A    between atoms: O_2  and  C_3
REMARK    3  A    between atoms: C_8  and  C_9
REMARK    4  A    between atoms: C_9  and  C_11
REMARK    5  A    between atoms: C_9  and  N_26
REMARK    6  A    between atoms: C_11  and  N_12
REMARK    7  A    between atoms: C_13  and  C_15
REMARK    8  A    between atoms: C_15  and  N_16
REMARK                            x       y       z     vdW  Elec       q    Type
REMARK                         _______ _______ _______ _____ _____    ______ ____
ROOT
ATOM      1  C   UNL     1       0.021  -2.832  -0.009  0.00  0.00    -0.017 C 
ENDROOT
BRANCH   1   2
ATOM      2  N   UNL     1      -0.138  -4.189   0.532  0.00  0.00    +0.385 N 
ATOM      3  C   UNL     1      -0.768  -4.116   1.855  0.00  0.00    -0.078 C 
ATOM      4  C   UNL     1      -1.009  -5.530   2.388  0.00  0.00    -0.019 C 
ATOM      5  C   UNL     1       0.331  -6.263   2.499  0.00  0.00    -0.004 C 
ATOM      6  C   UNL     1       1.014  -6.268   1.129  0.00  0.00    -0.019 C 
ATOM      7  C   UNL     1       1.180  -4.827   0.642  0.00  0.00    -0.078 C 
ATOM      8  H   UNL     1      -0.721  -4.731  -0.088  0.00  0.00    -0.081 HD
ENDBRANCH   1   2
BRANCH   1  14
ATOM      9  C   UNL     1      -1.474  -0.850  -0.356  0.00  0.00    +0.122 A 
ATOM     10  C   UNL     1      -2.726  -0.294  -0.583  0.00  0.00    +0.046 A 
ATOM     11  C   UNL     1      -3.833  -1.113  -0.696  0.00  0.00    +0.004 A 
ATOM     12  C   UNL     1      -3.695  -2.484  -0.585  0.00  0.00    +0.000 A 
ATOM     13  C   UNL     1      -2.449  -3.040  -0.359  0.00  0.00    +0.005 A 
ATOM     14  C   UNL     1      -1.338  -2.226  -0.250  0.00  0.00    -0.018 A 
BRANCH   9  16
ATOM     15  C   UNL     1      -0.599   1.361  -0.364  0.00  0.00    +0.277 C 
ATOM     16  O   UNL     1      -0.384  -0.046  -0.244  0.00  0.00    -0.495 OA
ENDBRANCH   9  16
ENDBRANCH   1  14
BRANCH   1  17
ATOM     17  C   UNL     1       0.791  -2.896  -1.330  0.00  0.00    +0.093 C 
BRANCH  17  18
ATOM     18  N   UNL     1       0.122  -3.828  -2.241  0.00  0.00    -0.315 N 
ATOM     19  C   UNL     1       0.681  -4.126  -3.430  0.00  0.00    +0.233 C 
ATOM     20  O   UNL     1       1.739  -3.623  -3.746  0.00  0.00    -0.274 OA
ATOM     21  H   UNL     1      -0.724  -4.229  -1.989  0.00  0.00    +0.149 HD
BRANCH  19  22
ATOM     22  C   UNL     1      -0.007  -5.083  -4.368  0.00  0.00    +0.224 C 
BRANCH  22  23
ATOM     23  N   UNL     1       0.796  -5.240  -5.583  0.00  0.00    -0.265 N 
ATOM     24  C   UNL     1       0.703  -4.465  -6.739  0.00  0.00    +0.091 A 
ATOM     25  C   UNL     1      -0.096  -3.393  -7.104  0.00  0.00    +0.030 A 
ATOM     26  C   UNL     1       0.049  -2.822  -8.354  0.00  0.00    +0.002 A 
ATOM     27  C   UNL     1       0.989  -3.317  -9.240  0.00  0.00    +0.004 A 
ATOM     28  C   UNL     1       1.789  -4.386  -8.883  0.00  0.00    +0.048 A 
ATOM     29  C   UNL     1       1.650  -4.965  -7.632  0.00  0.00    +0.157 A 
ATOM     30  O   UNL     1       2.277  -5.998  -7.017  0.00  0.00    -0.407 OA
ATOM     31  C   UNL     1       1.764  -6.155  -5.786  0.00  0.00    +0.422 A 
ATOM     32  O   UNL     1       2.117  -6.995  -4.980  0.00  0.00    -0.223 OA
ENDBRANCH  22  23
ENDBRANCH  19  22
ENDBRANCH  17  18
ENDBRANCH   1  17
TORSDOF 7
