REMARK  Name = ZINC67280366
REMARK  10 active torsions:
REMARK  status: ('A' for Active; 'I' for Inactive)
REMARK    1  A    between atoms: C_1  and  C_2
REMARK    2  A    between atoms: C_2  and  N_3
REMARK    3  A    between atoms: N_3  and  C_4
REMARK    4  A    between atoms: C_4  and  C_5
REMARK    5  A    between atoms: C_8  and  C_11
REMARK    6  A    between atoms: C_11  and  N_12
REMARK    7  A    between atoms: N_12  and  C_13
REMARK    8  A    between atoms: N_12  and  C_14
REMARK    9  A    between atoms: N_17  and  C_18
REMARK   10  A    between atoms: C_21  and  N_24
REMARK                            x       y       z     vdW  Elec       q    Type
REMARK                         _______ _______ _______ _____ _____    ______ ____
ROOT
ATOM      1  N   UNL     1      -1.370  -0.517   0.012  0.00  0.00    -0.281 N 
ATOM      2  C   UNL     1      -1.994  -0.749   1.184  0.00  0.00    +0.307 C 
ATOM      3  O   UNL     1      -3.138  -1.162   1.193  0.00  0.00    -0.252 OA
ATOM      4  N   UNL     1      -1.350  -0.524   2.347  0.00  0.00    -0.269 N 
ATOM      5  H   UNL     1      -0.417  -0.259   2.341  0.00  0.00    +0.156 HD
ENDROOT
BRANCH   4   6
ATOM      6  C   UNL     1      -2.029  -0.672   3.564  0.00  0.00    +0.035 A 
ATOM      7  C   UNL     1      -2.990  -1.664   3.706  0.00  0.00    +0.025 A 
ATOM      8  C   UNL     1      -3.658  -1.810   4.905  0.00  0.00    +0.025 A 
ATOM      9  C   UNL     1      -3.369  -0.966   5.969  0.00  0.00    +0.040 A 
ATOM     10  C   UNL     1      -2.408   0.026   5.826  0.00  0.00    +0.025 A 
ATOM     11  C   UNL     1      -1.736   0.169   4.629  0.00  0.00    +0.025 A 
BRANCH   9  12
ATOM     12  N   UNL     1      -4.047  -1.115   7.186  0.00  0.00    -0.234 N 
ATOM     13  C   UNL     1      -3.853  -0.293   8.397  0.00  0.00    +0.158 C 
ATOM     14  C   UNL     1      -5.098  -0.655   9.242  0.00  0.00    +0.253 C 
ATOM     15  O   UNL     1      -5.443  -1.955   8.725  0.00  0.00    -0.448 OA
ATOM     16  C   UNL     1      -4.997  -2.029   7.459  0.00  0.00    +0.407 C 
ATOM     17  O   UNL     1      -5.405  -2.837   6.648  0.00  0.00    -0.226 OA
ENDBRANCH   9  12
ENDBRANCH   4   6
BRANCH   1  19
ATOM     18  C   UNL     1      -0.002   1.510   0.006  0.00  0.00    +0.024 C 
ATOM     19  C   UNL     1       0.008  -0.020   0.002  0.00  0.00    +0.106 C 
ENDBRANCH   1  19
BRANCH   1  20
ATOM     20  C   UNL     1      -2.070  -0.762  -1.251  0.00  0.00    +0.144 C 
BRANCH  20  21
ATOM     21  C   UNL     1      -1.827  -2.183  -1.692  0.00  0.00    -0.030 A 
ATOM     22  C   UNL     1      -0.743  -2.482  -2.496  0.00  0.00    +0.005 A 
ATOM     23  C   UNL     1      -0.520  -3.785  -2.900  0.00  0.00    +0.002 A 
ATOM     24  C   UNL     1      -1.382  -4.789  -2.501  0.00  0.00    -0.064 A 
ATOM     25  C   UNL     1      -2.466  -4.490  -1.697  0.00  0.00    +0.002 A 
ATOM     26  C   UNL     1      -2.686  -3.188  -1.288  0.00  0.00    +0.005 A 
BRANCH  24  27
ATOM     27  C   UNL     1      -1.140  -6.209  -2.943  0.00  0.00    -0.044 C 
BRANCH  27  28
ATOM     28  N   UNL     1      -0.286  -6.889  -1.960  0.00  0.00    +0.379 N 
ATOM     29  C   UNL     1      -1.000  -6.996  -0.681  0.00  0.00    -0.096 C 
ATOM     30  C   UNL     1       0.048  -8.234  -2.449  0.00  0.00    -0.096 C 
ATOM     31  H   UNL     1       0.562  -6.359  -1.828  0.00  0.00    -0.082 HD
ENDBRANCH  27  28
ENDBRANCH  24  27
ENDBRANCH  20  21
ENDBRANCH   1  20
TORSDOF 7
