REMARK  Name = ZINC03039778
REMARK  7 active torsions:
REMARK  status: ('A' for Active; 'I' for Inactive)
REMARK    1  A    between atoms: C_1  and  O_2
REMARK    2  A    between atoms: O_2  and  C_3
REMARK    3  A    between atoms: C_6  and  C_9
REMARK    4  A    between atoms: N_13  and  C_29
REMARK    5  A    between atoms: N_17  and  C_18
REMARK    6  A    between atoms: C_29  and  C_30
REMARK    7  A    between atoms: C_30  and  C_31
REMARK                            x       y       z     vdW  Elec       q    Type
REMARK                         _______ _______ _______ _____ _____    ______ ____
ROOT
ATOM      1  C   UNL     1       4.643   2.658  -0.418  0.00  0.00    +0.193 C 
ATOM      2  C   UNL     1       5.205   1.627  -1.354  0.00  0.00    +0.241 C 
ATOM      3  O   UNL     1       6.011   0.828  -0.924  0.00  0.00    -0.273 OA
ATOM      4  N   UNL     1       4.857   1.556  -2.642  0.00  0.00    -0.291 N 
ATOM      5  C   UNL     1       3.901   2.469  -3.254  0.00  0.00    +0.203 C 
ATOM      6  C   UNL     1       3.046   3.136  -2.219  0.00  0.00    +0.234 C 
ATOM      7  O   UNL     1       1.993   3.628  -2.563  0.00  0.00    -0.274 OA
ATOM      8  N   UNL     1       3.397   3.210  -0.931  0.00  0.00    -0.278 N 
ENDROOT
BRANCH   8   9
ATOM      9  C   UNL     1       2.492   3.882   0.004  0.00  0.00    +0.108 C 
ATOM     10  C   UNL     1       2.322   5.340  -0.419  0.00  0.00    +0.027 C 
ATOM     11  C   UNL     1       1.212   5.965   0.435  0.00  0.00    +0.007 C 
ATOM     12  C   UNL     1      -0.122   5.351   0.015  0.00  0.00    +0.035 C 
ATOM     13  C   UNL     1      -0.037   3.848   0.017  0.00  0.00    -0.042 A 
ATOM     14  C   UNL     1       1.163   3.173   0.006  0.00  0.00    -0.024 A 
ATOM     15  C   UNL     1       1.171   1.784   0.001  0.00  0.00    +0.006 A 
ATOM     16  C   UNL     1      -0.013   1.076   0.008  0.00  0.00    +0.000 A 
ATOM     17  C   UNL     1      -1.218   1.753   0.017  0.00  0.00    +0.000 A 
ATOM     18  C   UNL     1      -1.228   3.133   0.028  0.00  0.00    +0.004 A 
ENDBRANCH   8   9
BRANCH   1  22
ATOM     19  C   UNL     1       7.480   5.816   0.070  0.00  0.00    +0.120 A 
ATOM     20  C   UNL     1       7.392   4.808   1.019  0.00  0.00    +0.046 A 
ATOM     21  C   UNL     1       6.474   3.788   0.859  0.00  0.00    +0.009 A 
ATOM     22  C   UNL     1       5.644   3.772  -0.246  0.00  0.00    -0.018 A 
ATOM     23  C   UNL     1       5.733   4.772  -1.196  0.00  0.00    +0.009 A 
ATOM     24  C   UNL     1       6.645   5.797  -1.038  0.00  0.00    +0.046 A 
BRANCH  19  26
ATOM     25  C   UNL     1       8.416   7.824  -0.792  0.00  0.00    +0.277 C 
ATOM     26  O   UNL     1       8.382   6.821   0.225  0.00  0.00    -0.495 OA
ENDBRANCH  19  26
ENDBRANCH   1  22
BRANCH   4  27
ATOM     27  C   UNL     1       5.464   0.516  -3.476  0.00  0.00    +0.113 C 
BRANCH  27  28
ATOM     28  C   UNL     1       6.751   1.053  -4.106  0.00  0.00    +0.054 C 
BRANCH  28  29
ATOM     29  C   UNL     1       7.376  -0.018  -4.963  0.00  0.00    -0.046 A 
ATOM     30  C   UNL     1       8.291  -0.896  -4.414  0.00  0.00    +0.004 A 
ATOM     31  C   UNL     1       8.860  -1.881  -5.200  0.00  0.00    +0.000 A 
ATOM     32  C   UNL     1       8.522  -1.980  -6.537  0.00  0.00    +0.000 A 
ATOM     33  C   UNL     1       7.611  -1.099  -7.086  0.00  0.00    +0.000 A 
ATOM     34  C   UNL     1       7.037  -0.117  -6.300  0.00  0.00    +0.004 A 
ENDBRANCH  28  29
ENDBRANCH  27  28
ENDBRANCH   4  27
TORSDOF 6
