REMARK  Name = ZINC29116573
REMARK  9 active torsions:
REMARK  status: ('A' for Active; 'I' for Inactive)
REMARK    1  A    between atoms: C_1  and  C_2
REMARK    2  A    between atoms: C_2  and  C_3
REMARK    3  A    between atoms: C_2  and  C_4
REMARK    4  A    between atoms: C_7  and  C_10
REMARK    5  A    between atoms: C_10  and  N_11
REMARK    6  A    between atoms: N_11  and  C_12
REMARK    7  A    between atoms: N_11  and  C_29
REMARK    8  A    between atoms: C_12  and  C_13
REMARK    9  A    between atoms: C_17  and  C_26
REMARK                            x       y       z     vdW  Elec       q    Type
REMARK                         _______ _______ _______ _____ _____    ______ ____
ROOT
ATOM      1  C   UNL     1       1.214   2.312  -2.466  0.00  0.00    +0.203 C 
ATOM      2  O   UNL     1       1.412   3.066  -1.537  0.00  0.00    -0.277 OA
ATOM      3  N   UNL     1       2.023   2.346  -3.544  0.00  0.00    -0.266 N 
ATOM      4  C   UNL     1       1.887   1.360  -4.630  0.00  0.00    +0.168 C 
ATOM      5  C   UNL     1       3.301   0.932  -5.048  0.00  0.00    +0.276 C 
ATOM      6  O   UNL     1       4.030   2.091  -5.459  0.00  0.00    -0.476 OA
ATOM      7  C   UNL     1       4.019   3.171  -4.635  0.00  0.00    +0.143 A 
ATOM      8  C   UNL     1       3.021   3.327  -3.675  0.00  0.00    +0.078 A 
ATOM      9  C   UNL     1       3.023   4.432  -2.841  0.00  0.00    +0.027 A 
ATOM     10  C   UNL     1       4.014   5.389  -2.968  0.00  0.00    +0.002 A 
ATOM     11  C   UNL     1       5.003   5.240  -3.922  0.00  0.00    +0.004 A 
ATOM     12  C   UNL     1       5.008   4.136  -4.754  0.00  0.00    +0.047 A 
ENDROOT
BRANCH   5  13
ATOM     13  C   UNL     1       3.216  -0.044  -6.193  0.00  0.00    +0.253 C 
ATOM     14  O   UNL     1       3.660   0.257  -7.281  0.00  0.00    -0.272 OA
ATOM     15  N   UNL     1       2.646  -1.251  -6.009  0.00  0.00    -0.326 N 
ATOM     16  H   UNL     1       2.584  -1.964  -6.845  0.00  0.00    +0.145 HD
ATOM     17  H   UNL     1       2.243  -1.524  -5.022  0.00  0.00    +0.145 HD
ENDBRANCH   5  13
BRANCH   1  18
ATOM     18  C   UNL     1       0.066   1.338  -2.416  0.00  0.00    +0.020 C 
BRANCH  18  19
ATOM     19  N   UNL     1      -0.727   1.578  -1.203  0.00  0.00    +0.390 N 
ATOM     20  H   UNL     1      -0.843   2.665  -1.084  0.00  0.00    -0.080 HD
BRANCH  19  21
ATOM     21  C   UNL     1      -2.068   0.992  -1.326  0.00  0.00    -0.068 C 
ATOM     22  C   UNL     1      -2.312   0.024  -2.485  0.00  0.00    -0.017 C 
ATOM     23  C   UNL     1      -2.922   1.427  -2.518  0.00  0.00    -0.017 C 
ENDBRANCH  19  21
BRANCH  19  24
ATOM     24  C   UNL     1      -0.035   1.065  -0.012  0.00  0.00    -0.042 C 
BRANCH  24  28
ATOM     25  C   UNL     1      -2.059   2.412   3.500  0.00  0.00    -0.045 A 
ATOM     26  C   UNL     1      -2.420   1.215   2.910  0.00  0.00    +0.004 A 
ATOM     27  C   UNL     1      -1.766   0.779   1.774  0.00  0.00    +0.002 A 
ATOM     28  C   UNL     1      -0.749   1.540   1.227  0.00  0.00    -0.064 A 
ATOM     29  C   UNL     1      -0.384   2.734   1.820  0.00  0.00    +0.002 A 
ATOM     30  C   UNL     1      -1.042   3.172   2.954  0.00  0.00    +0.004 A 
BRANCH  25  32
ATOM     31  C   UNL     1      -1.768   3.036   5.883  0.00  0.00    +0.012 C 
ATOM     32  C   UNL     1      -2.773   2.887   4.739  0.00  0.00    +0.013 C 
ATOM     33  C   UNL     1      -3.432   4.240   4.460  0.00  0.00    +0.012 C 
ENDBRANCH  25  32
ENDBRANCH  24  28
ENDBRANCH  19  24
ENDBRANCH  18  19
ENDBRANCH   1  18
TORSDOF 7
