REMARK  Name = ZINC38936052
REMARK  7 active torsions:
REMARK  status: ('A' for Active; 'I' for Inactive)
REMARK    1  A    between atoms: C_1  and  O_2
REMARK    2  A    between atoms: O_2  and  C_3
REMARK    3  A    between atoms: C_6  and  C_11
REMARK    4  A    between atoms: C_8  and  O_9
REMARK    5  A    between atoms: O_9  and  C_10
REMARK    6  A    between atoms: N_17  and  N_18
REMARK    7  A    between atoms: C_19  and  C_20
REMARK                            x       y       z     vdW  Elec       q    Type
REMARK                         _______ _______ _______ _____ _____    ______ ____
ROOT
ATOM      1  C   UNL     1       2.523  -2.507  -4.393  0.00  0.00    +0.264 C 
ATOM      2  N   UNL     1       1.841  -3.768  -4.723  0.00  0.00    -0.189 NA
ATOM      3  N   UNL     1       1.387  -3.671  -5.866  0.00  0.00    -0.219 N 
ATOM      4  C   UNL     1       1.648  -2.470  -6.450  0.00  0.00    +0.174 C 
ATOM      5  S   UNL     1       1.157  -2.020  -8.027  0.00  0.00    -0.015 S 
ATOM      6  N   UNL     1       2.353  -1.683  -5.604  0.00  0.00    -0.172 N 
ATOM      7  H   UNL     1       0.894  -4.381  -6.306  0.00  0.00    +0.176 HD
ENDROOT
BRANCH   1  11
ATOM      8  C   UNL     1       0.666  -0.627  -1.030  0.00  0.00    +0.162 A 
ATOM      9  C   UNL     1       1.221   0.143  -2.039  0.00  0.00    +0.050 A 
ATOM     10  C   UNL     1       1.821  -0.468  -3.125  0.00  0.00    +0.011 A 
ATOM     11  C   UNL     1       1.868  -1.847  -3.207  0.00  0.00    +0.001 A 
ATOM     12  C   UNL     1       1.316  -2.621  -2.204  0.00  0.00    +0.056 A 
ATOM     13  C   UNL     1       0.719  -2.016  -1.110  0.00  0.00    +0.162 A 
BRANCH   8  15
ATOM     14  C   UNL     1       0.059   1.401   0.054  0.00  0.00    +0.277 C 
ATOM     15  O   UNL     1       0.077  -0.028   0.039  0.00  0.00    -0.491 OA
ENDBRANCH   8  15
BRANCH  13  16
ATOM     16  O   UNL     1       0.181  -2.776  -0.119  0.00  0.00    -0.491 OA
ATOM     17  C   UNL     1       0.272  -4.194  -0.268  0.00  0.00    +0.277 C 
ENDBRANCH  13  16
ENDBRANCH   1  11
BRANCH   6  18
ATOM     18  N   UNL     1       2.816  -0.379  -5.825  0.00  0.00    -0.183 NA
ATOM     19  C   UNL     1       2.679   0.169  -6.995  0.00  0.00    +0.141 C 
BRANCH  19  20
ATOM     20  C   UNL     1       3.264   1.495  -7.260  0.00  0.00    +0.031 A 
ATOM     21  C   UNL     1       3.114   2.091  -8.515  0.00  0.00    +0.027 A 
ATOM     22  C   UNL     1       3.663   3.333  -8.757  0.00  0.00    +0.019 A 
ATOM     23  C   UNL     1       4.364   3.990  -7.759  0.00  0.00    +0.018 A 
ATOM     24  C   UNL     1       4.518   3.409  -6.514  0.00  0.00    +0.040 A 
ATOM     25  C   UNL     1       3.968   2.167  -6.255  0.00  0.00    +0.132 A 
ATOM     26  F   UNL     1       4.114   1.602  -5.037  0.00  0.00    -0.205 F 
ATOM     27 BR   UNL     1       3.461   4.139 -10.455  0.00  0.00    -0.050 Br
ENDBRANCH  19  20
ENDBRANCH   6  18
TORSDOF 5
