REMARK  Name = ZINC20804666
REMARK  6 active torsions:
REMARK  status: ('A' for Active; 'I' for Inactive)
REMARK    1  A    between atoms: C_1  and  C_2
REMARK    2  A    between atoms: C_7  and  N_8
REMARK    3  A    between atoms: C_9  and  C_11
REMARK    4  A    between atoms: C_12  and  C_29
REMARK    5  A    between atoms: C_16  and  C_28
REMARK    6  A    between atoms: C_19  and  C_21
REMARK                            x       y       z     vdW  Elec       q    Type
REMARK                         _______ _______ _______ _____ _____    ______ ____
ROOT
ATOM      1  C   UNL     1      -0.731   1.595  -1.214  0.00  0.00    +0.060 C 
ATOM      2  C   UNL     1      -1.681   2.540  -1.164  0.00  0.00    +0.018 C 
ATOM      3  N   UNL     1      -2.069   3.127   0.016  0.00  0.00    -0.287 N 
ATOM      4  C   UNL     1      -1.639   2.535   1.195  0.00  0.00    +0.219 A 
ATOM      5  N   UNL     1      -2.024   2.733   2.426  0.00  0.00    -0.198 NA
ATOM      6  C   UNL     1      -1.338   1.929   3.244  0.00  0.00    +0.150 A 
ATOM      7  N   UNL     1      -0.503   1.207   2.538  0.00  0.00    -0.153 NA
ATOM      8  N   UNL     1      -0.675   1.581   1.207  0.00  0.00    -0.221 N 
ATOM      9  C   UNL     1       0.002   1.102   0.005  0.00  0.00    +0.177 C 
ATOM     10  C   UNL     1      -1.499   1.863   4.741  0.00  0.00    +0.090 C 
ATOM     11  C   UNL     1      -2.346   2.973  -2.446  0.00  0.00    +0.061 C 
ATOM     12  H   UNL     1      -2.697   4.030   0.000  0.00  0.00    +0.155 HD
ENDROOT
BRANCH   9  13
ATOM     13  C   UNL     1       1.417   1.620  -0.016  0.00  0.00    -0.018 A 
ATOM     14  C   UNL     1       1.654   2.982  -0.025  0.00  0.00    +0.009 A 
ATOM     15  C   UNL     1       2.951   3.458  -0.038  0.00  0.00    +0.039 A 
ATOM     16  C   UNL     1       4.014   2.571  -0.054  0.00  0.00    +0.123 A 
ATOM     17  C   UNL     1       3.775   1.207  -0.050  0.00  0.00    +0.039 A 
ATOM     18  C   UNL     1       2.477   0.733  -0.030  0.00  0.00    +0.009 A 
ATOM     19  F   UNL     1       5.282   3.035  -0.073  0.00  0.00    -0.205 F 
ENDBRANCH   9  13
BRANCH   1  21
ATOM     20  N   UNL     1       0.550   0.085  -2.557  0.00  0.00    -0.281 N 
ATOM     21  C   UNL     1      -0.401   1.037  -2.471  0.00  0.00    +0.248 C 
ATOM     22  O   UNL     1      -0.976   1.415  -3.475  0.00  0.00    -0.270 OA
ATOM     23  H   UNL     1       1.121  -0.204  -1.663  0.00  0.00    +0.155 HD
BRANCH  20  30
ATOM     24  C   UNL     1       1.268  -2.668  -2.546  0.00  0.00    +0.045 C 
ATOM     25  C   UNL     1       1.164  -1.876  -3.824  0.00  0.00    -0.029 A 
ATOM     26  C   UNL     1       1.421  -2.485  -5.037  0.00  0.00    +0.005 A 
ATOM     27  C   UNL     1       1.326  -1.759  -6.210  0.00  0.00    +0.000 A 
ATOM     28  C   UNL     1       0.974  -0.422  -6.173  0.00  0.00    +0.002 A 
ATOM     29  C   UNL     1       0.710   0.191  -4.964  0.00  0.00    +0.023 A 
ATOM     30  C   UNL     1       0.810  -0.534  -3.784  0.00  0.00    +0.037 A 
ENDBRANCH  20  30
ENDBRANCH   1  21
TORSDOF 3
