REMARK  Name = ZINC37443516
REMARK  9 active torsions:
REMARK  status: ('A' for Active; 'I' for Inactive)
REMARK    1  A    between atoms: C_1  and  C_2
REMARK    2  A    between atoms: C_7  and  N_12
REMARK    3  A    between atoms: C_9  and  C_11
REMARK    4  A    between atoms: C_13  and  C_15
REMARK    5  A    between atoms: C_15  and  C_37
REMARK    6  A    between atoms: N_27  and  C_28
REMARK    7  A    between atoms: C_28  and  C_29
REMARK    8  A    between atoms: C_32  and  O_35
REMARK    9  A    between atoms: O_35  and  C_36
REMARK                            x       y       z     vdW  Elec       q    Type
REMARK                         _______ _______ _______ _____ _____    ______ ____
ROOT
ATOM      1  C   UNL     1       2.559  -4.132   3.440  0.00  0.00    +0.129 C 
ATOM      2  C   UNL     1       2.479  -5.648   3.266  0.00  0.00    +0.157 C 
ATOM      3  N   UNL     1       1.138  -6.106   3.641  0.00  0.00    -0.331 N 
ATOM      4  C   UNL     1       0.420  -7.174   3.194  0.00  0.00    +0.088 A 
ATOM      5  C   UNL     1       0.391  -8.285   2.317  0.00  0.00    +0.067 A 
ATOM      6  C   UNL     1      -0.787  -8.905   2.498  0.00  0.00    +0.198 A 
ATOM      7  O   UNL     1      -1.498  -8.254   3.433  0.00  0.00    -0.461 OA
ATOM      8  C   UNL     1      -0.795  -7.190   3.879  0.00  0.00    +0.153 A 
ATOM      9  C   UNL     1      -0.804  -6.095   4.755  0.00  0.00    +0.079 A 
ATOM     10  C   UNL     1       0.379  -5.435   4.597  0.00  0.00    +0.109 A 
ATOM     11  C   UNL     1       0.887  -4.217   5.241  0.00  0.00    +0.264 C 
ATOM     12  O   UNL     1       0.323  -3.713   6.194  0.00  0.00    -0.268 OA
ATOM     13  N   UNL     1       2.016  -3.685   4.717  0.00  0.00    -0.276 N 
ATOM     14  C   UNL     1       4.025  -3.703   3.349  0.00  0.00    +0.043 C 
ENDROOT
BRANCH   1  16
ATOM     15  N   UNL     1       0.480  -3.195   2.483  0.00  0.00    -0.310 N 
ATOM     16  C   UNL     1       1.789  -3.472   2.325  0.00  0.00    +0.238 C 
ATOM     17  O   UNL     1       2.348  -3.190   1.286  0.00  0.00    -0.273 OA
ATOM     18  H   UNL     1       0.050  -3.354   3.338  0.00  0.00    +0.149 HD
BRANCH  15  24
ATOM     19  C   UNL     1      -3.589  -0.664   1.265  0.00  0.00    +0.008 C 
ATOM     20  C   UNL     1      -2.346  -1.378   0.729  0.00  0.00    -0.009 C 
ATOM     21  C   UNL     1      -2.773  -2.521  -0.194  0.00  0.00    +0.003 C 
ATOM     22  C   UNL     1      -1.530  -3.234  -0.731  0.00  0.00    +0.002 C 
ATOM     23  C   UNL     1      -0.721  -3.798   0.439  0.00  0.00    +0.022 C 
ATOM     24  C   UNL     1      -0.295  -2.655   1.363  0.00  0.00    +0.076 C 
ATOM     25  C   UNL     1      -1.537  -1.942   1.899  0.00  0.00    +0.009 C 
ATOM     26  C   UNL     1      -2.398  -2.936   2.682  0.00  0.00    +0.009 C 
ENDBRANCH  15  24
ENDBRANCH   1  16
BRANCH  13  27
ATOM     27  C   UNL     1       2.712  -2.629   5.456  0.00  0.00    +0.144 C 
BRANCH  27  28
ATOM     28  C   UNL     1       2.103  -1.293   5.116  0.00  0.00    -0.030 A 
ATOM     29  C   UNL     1       2.523  -0.608   3.991  0.00  0.00    +0.009 A 
ATOM     30  C   UNL     1       1.967   0.617   3.678  0.00  0.00    +0.046 A 
ATOM     31  C   UNL     1       0.984   1.159   4.494  0.00  0.00    +0.120 A 
ATOM     32  C   UNL     1       0.563   0.470   5.622  0.00  0.00    +0.046 A 
ATOM     33  C   UNL     1       1.119  -0.757   5.927  0.00  0.00    +0.009 A 
BRANCH  31  34
ATOM     34  O   UNL     1       0.435   2.365   4.188  0.00  0.00    -0.495 OA
ATOM     35  C   UNL     1      -0.572   2.862   5.072  0.00  0.00    +0.277 C 
ENDBRANCH  31  34
ENDBRANCH  27  28
ENDBRANCH  13  27
TORSDOF 5
