REMARK  Name = ZINC39529682
REMARK  6 active torsions:
REMARK  status: ('A' for Active; 'I' for Inactive)
REMARK    1  A    between atoms: C_4  and  C_7
REMARK    2  A    between atoms: C_9  and  O_30
REMARK    3  A    between atoms: C_12  and  N_13
REMARK    4  A    between atoms: C_17  and  S_20
REMARK    5  A    between atoms: S_20  and  O_23
REMARK    6  A    between atoms: O_23  and  C_24
REMARK                            x       y       z     vdW  Elec       q    Type
REMARK                         _______ _______ _______ _____ _____    ______ ____
ROOT
ATOM      1  N   UNL     1       2.891  -1.768   1.441  0.00  0.00    -0.331 N 
ATOM      2  C   UNL     1       2.171  -3.002   1.088  0.00  0.00    +0.086 C 
ATOM      3  C   UNL     1       0.680  -2.791   1.372  0.00  0.00    -0.061 C 
ATOM      4  N   UNL     1       0.503  -2.363   2.765  0.00  0.00    +0.398 N 
ATOM      5  C   UNL     1       1.133  -1.053   2.970  0.00  0.00    +0.133 C 
ATOM      6  C   UNL     1       2.651  -1.180   2.768  0.00  0.00    +0.115 C 
ATOM      7  H   UNL     1      -0.482  -2.298   2.973  0.00  0.00    -0.083 HD
ATOM      8  H   UNL     1       0.930  -3.040   3.380  0.00  0.00    -0.083 HD
ENDROOT
BRANCH   1  14
ATOM      9  C   UNL     1       5.101  -1.636   0.457  0.00  0.00    +0.007 A 
ATOM     10  C   UNL     1       5.982  -1.043  -0.444  0.00  0.00    +0.055 A 
ATOM     11  C   UNL     1       5.552   0.000  -1.245  0.00  0.00    +0.118 A 
ATOM     12  C   UNL     1       4.244   0.458  -1.152  0.00  0.00    +0.047 A 
ATOM     13  C   UNL     1       3.365  -0.125  -0.261  0.00  0.00    +0.027 A 
ATOM     14  C   UNL     1       3.783  -1.175   0.543  0.00  0.00    +0.038 A 
BRANCH   9  18
ATOM     15  C   UNL     1       6.409  -4.841   2.925  0.00  0.00    +0.000 A 
ATOM     16  C   UNL     1       6.521  -4.940   1.550  0.00  0.00    +0.001 A 
ATOM     17  C   UNL     1       6.098  -3.903   0.744  0.00  0.00    +0.008 A 
ATOM     18  C   UNL     1       5.557  -2.754   1.318  0.00  0.00    -0.016 A 
ATOM     19  C   UNL     1       5.446  -2.660   2.704  0.00  0.00    +0.008 A 
ATOM     20  C   UNL     1       5.873  -3.703   3.501  0.00  0.00    +0.001 A 
ENDBRANCH   9  18
BRANCH  11  21
ATOM     21  O   UNL     1       6.412   0.579  -2.126  0.00  0.00    -0.507 OA
ATOM     22  H   UNL     1       6.414   0.168  -3.001  0.00  0.00    +0.292 HD
ENDBRANCH  11  21
ENDBRANCH   1  14
BRANCH   5  23
ATOM     23  S   UNL     1       0.795  -0.476   4.656  0.00  0.00    +0.109 S 
ATOM     24  O   UNL     1       1.185  -1.466   5.599  0.00  0.00    -0.138 OA
ATOM     25  O   UNL     1       1.217   0.873   4.806  0.00  0.00    -0.138 OA
BRANCH  23  26
ATOM     26  O   UNL     1      -0.722  -0.422   4.755  0.00  0.00    -0.347 OA
BRANCH  26  27
ATOM     27  C   UNL     1      -1.282   0.626   4.094  0.00  0.00    +0.156 A 
ATOM     28  C   UNL     1      -1.396   1.859   4.718  0.00  0.00    +0.048 A 
ATOM     29  C   UNL     1      -1.965   2.923   4.045  0.00  0.00    +0.004 A 
ATOM     30  C   UNL     1      -2.421   2.758   2.750  0.00  0.00    +0.000 A 
ATOM     31  C   UNL     1      -2.309   1.530   2.126  0.00  0.00    +0.004 A 
ATOM     32  C   UNL     1      -1.735   0.465   2.793  0.00  0.00    +0.048 A 
ENDBRANCH  26  27
ENDBRANCH  23  26
ENDBRANCH   5  23
TORSDOF 6
