REMARK  Name = ZINC11591413
REMARK  4 active torsions:
REMARK  status: ('A' for Active; 'I' for Inactive)
REMARK    1  A    between atoms: N_13  and  C_17
REMARK    2  A    between atoms: C_17  and  C_18
REMARK    3  A    between atoms: N_20  and  C_21
REMARK    4  A    between atoms: C_21  and  C_22
REMARK                            x       y       z     vdW  Elec       q    Type
REMARK                         _______ _______ _______ _____ _____    ______ ____
ROOT
ATOM      1  C   UNL     1       2.394   0.022  -0.028  0.00  0.00    +0.001 A 
ATOM      2  C   UNL     1       1.204  -0.682  -0.017  0.00  0.00    +0.004 A 
ATOM      3  C   UNL     1       0.002  -0.004   0.002  0.00  0.00    +0.046 A 
ATOM      4  C   UNL     1      -0.017   1.387   0.010  0.00  0.00    +0.126 A 
ATOM      5  C   UNL     1       1.177   2.090   0.002  0.00  0.00    +0.027 A 
ATOM      6  C   UNL     1       2.379   1.403  -0.018  0.00  0.00    +0.010 A 
ATOM      7  C   UNL     1       1.193   3.592   0.021  0.00  0.00    +0.144 C 
ATOM      8  C   UNL     1      -0.171   4.153  -0.368  0.00  0.00    +0.081 C 
ATOM      9  C   UNL     1      -1.248   3.393   0.418  0.00  0.00    +0.232 C 
ATOM     10  O   UNL     1      -1.217   2.022   0.019  0.00  0.00    -0.492 OA
ATOM     11  C   UNL     1       2.263   4.120  -0.907  0.00  0.00    +0.252 C 
ATOM     12  O   UNL     1       2.340   3.957  -2.106  0.00  0.00    -0.272 OA
ATOM     13  N   UNL     1       3.114   4.810  -0.119  0.00  0.00    -0.215 N 
ATOM     14  C   UNL     1       2.728   4.787   1.162  0.00  0.00    +0.310 C 
ATOM     15  O   UNL     1       3.334   5.339   2.060  0.00  0.00    -0.252 OA
ATOM     16  N   UNL     1       1.593   4.086   1.345  0.00  0.00    -0.281 N 
ATOM     17  H   UNL     1       1.132   3.936   2.185  0.00  0.00    +0.152 HD
ENDROOT
BRANCH  13  18
ATOM     18  C   UNL     1       4.312   5.498  -0.607  0.00  0.00    +0.213 C 
BRANCH  18  19
ATOM     19  C   UNL     1       3.960   6.914  -0.983  0.00  0.00    +0.231 C 
ATOM     20  O   UNL     1       2.820   7.309  -0.857  0.00  0.00    -0.274 OA
ATOM     21  N   UNL     1       4.911   7.741  -1.461  0.00  0.00    -0.307 N 
ATOM     22  H   UNL     1       5.822   7.425  -1.562  0.00  0.00    +0.149 HD
BRANCH  21  23
ATOM     23  C   UNL     1       4.568   9.118  -1.827  0.00  0.00    +0.178 C 
BRANCH  23  24
ATOM     24  C   UNL     1       5.800   9.826  -2.328  0.00  0.00    +0.122 A 
ATOM     25  C   UNL     1       6.221   9.864  -3.605  0.00  0.00    +0.046 A 
ATOM     26  C   UNL     1       7.406  10.634  -3.623  0.00  0.00    +0.041 A 
ATOM     27  C   UNL     1       7.644  11.013  -2.355  0.00  0.00    +0.195 A 
ATOM     28  O   UNL     1       6.668  10.520  -1.575  0.00  0.00    -0.466 OA
ENDBRANCH  23  24
ENDBRANCH  21  23
ENDBRANCH  18  19
ENDBRANCH  13  18
TORSDOF 4
