REMARK  Name = ZINC01464479
REMARK  6 active torsions:
REMARK  status: ('A' for Active; 'I' for Inactive)
REMARK    1  A    between atoms: C_1  and  N_2
REMARK    2  A    between atoms: N_2  and  C_3
REMARK    3  A    between atoms: N_2  and  C_4
REMARK    4  A    between atoms: C_7  and  C_10
REMARK    5  A    between atoms: C_20  and  C_22
REMARK    6  A    between atoms: C_22  and  C_23
REMARK                            x       y       z     vdW  Elec       q    Type
REMARK                         _______ _______ _______ _____ _____    ______ ____
ROOT
ATOM      1  C   UNL     1      -6.740   1.671   5.932  0.00  0.00    +0.028 C 
ATOM      2  C   UNL     1      -5.719   1.292   5.117  0.00  0.00    +0.082 A 
ATOM      3  C   UNL     1      -5.343   1.804   3.796  0.00  0.00    +0.287 A 
ATOM      4  O   UNL     1      -5.977   2.699   3.268  0.00  0.00    -0.265 OA
ATOM      5  N   UNL     1      -4.279   1.258   3.184  0.00  0.00    -0.170 N 
ATOM      6  C   UNL     1      -3.604   0.253   3.826  0.00  0.00    +0.201 A 
ATOM      7  S   UNL     1      -4.473   0.037   5.365  0.00  0.00    -0.044 S 
ATOM      8  N   UNL     1      -2.554  -0.352   3.326  0.00  0.00    -0.181 NA
ATOM      9  C   UNL     1      -2.076  -0.008   2.124  0.00  0.00    +0.296 A 
ATOM     10  O   UNL     1      -1.098  -0.569   1.655  0.00  0.00    -0.264 OA
ATOM     11  C   UNL     1      -2.756   1.063   1.386  0.00  0.00    +0.132 A 
ATOM     12  N   UNL     1      -3.788   1.647   1.908  0.00  0.00    -0.161 NA
ENDROOT
BRANCH   1  16
ATOM     13  C   UNL     1      -9.681   4.367   4.527  0.00  0.00    +0.029 A 
ATOM     14  C   UNL     1      -9.164   4.511   5.812  0.00  0.00    +0.023 A 
ATOM     15  C   UNL     1      -8.214   3.643   6.270  0.00  0.00    +0.010 A 
ATOM     16  C   UNL     1      -7.760   2.605   5.445  0.00  0.00    -0.024 A 
ATOM     17  C   UNL     1      -8.279   2.467   4.150  0.00  0.00    +0.010 A 
ATOM     18  C   UNL     1      -9.232   3.337   3.703  0.00  0.00    +0.023 A 
BRANCH  13  20
ATOM     19  C   UNL     1     -11.214   6.257   4.969  0.00  0.00    +0.129 C 
ATOM     20  N   UNL     1     -10.648   5.253   4.064  0.00  0.00    -0.336 N 
ATOM     21  C   UNL     1     -11.101   5.183   2.673  0.00  0.00    +0.129 C 
ENDBRANCH  13  20
ENDBRANCH   1  16
BRANCH  11  22
ATOM     22  C   UNL     1      -2.253   1.484   0.030  0.00  0.00    +0.098 C 
BRANCH  22  23
ATOM     23  C   UNL     1      -0.879   2.087   0.169  0.00  0.00    -0.041 A 
ATOM     24  C   UNL     1       0.241   1.283   0.078  0.00  0.00    +0.004 A 
ATOM     25  C   UNL     1       1.502   1.837   0.200  0.00  0.00    +0.000 A 
ATOM     26  C   UNL     1       1.642   3.195   0.418  0.00  0.00    +0.000 A 
ATOM     27  C   UNL     1       0.521   3.999   0.514  0.00  0.00    +0.000 A 
ATOM     28  C   UNL     1      -0.739   3.444   0.392  0.00  0.00    +0.004 A 
ENDBRANCH  22  23
ENDBRANCH  11  22
TORSDOF 4
