REMARK  Name = ZINC13898547
REMARK  3 active torsions:
REMARK  status: ('A' for Active; 'I' for Inactive)
REMARK    1  A    between atoms: C_1  and  C_2
REMARK    2  A    between atoms: C_2  and  C_5
REMARK    3  A    between atoms: N_3  and  O_4
REMARK                            x       y       z     vdW  Elec       q    Type
REMARK                         _______ _______ _______ _____ _____    ______ ____
ROOT
ATOM      1  C   UNL     1      -0.047  -0.918  -1.151  0.00  0.00    +0.084 A 
ATOM      2  C   UNL     1       0.121  -0.453  -2.446  0.00  0.00    +0.028 A 
ATOM      3  C   UNL     1       0.029  -1.389  -3.510  0.00  0.00    +0.019 A 
ATOM      4  C   UNL     1       0.385  -1.021  -4.815  0.00  0.00    +0.026 A 
ATOM      5  C   UNL     1       0.331  -1.945  -5.820  0.00  0.00    +0.019 A 
ATOM      6  C   UNL     1      -0.082  -3.246  -5.561  0.00  0.00    +0.019 A 
ATOM      7  C   UNL     1      -0.455  -3.624  -4.288  0.00  0.00    +0.048 A 
ATOM      8  C   UNL     1      -0.415  -2.700  -3.253  0.00  0.00    +0.139 A 
ATOM      9  O   UNL     1      -0.820  -3.047  -2.008  0.00  0.00    -0.422 OA
ATOM     10  C   UNL     1      -0.270  -2.365  -0.974  0.00  0.00    +0.346 A 
ATOM     11  O   UNL     1       0.026  -2.924   0.066  0.00  0.00    -0.244 OA
ATOM     12 BR   UNL     1       0.822  -1.449  -7.577  0.00  0.00    -0.050 Br
ENDROOT
BRANCH   1  14
ATOM     13  C   UNL     1      -1.238   0.739   0.428  0.00  0.00    +0.070 C 
ATOM     14  C   UNL     1       0.002  -0.004   0.002  0.00  0.00    +0.091 C 
ATOM     15  N   UNL     1       1.111   0.162   0.651  0.00  0.00    -0.092 NA
BRANCH  15  16
ATOM     16  O   UNL     1       2.301  -0.448   0.185  0.00  0.00    -0.409 OA
ATOM     17  H   UNL     1       3.076  -0.267   0.734  0.00  0.00    +0.328 HD
ENDBRANCH  15  16
ENDBRANCH   1  14
TORSDOF 2
