REMARK  Name = ZINC61049693
REMARK  7 active torsions:
REMARK  status: ('A' for Active; 'I' for Inactive)
REMARK    1  A    between atoms: C_1  and  C_2
REMARK    2  A    between atoms: C_2  and  C_3
REMARK    3  A    between atoms: C_4  and  C_8
REMARK    4  A    between atoms: N_10  and  N_11
REMARK    5  A    between atoms: C_17  and  C_21
REMARK    6  A    between atoms: C_18  and  C_19
REMARK    7  A    between atoms: C_18  and  C_20
REMARK                            x       y       z     vdW  Elec       q    Type
REMARK                         _______ _______ _______ _____ _____    ______ ____
ROOT
ATOM      1  C   UNL     1      -1.875   0.236   2.820  0.00  0.00    +0.273 C 
ATOM      2  O   UNL     1      -1.059   1.071   3.160  0.00  0.00    -0.268 OA
ATOM      3  N   UNL     1      -2.598  -0.419   3.750  0.00  0.00    -0.202 N 
ATOM      4  H   UNL     1      -3.249  -1.085   3.478  0.00  0.00    +0.178 HD
ENDROOT
BRANCH   3   5
ATOM      5  N   UNL     1      -2.409  -0.138   5.109  0.00  0.00    -0.188 NA
ATOM      6  C   UNL     1      -3.168  -0.680   5.986  0.00  0.00    +0.044 C 
ATOM      7  C   UNL     1      -3.028  -0.607   7.500  0.00  0.00    +0.057 C 
ATOM      8  C   UNL     1      -4.225  -1.438   8.053  0.00  0.00    +0.001 C 
ATOM      9  C   UNL     1      -3.867  -2.914   7.698  0.00  0.00    +0.005 C 
ATOM     10  C   UNL     1      -3.986  -2.980   6.158  0.00  0.00    +0.013 C 
ATOM     11  C   UNL     1      -4.417  -1.536   5.735  0.00  0.00    +0.013 C 
ATOM     12  C   UNL     1      -5.308  -1.132   6.958  0.00  0.00    -0.021 C 
ATOM     13  C   UNL     1      -6.538  -2.030   7.098  0.00  0.00    +0.012 C 
ATOM     14  C   UNL     1      -5.687   0.350   6.923  0.00  0.00    +0.012 C 
ATOM     15  C   UNL     1      -5.051  -1.401   4.349  0.00  0.00    +0.018 C 
ENDBRANCH   3   5
BRANCH   1  17
ATOM     16  C   UNL     1      -1.450   0.482   0.273  0.00  0.00    +0.084 A 
ATOM     17  C   UNL     1      -2.073  -0.060   1.392  0.00  0.00    +0.119 A 
ATOM     18  S   UNL     1      -3.181  -1.216   0.603  0.00  0.00    +0.042 S 
ATOM     19  N   UNL     1      -2.773  -0.916  -0.937  0.00  0.00    -0.110 NA
ATOM     20  N   UNL     1      -1.869  -0.005  -0.869  0.00  0.00    -0.145 NA
BRANCH  16  22
ATOM     21  C   UNL     1      -1.045   2.928   0.333  0.00  0.00    +0.010 C 
ATOM     22  C   UNL     1      -0.388   1.547   0.366  0.00  0.00    +0.055 C 
ENDBRANCH  16  22
ENDBRANCH   1  17
TORSDOF 3
