REMARK  Name = ZINC43473983
REMARK  5 active torsions:
REMARK  status: ('A' for Active; 'I' for Inactive)
REMARK    1  A    between atoms: C_3  and  C_19
REMARK    2  A    between atoms: C_5  and  S_7
REMARK    3  A    between atoms: S_7  and  N_10
REMARK    4  A    between atoms: N_10  and  C_11
REMARK    5  A    between atoms: C_14  and  N_18
REMARK                            x       y       z     vdW  Elec       q    Type
REMARK                         _______ _______ _______ _____ _____    ______ ____
ROOT
ATOM      1  N   UNL     1       1.237  -2.946   1.557  0.00  0.00    -0.213 N 
ATOM      2  H   UNL     1       2.002  -3.432   1.901  0.00  0.00    +0.174 HD
ENDROOT
BRANCH   1   3
ATOM      3  C   UNL     1       0.191  -2.585   2.418  0.00  0.00    +0.083 A 
ATOM      4  C   UNL     1      -1.119  -2.591   1.959  0.00  0.00    +0.029 A 
ATOM      5  C   UNL     1      -2.150  -2.235   2.807  0.00  0.00    +0.025 A 
ATOM      6  C   UNL     1      -1.876  -1.873   4.119  0.00  0.00    +0.027 A 
ATOM      7  C   UNL     1      -0.566  -1.867   4.580  0.00  0.00    +0.063 A 
ATOM      8  C   UNL     1       0.465  -2.227   3.733  0.00  0.00    +0.147 A 
ATOM      9  F   UNL     1       1.740  -2.227   4.181  0.00  0.00    -0.203 F 
BRANCH   6  10
ATOM     10  N   UNL     1      -2.922  -1.513   4.978  0.00  0.00    -0.358 N 
ATOM     11  H   UNL     1      -3.837  -1.517   4.656  0.00  0.00    +0.142 HD
ATOM     12  H   UNL     1      -2.731  -1.259   5.895  0.00  0.00    +0.142 HD
ENDBRANCH   6  10
ENDBRANCH   1   3
BRANCH   1  13
ATOM     13  S   UNL     1       1.165  -2.543  -0.048  0.00  0.00    +0.072 S 
ATOM     14  O   UNL     1      -0.077  -3.033  -0.535  0.00  0.00    -0.150 OA
ATOM     15  O   UNL     1       2.410  -2.921  -0.618  0.00  0.00    -0.150 OA
BRANCH  13  20
ATOM     16  C   UNL     1      -0.221   1.230  -0.208  0.00  0.00    +0.003 A 
ATOM     17  C   UNL     1       0.933   1.982  -0.284  0.00  0.00    +0.019 A 
ATOM     18  C   UNL     1       2.177   1.348  -0.289  0.00  0.00    +0.054 A 
ATOM     19  C   UNL     1       2.244  -0.045  -0.216  0.00  0.00    +0.047 A 
ATOM     20  C   UNL     1       1.083  -0.785  -0.140  0.00  0.00    +0.110 A 
ATOM     21  C   UNL     1      -0.147  -0.150  -0.136  0.00  0.00    +0.029 A 
BRANCH  18  22
ATOM     22  C   UNL     1       3.379   2.123  -0.368  0.00  0.00    +0.099 C 
ATOM     23  N   UNL     1       4.332   2.737  -0.431  0.00  0.00    -0.191 NA
ENDBRANCH  18  22
ENDBRANCH  13  20
ENDBRANCH   1  13
TORSDOF 5
