REMARK  Name = ZINC54600565
REMARK  6 active torsions:
REMARK  status: ('A' for Active; 'I' for Inactive)
REMARK    1  A    between atoms: C_1  and  C_2
REMARK    2  A    between atoms: C_2  and  C_3
REMARK    3  A    between atoms: C_2  and  C_4
REMARK    4  A    between atoms: C_2  and  C_5
REMARK    5  A    between atoms: N_7  and  C_11
REMARK    6  A    between atoms: C_18  and  O_20
REMARK                            x       y       z     vdW  Elec       q    Type
REMARK                         _______ _______ _______ _____ _____    ______ ____
ROOT
ATOM      1  C   UNL     1       0.707  -0.490  -1.238  0.00  0.00    +0.051 C 
ATOM      2  N   UNL     1       1.222   0.237  -2.151  0.00  0.00    -0.185 NA
ATOM      3  N   UNL     1       1.807  -0.501  -3.175  0.00  0.00    -0.187 N 
ATOM      4  C   UNL     1       1.686  -1.826  -2.949  0.00  0.00    +0.241 C 
ATOM      5  O   UNL     1       2.086  -2.734  -3.647  0.00  0.00    -0.273 OA
ATOM      6  C   UNL     1       0.944  -1.933  -1.630  0.00  0.00    +0.150 C 
ENDROOT
BRANCH   3   7
ATOM      7  C   UNL     1       2.467   0.083  -4.345  0.00  0.00    +0.130 C 
ATOM      8  C   UNL     1       3.667   0.928  -3.871  0.00  0.00    +0.027 C 
ATOM      9  C   UNL     1       4.619   1.096  -5.024  0.00  0.00    +0.002 C 
ATOM     10  C   UNL     1       4.375   2.401  -5.805  0.00  0.00    +0.000 C 
ATOM     11  C   UNL     1       2.878   2.699  -6.017  0.00  0.00    +0.003 C 
ATOM     12  C   UNL     1       2.092   1.468  -6.381  0.00  0.00    +0.033 C 
ATOM     13  C   UNL     1       1.496   0.870  -5.090  0.00  0.00    +0.137 C 
BRANCH  13  14
ATOM     14  O   UNL     1       0.391   0.033  -5.437  0.00  0.00    -0.390 OA
ATOM     15  H   UNL     1      -0.302   0.485  -5.937  0.00  0.00    +0.210 HD
ENDBRANCH  13  14
ENDBRANCH   3   7
BRANCH   1  17
ATOM     16  C   UNL     1      -0.019   1.526   0.010  0.00  0.00    +0.017 C 
ATOM     17  C   UNL     1       0.002  -0.004   0.002  0.00  0.00    +0.003 C 
ATOM     18  C   UNL     1       0.742  -0.511   1.242  0.00  0.00    +0.017 C 
ATOM     19  C   UNL     1      -1.433  -0.534   0.013  0.00  0.00    +0.017 C 
ENDBRANCH   1  17
TORSDOF 3
