REMARK  Name = ZINC40569381
REMARK  8 active torsions:
REMARK  status: ('A' for Active; 'I' for Inactive)
REMARK    1  A    between atoms: C_1  and  C_2
REMARK    2  A    between atoms: C_2  and  C_3
REMARK    3  A    between atoms: C_3  and  C_4
REMARK    4  A    between atoms: N_10  and  C_11
REMARK    5  A    between atoms: C_11  and  C_12
REMARK    6  A    between atoms: C_18  and  C_26
REMARK    7  A    between atoms: C_20  and  C_24
REMARK    8  A    between atoms: C_21  and  N_23
REMARK                            x       y       z     vdW  Elec       q    Type
REMARK                         _______ _______ _______ _____ _____    ______ ____
ROOT
ATOM      1  C   UNL     1      -1.421  -2.271  -0.161  0.00  0.00    +0.026 A 
ATOM      2  C   UNL     1      -1.575  -3.143   0.858  0.00  0.00    +0.068 A 
ATOM      3  C   UNL     1      -1.550  -4.530   0.602  0.00  0.00    +0.141 A 
ATOM      4  C   UNL     1      -1.368  -4.968  -0.693  0.00  0.00    +0.072 A 
ATOM      5  C   UNL     1      -1.212  -4.026  -1.718  0.00  0.00    +0.259 A 
ATOM      6  O   UNL     1      -1.050  -4.398  -2.869  0.00  0.00    -0.267 OA
ATOM      7  N   UNL     1      -1.247  -2.710  -1.436  0.00  0.00    -0.309 N 
ATOM      8  C   UNL     1      -1.336  -6.437  -1.011  0.00  0.00    +0.103 C 
ATOM      9  C   UNL     1      -1.123  -7.234   0.246  0.00  0.00    +0.098 C 
ATOM     10  C   UNL     1      -1.316  -6.683   1.468  0.00  0.00    +0.199 C 
ATOM     11  O   UNL     1      -1.704  -5.405   1.619  0.00  0.00    -0.441 OA
ENDROOT
BRANCH   8  12
ATOM     12  C   UNL     1      -2.645  -6.841  -1.639  0.00  0.00    -0.034 A 
ATOM     13  C   UNL     1      -3.827  -6.668  -0.944  0.00  0.00    +0.007 A 
ATOM     14  C   UNL     1      -5.028  -7.037  -1.519  0.00  0.00    +0.038 A 
ATOM     15  C   UNL     1      -5.047  -7.581  -2.793  0.00  0.00    +0.123 A 
ATOM     16  C   UNL     1      -3.862  -7.753  -3.488  0.00  0.00    +0.038 A 
ATOM     17  C   UNL     1      -2.663  -7.378  -2.913  0.00  0.00    +0.007 A 
ATOM     18  F   UNL     1      -6.221  -7.942  -3.356  0.00  0.00    -0.205 F 
ENDBRANCH   8  12
BRANCH  10  19
ATOM     19  N   UNL     1      -1.109  -7.453   2.586  0.00  0.00    -0.328 N 
ATOM     20  H   UNL     1      -0.829  -8.377   2.494  0.00  0.00    +0.145 HD
ATOM     21  H   UNL     1      -1.242  -7.072   3.468  0.00  0.00    +0.145 HD
ENDBRANCH  10  19
BRANCH   9  22
ATOM     22  C   UNL     1      -0.710  -8.602   0.150  0.00  0.00    +0.101 C 
ATOM     23  N   UNL     1      -0.382  -9.687   0.073  0.00  0.00    -0.191 NA
ENDBRANCH   9  22
BRANCH   1  24
ATOM     24  C   UNL     1      -1.450  -0.790   0.117  0.00  0.00    +0.053 C 
BRANCH  24  26
ATOM     25  C   UNL     1      -0.043   1.223   0.577  0.00  0.00    +0.004 C 
ATOM     26  C   UNL     1      -0.028  -0.296   0.391  0.00  0.00    +0.003 C 
ENDBRANCH  24  26
ENDBRANCH   1  24
BRANCH   7  27
ATOM     27  C   UNL     1      -1.089  -1.736  -2.518  0.00  0.00    +0.156 C 
BRANCH  27  28
ATOM     28  C   UNL     1      -2.467  -1.333  -3.048  0.00  0.00    +0.138 C 
ATOM     29  C   UNL     1      -2.320  -0.348  -4.234  0.00  0.00    +0.035 C 
ATOM     30  C   UNL     1      -3.659  -0.587  -4.984  0.00  0.00    +0.031 C 
ATOM     31  C   UNL     1      -3.904  -2.093  -4.744  0.00  0.00    +0.160 C 
ATOM     32  O   UNL     1      -3.147  -2.477  -3.589  0.00  0.00    -0.375 OA
ENDBRANCH  27  28
ENDBRANCH   7  27
TORSDOF 7
