REMARK  Name = ZINC58952355
REMARK  7 active torsions:
REMARK  status: ('A' for Active; 'I' for Inactive)
REMARK    1  A    between atoms: C_1  and  C_2
REMARK    2  A    between atoms: N_7  and  C_9
REMARK    3  A    between atoms: C_9  and  C_10
REMARK    4  A    between atoms: C_15  and  C_16
REMARK    5  A    between atoms: C_16  and  N_17
REMARK    6  A    between atoms: C_18  and  C_20
REMARK    7  A    between atoms: C_23  and  N_26
REMARK                            x       y       z     vdW  Elec       q    Type
REMARK                         _______ _______ _______ _____ _____    ______ ____
ROOT
ATOM      1  C   UNL     1       1.397  -3.537   2.381  0.00  0.00    -0.059 A 
ATOM      2  C   UNL     1       0.317  -4.018   3.098  0.00  0.00    +0.002 A 
ATOM      3  C   UNL     1       0.095  -5.379   3.183  0.00  0.00    +0.000 A 
ATOM      4  C   UNL     1       0.952  -6.260   2.550  0.00  0.00    +0.000 A 
ATOM      5  C   UNL     1       2.031  -5.779   1.832  0.00  0.00    +0.005 A 
ATOM      6  C   UNL     1       2.251  -4.417   1.744  0.00  0.00    -0.029 A 
ENDROOT
BRANCH   1   7
ATOM      7  C   UNL     1       1.639  -2.052   2.288  0.00  0.00    -0.043 C 
BRANCH   7  13
ATOM      8  C   UNL     1       4.483   1.619   3.837  0.00  0.00    +0.005 C 
ATOM      9  C   UNL     1       4.127   0.145   4.039  0.00  0.00    -0.031 C 
ATOM     10  C   UNL     1       3.655  -0.075   5.479  0.00  0.00    -0.001 C 
ATOM     11  C   UNL     1       3.228  -1.536   5.648  0.00  0.00    -0.018 C 
ATOM     12  C   UNL     1       2.139  -1.865   4.625  0.00  0.00    -0.078 C 
ATOM     13  N   UNL     1       2.661  -1.661   3.268  0.00  0.00    +0.383 N 
ATOM     14  C   UNL     1       3.006  -0.247   3.074  0.00  0.00    -0.075 C 
ATOM     15  H   UNL     1       3.485  -2.228   3.136  0.00  0.00    -0.081 HD
ENDBRANCH   7  13
ENDBRANCH   1   7
BRANCH   6  16
ATOM     16  C   UNL     1       3.424  -3.893   0.957  0.00  0.00    +0.140 C 
BRANCH  16  17
ATOM     17  N   UNL     1       4.527  -3.586   1.870  0.00  0.00    -0.307 N 
ATOM     18  C   UNL     1       5.645  -2.996   1.403  0.00  0.00    +0.244 C 
ATOM     19  O   UNL     1       5.738  -2.719   0.223  0.00  0.00    -0.270 OA
ATOM     20  H   UNL     1       4.453  -3.807   2.812  0.00  0.00    +0.149 HD
BRANCH  18  21
ATOM     21  C   UNL     1       6.758  -2.686   2.325  0.00  0.00    +0.037 A 
ATOM     22  C   UNL     1       6.657  -3.008   3.679  0.00  0.00    +0.015 A 
ATOM     23  C   UNL     1       7.700  -2.717   4.534  0.00  0.00    +0.033 A 
ATOM     24  C   UNL     1       8.844  -2.106   4.052  0.00  0.00    +0.126 A 
ATOM     25  C   UNL     1       8.950  -1.784   2.711  0.00  0.00    +0.033 A 
ATOM     26  C   UNL     1       7.918  -2.075   1.844  0.00  0.00    +0.015 A 
BRANCH  24  27
ATOM     27  N   UNL     1       9.958  -1.796   4.976  0.00  0.00    +0.056 N 
ATOM     28  O   UNL     1       9.868  -2.076   6.148  0.00  0.00    -0.126 OA
ATOM     29  O   UNL     1      10.959  -1.262   4.557  0.00  0.00    -0.126 OA
ENDBRANCH  24  27
ENDBRANCH  18  21
ENDBRANCH  16  17
ENDBRANCH   6  16
TORSDOF 6
