REMARK  Name = ZINC60214335
REMARK  7 active torsions:
REMARK  status: ('A' for Active; 'I' for Inactive)
REMARK    1  A    between atoms: C_1  and  N_2
REMARK    2  A    between atoms: N_2  and  C_3
REMARK    3  A    between atoms: N_2  and  C_4
REMARK    4  A    between atoms: C_7  and  C_11
REMARK    5  A    between atoms: C_11  and  N_12
REMARK    6  A    between atoms: C_13  and  C_15
REMARK    7  A    between atoms: C_15  and  N_16
REMARK                            x       y       z     vdW  Elec       q    Type
REMARK                         _______ _______ _______ _____ _____    ______ ____
ROOT
ATOM      1  C   UNL     1       0.030  -6.610  -5.429  0.00  0.00    +0.213 C 
ENDROOT
BRANCH   1   2
ATOM      2  N   UNL     1       0.030  -7.335  -6.701  0.00  0.00    -0.215 N 
ATOM      3  C   UNL     1      -1.087  -7.718  -7.357  0.00  0.00    +0.251 C 
ATOM      4  O   UNL     1      -2.237  -7.535  -7.020  0.00  0.00    -0.272 OA
ATOM      5  C   UNL     1      -0.598  -8.421  -8.597  0.00  0.00    +0.138 C 
ATOM      6  C   UNL     1      -1.111  -7.729  -9.866  0.00  0.00    +0.045 C 
ATOM      7  C   UNL     1      -2.366  -8.564 -10.207  0.00  0.00    +0.038 C 
ATOM      8  C   UNL     1      -2.116  -9.926  -9.593  0.00  0.00    -0.042 A 
ATOM      9  C   UNL     1      -1.094  -9.840  -8.662  0.00  0.00    -0.012 A 
ATOM     10  C   UNL     1      -0.697 -10.973  -7.973  0.00  0.00    +0.006 A 
ATOM     11  C   UNL     1      -1.314 -12.186  -8.210  0.00  0.00    +0.000 A 
ATOM     12  C   UNL     1      -2.334 -12.271  -9.139  0.00  0.00    +0.000 A 
ATOM     13  C   UNL     1      -2.732 -11.143  -9.829  0.00  0.00    +0.004 A 
ATOM     14  N   UNL     1       0.861  -8.357  -8.505  0.00  0.00    -0.281 N 
ATOM     15  C   UNL     1       1.137  -7.697  -7.363  0.00  0.00    +0.310 C 
ATOM     16  O   UNL     1       2.264  -7.459  -6.975  0.00  0.00    -0.252 OA
ATOM     17  H   UNL     1       1.500  -8.715  -9.141  0.00  0.00    +0.152 HD
ENDBRANCH   1   2
BRANCH   1  19
ATOM     18  N   UNL     1       0.012  -4.256  -4.667  0.00  0.00    -0.310 N 
ATOM     19  C   UNL     1       0.014  -5.127  -5.696  0.00  0.00    +0.231 C 
ATOM     20  O   UNL     1       0.003  -4.716  -6.837  0.00  0.00    -0.274 OA
ATOM     21  H   UNL     1       0.021  -4.585  -3.754  0.00  0.00    +0.149 HD
BRANCH  18  22
ATOM     22  C   UNL     1      -0.004  -2.815  -4.927  0.00  0.00    +0.139 C 
BRANCH  22  26
ATOM     23  C   UNL     1       0.000  -0.697  -1.213  0.00  0.00    +0.065 A 
ATOM     24  C   UNL     1       1.200  -1.030  -1.826  0.00  0.00    +0.026 A 
ATOM     25  C   UNL     1       1.195  -1.715  -3.026  0.00  0.00    +0.007 A 
ATOM     26  C   UNL     1      -0.004  -2.068  -3.618  0.00  0.00    -0.027 A 
ATOM     27  C   UNL     1      -1.202  -1.738  -3.011  0.00  0.00    +0.045 A 
ATOM     28  C   UNL     1      -1.204  -1.058  -1.807  0.00  0.00    +0.145 A 
ATOM     29  F   UNL     1      -2.375  -0.741  -1.212  0.00  0.00    -0.204 F 
BRANCH  23  31
ATOM     30  C   UNL     1      -0.018   1.461   0.010  0.00  0.00    +0.129 C 
ATOM     31  N   UNL     1       0.002  -0.004   0.002  0.00  0.00    -0.334 N 
ATOM     32  C   UNL     1       0.024  -0.743   1.267  0.00  0.00    +0.129 C 
ENDBRANCH  23  31
ENDBRANCH  22  26
ENDBRANCH  18  22
ENDBRANCH   1  19
TORSDOF 5
