REMARK  Name = ZINC04225802
REMARK  6 active torsions:
REMARK  status: ('A' for Active; 'I' for Inactive)
REMARK    1  A    between atoms: C_1  and  C_2
REMARK    2  A    between atoms: C_2  and  O_3
REMARK    3  A    between atoms: O_3  and  C_4
REMARK    4  A    between atoms: C_7  and  N_10
REMARK    5  A    between atoms: C_11  and  C_13
REMARK    6  A    between atoms: N_19  and  C_22
REMARK                            x       y       z     vdW  Elec       q    Type
REMARK                         _______ _______ _______ _____ _____    ______ ____
ROOT
ATOM      1  C   UNL     1       3.429   6.566  -0.547  0.00  0.00    +0.118 A 
ATOM      2  C   UNL     1       4.536   5.770  -0.772  0.00  0.00    +0.106 A 
ATOM      3  N   UNL     1       4.404   4.419  -0.729  0.00  0.00    -0.313 N 
ATOM      4  H   UNL     1       5.205   3.844  -0.896  0.00  0.00    +0.170 HD
ATOM      5  C   UNL     1       3.222   3.838  -0.468  0.00  0.00    +0.334 A 
ATOM      6  O   UNL     1       3.157   2.624  -0.437  0.00  0.00    -0.246 OA
ATOM      7  N   UNL     1       2.107   4.554  -0.246  0.00  0.00    -0.228 N 
ATOM      8  C   UNL     1       2.145   5.904  -0.268  0.00  0.00    +0.273 A 
ATOM      9  O   UNL     1       1.140   6.558  -0.063  0.00  0.00    -0.266 OA
ENDROOT
BRANCH   7  10
ATOM     10  C   UNL     1       0.897   3.896   0.018  0.00  0.00    +0.056 A 
ATOM     11  C   UNL     1       0.266   3.175  -0.987  0.00  0.00    +0.029 A 
ATOM     12  C   UNL     1      -0.926   2.527  -0.726  0.00  0.00    +0.042 A 
ATOM     13  C   UNL     1      -1.488   2.591   0.537  0.00  0.00    +0.142 A 
ATOM     14  C   UNL     1      -0.863   3.315   1.540  0.00  0.00    +0.078 A 
ATOM     15  C   UNL     1       0.330   3.965   1.282  0.00  0.00    +0.049 A 
ATOM     16 CL   UNL     1      -1.573   3.400   3.121  0.00  0.00    -0.081 Cl
ATOM     17  F   UNL     1      -2.651   1.951   0.792  0.00  0.00    -0.204 F 
ENDBRANCH   7  10
BRANCH   1  19
ATOM     18  N   UNL     1       2.492   8.791  -0.184  0.00  0.00    -0.281 N 
ATOM     19  C   UNL     1       3.532   8.032  -0.584  0.00  0.00    +0.255 C 
ATOM     20  O   UNL     1       4.556   8.561  -0.975  0.00  0.00    -0.270 OA
ATOM     21  H   UNL     1       1.725   8.377   0.242  0.00  0.00    +0.155 HD
BRANCH  18  25
ATOM     22  C   UNL     1       2.570  12.916  -0.781  0.00  0.00    +0.121 A 
ATOM     23  C   UNL     1       1.356  12.254  -0.673  0.00  0.00    +0.047 A 
ATOM     24  C   UNL     1       1.329  10.888  -0.475  0.00  0.00    +0.027 A 
ATOM     25  C   UNL     1       2.518  10.177  -0.385  0.00  0.00    +0.034 A 
ATOM     26  C   UNL     1       3.733  10.841  -0.488  0.00  0.00    +0.027 A 
ATOM     27  C   UNL     1       3.758  12.206  -0.691  0.00  0.00    +0.047 A 
BRANCH  22  28
ATOM     28  O   UNL     1       2.595  14.262  -0.977  0.00  0.00    -0.492 OA
BRANCH  28  30
ATOM     29  C   UNL     1       3.708  16.383  -1.296  0.00  0.00    +0.048 C 
ATOM     30  C   UNL     1       3.881  14.878  -1.079  0.00  0.00    +0.225 C 
ENDBRANCH  28  30
ENDBRANCH  22  28
ENDBRANCH  18  25
ENDBRANCH   1  19
TORSDOF 5
