REMARK  Name = ZINC37553142
REMARK  3 active torsions:
REMARK  status: ('A' for Active; 'I' for Inactive)
REMARK    1  A    between atoms: C_1  and  C_2
REMARK    2  A    between atoms: N_5  and  S_8
REMARK    3  A    between atoms: S_8  and  C_11
REMARK                            x       y       z     vdW  Elec       q    Type
REMARK                         _______ _______ _______ _____ _____    ______ ____
ROOT
ATOM      1  S   UNL     1      -1.173  -3.668   2.148  0.00  0.00    +0.080 S 
ATOM      2  O   UNL     1      -0.421  -3.521   3.344  0.00  0.00    -0.151 OA
ATOM      3  O   UNL     1      -2.589  -3.544   2.119  0.00  0.00    -0.151 OA
ENDROOT
BRANCH   1   4
ATOM      4  C   UNL     1      -0.795  -5.265   1.507  0.00  0.00    +0.218 A 
ATOM      5  C   UNL     1      -1.567  -6.000   0.675  0.00  0.00    +0.175 A 
ATOM      6  N   UNL     1      -0.938  -7.149   0.415  0.00  0.00    -0.214 NA
ATOM      7  C   UNL     1       0.219  -7.169   1.062  0.00  0.00    +0.141 A 
ATOM      8  N   UNL     1       0.339  -5.992   1.754  0.00  0.00    -0.283 N 
ATOM      9  C   UNL     1       1.449  -5.743   2.508  0.00  0.00    +0.094 A 
ATOM     10  C   UNL     1       2.446  -6.650   2.583  0.00  0.00    +0.018 A 
ATOM     11  C   UNL     1       2.354  -7.863   1.882  0.00  0.00    +0.005 A 
ATOM     12  C   UNL     1       1.250  -8.127   1.133  0.00  0.00    +0.047 A 
ATOM     13 CL   UNL     1      -3.116  -5.528   0.050  0.00  0.00    -0.058 Cl
ENDBRANCH   1   4
BRANCH   1  18
ATOM     14  C   UNL     1      -0.019   1.526   0.010  0.00  0.00    +0.007 C 
ATOM     15  C   UNL     1       0.002  -0.004   0.002  0.00  0.00    -0.012 C 
ATOM     16  C   UNL     1      -1.434  -0.533   0.011  0.00  0.00    +0.020 C 
ATOM     17  C   UNL     1      -1.409  -2.065  -0.032  0.00  0.00    +0.110 C 
ATOM     18  N   UNL     1      -0.578  -2.556   1.075  0.00  0.00    -0.175 NA
ATOM     19  C   UNL     1       0.791  -2.042   1.212  0.00  0.00    +0.110 C 
ATOM     20  C   UNL     1       0.742  -0.511   1.242  0.00  0.00    +0.020 C 
ENDBRANCH   1  18
TORSDOF 2
