REMARK  Name = ZINC58245240
REMARK  9 active torsions:
REMARK  status: ('A' for Active; 'I' for Inactive)
REMARK    1  A    between atoms: C_1  and  C_2
REMARK    2  A    between atoms: C_4  and  C_28
REMARK    3  A    between atoms: C_5  and  C_27
REMARK    4  A    between atoms: C_6  and  S_9
REMARK    5  A    between atoms: C_7  and  C_8
REMARK    6  A    between atoms: S_9  and  N_12
REMARK    7  A    between atoms: N_12  and  C_13
REMARK    8  A    between atoms: C_18  and  N_19
REMARK    9  A    between atoms: C_20  and  C_26
REMARK                            x       y       z     vdW  Elec       q    Type
REMARK                         _______ _______ _______ _____ _____    ______ ____
ROOT
ATOM      1  N   UNL     1       1.555  -3.232   3.149  0.00  0.00    -0.096 NA
ENDROOT
BRANCH   1   2
ATOM      2  C   UNL     1       1.848  -3.907   4.339  0.00  0.00    +0.098 A 
ATOM      3  C   UNL     1       0.822  -4.301   5.186  0.00  0.00    +0.029 A 
ATOM      4  C   UNL     1       1.113  -4.968   6.360  0.00  0.00    +0.002 A 
ATOM      5  C   UNL     1       2.425  -5.245   6.696  0.00  0.00    +0.002 A 
ATOM      6  C   UNL     1       3.454  -4.856   5.858  0.00  0.00    +0.028 A 
ATOM      7  C   UNL     1       3.171  -4.191   4.675  0.00  0.00    +0.076 A 
BRANCH   7   8
ATOM      8  N   UNL     1       4.213  -3.801   3.820  0.00  0.00    -0.264 N 
ATOM      9  C   UNL     1       4.897  -2.594   3.866  0.00  0.00    +0.042 A 
ATOM     10  C   UNL     1       5.807  -2.603   2.897  0.00  0.00    +0.109 A 
ATOM     11  N   UNL     1       5.707  -3.815   2.230  0.00  0.00    -0.312 N 
ATOM     12  H   UNL     1       6.250  -4.097   1.477  0.00  0.00    +0.170 HD
ATOM     13  C   UNL     1       4.730  -4.535   2.815  0.00  0.00    +0.331 A 
ATOM     14  O   UNL     1       4.373  -5.653   2.490  0.00  0.00    -0.246 OA
ATOM     15  C   UNL     1       4.650  -1.471   4.841  0.00  0.00    +0.065 C 
ENDBRANCH   7   8
ENDBRANCH   1   2
BRANCH   1  16
ATOM     16  S   UNL     1      -0.017  -2.896   2.752  0.00  0.00    +0.092 S 
ATOM     17  O   UNL     1      -0.489  -1.966   3.718  0.00  0.00    -0.148 OA
ATOM     18  O   UNL     1      -0.654  -4.145   2.522  0.00  0.00    -0.148 OA
BRANCH  16  24
ATOM     19  C   UNL     1      -0.350  -2.858  -2.464  0.00  0.00    +0.044 C 
ATOM     20  C   UNL     1      -0.155  -2.091  -1.181  0.00  0.00    -0.045 A 
ATOM     21  C   UNL     1       0.041  -0.723  -1.218  0.00  0.00    +0.007 A 
ATOM     22  C   UNL     1       0.220  -0.018  -0.042  0.00  0.00    -0.045 A 
ATOM     23  C   UNL     1       0.202  -0.682   1.171  0.00  0.00    -0.021 A 
ATOM     24  C   UNL     1       0.005  -2.050   1.207  0.00  0.00    +0.117 A 
ATOM     25  C   UNL     1      -0.178  -2.753   0.031  0.00  0.00    -0.021 A 
ATOM     26  C   UNL     1      -0.398  -4.244   0.071  0.00  0.00    +0.046 C 
ATOM     27  C   UNL     1       0.398   0.085   2.453  0.00  0.00    +0.046 C 
ATOM     28  C   UNL     1       0.434   1.473  -0.082  0.00  0.00    +0.044 C 
ENDBRANCH  16  24
ENDBRANCH   1  16
TORSDOF 4
