REMARK  Name = ZINC41678054
REMARK  5 active torsions:
REMARK  status: ('A' for Active; 'I' for Inactive)
REMARK    1  A    between atoms: C_1  and  C_2
REMARK    2  A    between atoms: C_7  and  C_9
REMARK    3  A    between atoms: C_7  and  C_10
REMARK    4  A    between atoms: C_11  and  C_13
REMARK    5  A    between atoms: C_15  and  N_20
REMARK                            x       y       z     vdW  Elec       q    Type
REMARK                         _______ _______ _______ _____ _____    ______ ____
ROOT
ATOM      1  C   UNL     1       0.357   1.601  -0.081  0.00  0.00    +0.039 C 
ATOM      2  C   UNL     1       0.356   0.072  -0.041  0.00  0.00    +0.133 C 
ATOM      3  C   UNL     1       0.880  -0.476  -1.373  0.00  0.00    +0.139 C 
ATOM      4  N   UNL     1       1.046  -1.933  -1.243  0.00  0.00    -0.292 N 
ATOM      5  C   UNL     1       1.800  -2.442  -0.087  0.00  0.00    +0.142 C 
ATOM      6  C   UNL     1       1.232  -1.799   1.183  0.00  0.00    +0.080 C 
ATOM      7  O   UNL     1       1.203  -0.379   1.020  0.00  0.00    -0.368 OA
ATOM      8  C   UNL     1       2.118  -2.158   2.378  0.00  0.00    +0.043 C 
ATOM      9  C   UNL     1      -0.188  -2.313   1.425  0.00  0.00    +0.043 C 
ATOM     10  C   UNL     1       0.523  -2.775  -2.156  0.00  0.00    +0.250 C 
ATOM     11  O   UNL     1      -0.182  -2.343  -3.048  0.00  0.00    -0.270 OA
ENDROOT
BRANCH  10  12
ATOM     12  C   UNL     1       0.805  -4.222  -2.073  0.00  0.00    +0.074 A 
ATOM     13  C   UNL     1       2.110  -4.671  -1.856  0.00  0.00    +0.048 A 
ATOM     14  C   UNL     1       2.367  -6.023  -1.779  0.00  0.00    +0.127 A 
ATOM     15  C   UNL     1       1.336  -6.937  -1.917  0.00  0.00    +0.035 A 
ATOM     16  C   UNL     1       0.042  -6.503  -2.133  0.00  0.00    +0.041 A 
ATOM     17  C   UNL     1      -0.233  -5.149  -2.207  0.00  0.00    +0.136 A 
ATOM     18  F   UNL     1      -1.498  -4.725  -2.412  0.00  0.00    -0.205 F 
BRANCH  14  19
ATOM     19  N   UNL     1       3.749  -6.499  -1.548  0.00  0.00    +0.056 N 
ATOM     20  O   UNL     1       4.651  -5.703  -1.428  0.00  0.00    -0.126 OA
ATOM     21  O   UNL     1       3.977  -7.685  -1.481  0.00  0.00    -0.126 OA
ENDBRANCH  14  19
ENDBRANCH  10  12
TORSDOF 2
