REMARK  Name = ZINC21166343
REMARK  7 active torsions:
REMARK  status: ('A' for Active; 'I' for Inactive)
REMARK    1  A    between atoms: C_1  and  C_2
REMARK    2  A    between atoms: C_2  and  C_3
REMARK    3  A    between atoms: C_3  and  C_30
REMARK    4  A    between atoms: C_13  and  C_28
REMARK    5  A    between atoms: C_14  and  C_16
REMARK    6  A    between atoms: N_18  and  C_19
REMARK    7  A    between atoms: C_25  and  C_27
REMARK                            x       y       z     vdW  Elec       q    Type
REMARK                         _______ _______ _______ _____ _____    ______ ____
ROOT
ATOM      1  C   UNL     1       2.097   5.046   1.931  0.00  0.00    +0.115 C 
ATOM      2  C   UNL     1       0.792   5.777   2.283  0.00  0.00    +0.127 C 
ATOM      3  C   UNL     1      -0.292   5.214   1.381  0.00  0.00    +0.171 C 
ATOM      4  O   UNL     1      -1.139   5.925   0.882  0.00  0.00    -0.292 OA
ATOM      5  C   UNL     1      -0.263   3.765   1.144  0.00  0.00    +0.070 A 
ATOM      6  C   UNL     1       0.867   3.033   1.529  0.00  0.00    +0.133 A 
ATOM      7  C   UNL     1       0.903   1.659   1.299  0.00  0.00    +0.050 A 
ATOM      8  C   UNL     1      -0.158   1.015   0.702  0.00  0.00    +0.050 A 
ATOM      9  C   UNL     1      -1.291   1.723   0.309  0.00  0.00    +0.137 A 
ATOM     10  C   UNL     1      -1.354   3.108   0.535  0.00  0.00    +0.038 A 
ATOM     11  C   UNL     1      -2.610   3.536   0.045  0.00  0.00    +0.008 A 
ATOM     12  C   UNL     1      -3.242   2.434  -0.439  0.00  0.00    +0.193 A 
ATOM     13  O   UNL     1      -2.450   1.355  -0.275  0.00  0.00    -0.450 OA
ATOM     14  C   UNL     1      -3.145   4.945   0.056  0.00  0.00    +0.048 C 
ATOM     15  O   UNL     1       1.918   3.644   2.124  0.00  0.00    -0.485 OA
ATOM     16  C   UNL     1       2.457   5.319   0.469  0.00  0.00    +0.056 C 
ENDROOT
BRANCH  12  17
ATOM     17  C   UNL     1      -4.582   2.421  -1.046  0.00  0.00    +0.280 C 
ATOM     18  O   UNL     1      -5.215   3.455  -1.147  0.00  0.00    -0.267 OA
ATOM     19  N   UNL     1      -5.109   1.263  -1.492  0.00  0.00    -0.306 N 
ATOM     20  H   UNL     1      -4.536   0.328  -1.401  0.00  0.00    +0.149 HD
BRANCH  19  21
ATOM     21  C   UNL     1      -6.443   1.250  -2.097  0.00  0.00    +0.076 C 
ATOM     22  C   UNL     1      -7.500   1.137  -0.997  0.00  0.00    +0.022 C 
ATOM     23  C   UNL     1      -7.284  -0.158  -0.212  0.00  0.00    +0.002 C 
ATOM     24  C   UNL     1      -7.403  -1.354  -1.158  0.00  0.00    +0.000 C 
ATOM     25  C   UNL     1      -6.345  -1.242  -2.258  0.00  0.00    +0.005 C 
ATOM     26  C   UNL     1      -6.562   0.053  -3.043  0.00  0.00    +0.006 C 
ATOM     27  C   UNL     1      -5.504   0.166  -4.143  0.00  0.00    +0.009 C 
ENDBRANCH  19  21
ENDBRANCH  12  17
BRANCH   1  29
ATOM     28  C   UNL     1       4.545   4.908   2.409  0.00  0.00    +0.008 C 
ATOM     29  C   UNL     1       3.223   5.547   2.838  0.00  0.00    +0.045 C 
ENDBRANCH   1  29
TORSDOF 3
