REMARK  Name = ZINC53630150
REMARK  10 active torsions:
REMARK  status: ('A' for Active; 'I' for Inactive)
REMARK    1  A    between atoms: C_1  and  C_2
REMARK    2  A    between atoms: C_13  and  C_15
REMARK    3  A    between atoms: C_15  and  C_16
REMARK    4  A    between atoms: N_18  and  C_19
REMARK    5  A    between atoms: C_19  and  C_20
REMARK    6  A    between atoms: C_20  and  C_21
REMARK    7  A    between atoms: C_28  and  C_29
REMARK    8  A    between atoms: C_29  and  C_30
REMARK    9  A    between atoms: C_29  and  C_31
REMARK   10  A    between atoms: C_29  and  C_32
REMARK                            x       y       z     vdW  Elec       q    Type
REMARK                         _______ _______ _______ _____ _____    ______ ____
ROOT
ATOM      1  C   UNL     1      -0.019   1.526   0.010  0.00  0.00    +0.013 C 
ATOM      2  C   UNL     1       0.002  -0.004   0.002  0.00  0.00    +0.034 C 
ATOM      3  C   UNL     1       0.705  -0.489  -1.241  0.00  0.00    -0.001 A 
ATOM      4  C   UNL     1      -0.001  -0.509  -2.417  0.00  0.00    +0.019 A 
ATOM      5  C   UNL     1       0.607  -0.942  -3.592  0.00  0.00    +0.024 A 
ATOM      6  C   UNL     1       1.949  -1.360  -3.578  0.00  0.00    +0.139 A 
ATOM      7  C   UNL     1       2.650  -1.337  -2.383  0.00  0.00    +0.093 A 
ATOM      8  C   UNL     1       2.029  -0.906  -1.218  0.00  0.00    +0.139 A 
ATOM      9  O   UNL     1       2.755  -0.918  -0.066  0.00  0.00    -0.425 OA
ATOM     10  C   UNL     1       2.222  -0.312   1.013  0.00  0.00    +0.316 C 
ATOM     11  O   UNL     1       2.896   0.359   1.759  0.00  0.00    -0.250 OA
ATOM     12  C   UNL     1       0.740  -0.510   1.245  0.00  0.00    +0.114 C 
ATOM     13  O   UNL     1       2.270  -1.717  -4.838  0.00  0.00    -0.463 OA
ATOM     14  C   UNL     1       1.220  -1.560  -5.664  0.00  0.00    +0.200 A 
ATOM     15  C   UNL     1       0.165  -1.091  -4.984  0.00  0.00    +0.003 A 
ENDROOT
BRANCH  15  16
ATOM     16  C   UNL     1      -1.202  -0.778  -5.538  0.00  0.00    -0.009 C 
ATOM     17  C   UNL     1      -1.225  -1.079  -7.038  0.00  0.00    +0.015 C 
ATOM     18  C   UNL     1      -2.248  -1.639  -4.829  0.00  0.00    +0.015 C 
ATOM     19  C   UNL     1      -1.518   0.701  -5.310  0.00  0.00    +0.015 C 
ENDBRANCH  15  16
BRANCH  12  20
ATOM     20  C   UNL     1       0.441  -1.995   1.458  0.00  0.00    +0.111 C 
BRANCH  20  21
ATOM     21  C   UNL     1       1.070  -2.455   2.748  0.00  0.00    +0.214 C 
ATOM     22  O   UNL     1       1.695  -1.671   3.431  0.00  0.00    -0.276 OA
ATOM     23  N   UNL     1       0.937  -3.736   3.143  0.00  0.00    -0.315 N 
ATOM     24  H   UNL     1       0.438  -4.363   2.597  0.00  0.00    +0.149 HD
BRANCH  23  25
ATOM     25  C   UNL     1       1.548  -4.183   4.398  0.00  0.00    +0.110 C 
BRANCH  25  26
ATOM     26  C   UNL     1       1.250  -5.668   4.610  0.00  0.00    +0.073 C 
BRANCH  26  27
ATOM     27  C   UNL     1       1.879  -6.128   5.900  0.00  0.00    +0.035 A 
ATOM     28  N   UNL     1       1.268  -6.204   7.123  0.00  0.00    -0.350 N 
ATOM     29  C   UNL     1       2.187  -6.663   8.000  0.00  0.00    +0.171 A 
ATOM     30  N   UNL     1       3.309  -6.863   7.364  0.00  0.00    -0.352 N 
ATOM     31  C   UNL     1       3.147  -6.548   6.071  0.00  0.00    +0.105 A 
ATOM     32  H   UNL     1       0.348  -5.971   7.323  0.00  0.00    +0.166 HD
ATOM     33  H   UNL     1       4.130  -7.192   7.763  0.00  0.00    +0.166 HD
ENDBRANCH  26  27
ENDBRANCH  25  26
ENDBRANCH  23  25
ENDBRANCH  20  21
ENDBRANCH  12  20
TORSDOF 6
