REMARK  Name = ZINC11454890
REMARK  5 active torsions:
REMARK  status: ('A' for Active; 'I' for Inactive)
REMARK    1  A    between atoms: C_1  and  C_2
REMARK    2  A    between atoms: C_9  and  C_11
REMARK    3  A    between atoms: C_13  and  N_24
REMARK    4  A    between atoms: C_16  and  N_17
REMARK    5  A    between atoms: C_20  and  C_23
REMARK                            x       y       z     vdW  Elec       q    Type
REMARK                         _______ _______ _______ _____ _____    ______ ____
ROOT
ATOM      1  C   UNL     1      -1.904  -4.263  -0.386  0.00  0.00    +0.060 A 
ATOM      2  C   UNL     1      -1.145  -4.714   0.697  0.00  0.00    +0.047 A 
ATOM      3  C   UNL     1      -0.995  -6.066   0.916  0.00  0.00    +0.127 A 
ATOM      4  C   UNL     1      -1.592  -6.984   0.067  0.00  0.00    +0.034 A 
ATOM      5  C   UNL     1      -2.344  -6.555  -1.008  0.00  0.00    +0.026 A 
ATOM      6  C   UNL     1      -2.512  -5.196  -1.241  0.00  0.00    +0.042 A 
ENDROOT
BRANCH   1  14
ATOM      7  C   UNL     1      -4.779  -2.413   3.370  0.00  0.00    +0.039 C 
ATOM      8  C   UNL     1      -4.362  -2.000   1.957  0.00  0.00    +0.133 C 
ATOM      9  C   UNL     1      -2.980  -2.581   1.640  0.00  0.00    +0.139 C 
ATOM     10  N   UNL     1      -2.523  -2.019   0.359  0.00  0.00    -0.293 N 
ATOM     11  C   UNL     1      -2.575  -0.558   0.186  0.00  0.00    +0.136 C 
ATOM     12  C   UNL     1      -3.978  -0.076   0.574  0.00  0.00    +0.179 C 
ATOM     13  O   UNL     1      -4.305  -0.574   1.874  0.00  0.00    -0.374 OA
ATOM     14  C   UNL     1      -2.069  -2.818  -0.627  0.00  0.00    +0.249 C 
ATOM     15  O   UNL     1      -1.796  -2.348  -1.714  0.00  0.00    -0.270 OA
ENDBRANCH   1  14
BRANCH   6  16
ATOM     16  N   UNL     1      -3.274  -4.761  -2.318  0.00  0.00    -0.329 N 
ATOM     17  C   UNL     1      -2.655  -4.536  -3.631  0.00  0.00    +0.105 C 
ATOM     18  C   UNL     1      -3.428  -5.335  -4.685  0.00  0.00    +0.022 C 
ATOM     19  C   UNL     1      -4.910  -4.961  -4.617  0.00  0.00    -0.011 C 
ATOM     20  C   UNL     1      -5.466  -5.318  -3.236  0.00  0.00    +0.022 C 
ATOM     21  C   UNL     1      -4.716  -4.524  -2.168  0.00  0.00    +0.105 C 
ATOM     22  C   UNL     1      -5.680  -5.731  -5.691  0.00  0.00    +0.007 C 
ENDBRANCH   6  16
BRANCH   3  23
ATOM     23  N   UNL     1      -0.190  -6.540   2.064  0.00  0.00    +0.056 N 
ATOM     24  O   UNL     1       0.333  -5.742   2.807  0.00  0.00    -0.126 OA
ATOM     25  O   UNL     1      -0.056  -7.726   2.260  0.00  0.00    -0.126 OA
ENDBRANCH   3  23
TORSDOF 3
