REMARK  Name = ZINC20926588
REMARK  2 active torsions:
REMARK  status: ('A' for Active; 'I' for Inactive)
REMARK    1  A    between atoms: C_9  and  C_11
REMARK    2  A    between atoms: N_13  and  N_14
REMARK                            x       y       z     vdW  Elec       q    Type
REMARK                         _______ _______ _______ _____ _____    ______ ____
ROOT
ATOM      1  C   UNL     1       0.912   7.371   0.035  0.00  0.00    +0.282 C 
ATOM      2  O   UNL     1       1.930   8.036   0.030  0.00  0.00    -0.267 OA
ATOM      3  N   UNL     1      -0.290   7.981   0.050  0.00  0.00    -0.202 N 
ATOM      4  H   UNL     1      -1.211   7.380   0.054  0.00  0.00    +0.178 HD
ENDROOT
BRANCH   1  13
ATOM      5  C   UNL     1      -0.013   1.076   0.008  0.00  0.00    +0.001 A 
ATOM      6  C   UNL     1      -1.235   1.747   0.018  0.00  0.00    +0.002 A 
ATOM      7  C   UNL     1      -1.290   3.106   0.031  0.00  0.00    +0.028 A 
ATOM      8  C   UNL     1      -0.097   3.853   0.024  0.00  0.00    +0.072 A 
ATOM      9  C   UNL     1       1.146   3.167   0.008  0.00  0.00    +0.000 A 
ATOM     10  C   UNL     1       1.163   1.763   0.000  0.00  0.00    +0.010 A 
ATOM     11  C   UNL     1       2.340   3.912   0.001  0.00  0.00    +0.012 A 
ATOM     12  C   UNL     1       2.252   5.274   0.010  0.00  0.00    +0.034 A 
ATOM     13  C   UNL     1       0.993   5.892   0.025  0.00  0.00    +0.128 A 
ATOM     14  N   UNL     1      -0.121   5.185   0.032  0.00  0.00    -0.242 NA
ENDBRANCH   1  13
BRANCH   3  15
ATOM     15  N   UNL     1      -0.366   9.380   0.059  0.00  0.00    -0.189 NA
ATOM     16  C   UNL     1      -1.508   9.958   0.073  0.00  0.00    +0.041 C 
ATOM     17  C   UNL     1      -2.954   9.514   0.084  0.00  0.00    +0.061 C 
ATOM     18  C   UNL     1      -3.314  10.863  -0.558  0.00  0.00    +0.026 C 
ATOM     19  C   UNL     1      -2.004  11.386   0.093  0.00  0.00    +0.046 C 
ATOM     20  C   UNL     1      -2.510  11.846   1.473  0.00  0.00    +0.037 C 
ATOM     21  C   UNL     1      -3.979  12.136   1.272  0.00  0.00    -0.030 C 
ATOM     22  C   UNL     1      -4.417  11.600   0.166  0.00  0.00    -0.027 C 
ENDBRANCH   3  15
TORSDOF 2
