REMARK  Name = ZINC05143142
REMARK  4 active torsions:
REMARK  status: ('A' for Active; 'I' for Inactive)
REMARK    1  A    between atoms: C_2  and  C_3
REMARK    2  A    between atoms: C_3  and  N_4
REMARK    3  A    between atoms: N_13  and  C_14
REMARK    4  A    between atoms: C_14  and  C_16
REMARK                            x       y       z     vdW  Elec       q    Type
REMARK                         _______ _______ _______ _____ _____    ______ ____
ROOT
ATOM      1  N   UNL     1      -2.508  -4.092   0.776  0.00  0.00    -0.317 N 
ATOM      2  C   UNL     1      -3.736  -4.601   1.166  0.00  0.00    +0.062 A 
ATOM      3  C   UNL     1      -4.103  -5.952   1.279  0.00  0.00    +0.076 A 
ATOM      4  C   UNL     1      -5.374  -6.315   1.675  0.00  0.00    +0.168 A 
ATOM      5  C   UNL     1      -6.329  -5.344   1.974  0.00  0.00    +0.167 A 
ATOM      6  C   UNL     1      -5.991  -4.005   1.871  0.00  0.00    +0.066 A 
ATOM      7  C   UNL     1      -4.722  -3.653   1.475  0.00  0.00    +0.043 A 
ATOM      8  S   UNL     1      -3.897  -2.101   1.218  0.00  0.00    -0.052 S 
ATOM      9  C   UNL     1      -2.308  -2.745   0.721  0.00  0.00    +0.167 A 
ATOM     10  N   UNL     1      -1.211  -2.080   0.379  0.00  0.00    -0.149 NA
ATOM     11  O   UNL     1      -7.490  -5.963   2.335  0.00  0.00    -0.453 OA
ATOM     12  C   UNL     1      -7.364  -7.317   1.861  0.00  0.00    +0.466 C 
ATOM     13  O   UNL     1      -5.943  -7.546   1.851  0.00  0.00    -0.453 OA
ENDROOT
BRANCH  10  14
ATOM     14  C   UNL     1      -1.212  -0.740   0.381  0.00  0.00    +0.307 C 
ATOM     15  O   UNL     1      -2.220  -0.130   0.697  0.00  0.00    -0.265 OA
BRANCH  14  16
ATOM     16  C   UNL     1       0.002  -0.004   0.002  0.00  0.00    +0.219 C 
ATOM     17  C   UNL     1       1.099  -0.688  -0.342  0.00  0.00    +0.238 C 
ATOM     18  O   UNL     1       2.245  -0.062  -0.691  0.00  0.00    -0.492 OA
ATOM     19  C   UNL     1       2.142   1.322  -1.044  0.00  0.00    +0.269 C 
ATOM     20  C   UNL     1       1.256   2.016   0.001  0.00  0.00    +0.270 C 
ATOM     21  O   UNL     1      -0.016   1.357   0.009  0.00  0.00    -0.481 OA
ENDBRANCH  14  16
ENDBRANCH  10  14
BRANCH   1  22
ATOM     22  C   UNL     1      -1.418  -5.006   0.426  0.00  0.00    +0.151 C 
BRANCH  22  24
ATOM     23  C   UNL     1      -0.431  -6.576   2.015  0.00  0.00    +0.005 C 
ATOM     24  C   UNL     1      -0.616  -5.329   1.661  0.00  0.00    -0.013 C 
ENDBRANCH  22  24
ENDBRANCH   1  22
TORSDOF 4
