REMARK  Name = ZINC30826929
REMARK  5 active torsions:
REMARK  status: ('A' for Active; 'I' for Inactive)
REMARK    1  A    between atoms: C_3  and  N_14
REMARK    2  A    between atoms: C_6  and  C_7
REMARK    3  A    between atoms: C_7  and  C_12
REMARK    4  A    between atoms: C_15  and  C_17
REMARK    5  A    between atoms: C_21  and  N_23
REMARK                            x       y       z     vdW  Elec       q    Type
REMARK                         _______ _______ _______ _____ _____    ______ ____
ROOT
ATOM      1  N   UNL     1       2.445   1.964  -5.815  0.00  0.00    -0.282 N 
ATOM      2  C   UNL     1       3.527   1.170  -5.934  0.00  0.00    +0.248 C 
ATOM      3  O   UNL     1       3.752   0.319  -5.095  0.00  0.00    -0.270 OA
ATOM      4  H   UNL     1       2.193   2.674  -6.617  0.00  0.00    +0.155 HD
ENDROOT
BRANCH   2   5
ATOM      5  C   UNL     1       4.441   1.333  -7.084  0.00  0.00    +0.039 A 
ATOM      6  C   UNL     1       4.182   2.305  -8.052  0.00  0.00    +0.014 A 
ATOM      7  C   UNL     1       5.042   2.457  -9.120  0.00  0.00    +0.023 A 
ATOM      8  C   UNL     1       6.153   1.638  -9.239  0.00  0.00    +0.071 A 
ATOM      9  C   UNL     1       6.412   0.668  -8.285  0.00  0.00    +0.145 A 
ATOM     10  C   UNL     1       5.562   0.511  -7.210  0.00  0.00    +0.047 A 
ATOM     11 CL   UNL     1       7.227   1.830 -10.589  0.00  0.00    -0.081 Cl
BRANCH   9  12
ATOM     12  N   UNL     1       7.601  -0.202  -8.420  0.00  0.00    +0.058 N 
ATOM     13  O   UNL     1       7.830  -1.056  -7.582  0.00  0.00    -0.126 OA
ATOM     14  O   UNL     1       8.352  -0.065  -9.369  0.00  0.00    -0.126 OA
ENDBRANCH   9  12
ENDBRANCH   2   5
BRANCH   1  17
ATOM     15  C   UNL     1       1.417   1.522  -2.314  0.00  0.00    +0.007 A 
ATOM     16  C   UNL     1       2.212   1.593  -3.441  0.00  0.00    +0.023 A 
ATOM     17  C   UNL     1       1.642   1.886  -4.673  0.00  0.00    +0.034 A 
ATOM     18  C   UNL     1       0.273   2.102  -4.768  0.00  0.00    +0.023 A 
ATOM     19  C   UNL     1      -0.517   2.024  -3.638  0.00  0.00    +0.007 A 
ATOM     20  C   UNL     1       0.053   1.732  -2.413  0.00  0.00    -0.027 A 
BRANCH  20  21
ATOM     21  C   UNL     1      -0.812   1.647  -1.182  0.00  0.00    +0.082 C 
ATOM     22  C   UNL     1       0.047   1.310   0.062  0.00  0.00    +0.026 C 
ATOM     23  C   UNL     1      -0.813   1.848   1.233  0.00  0.00    +0.002 C 
ATOM     24  C   UNL     1      -1.429   3.151   0.678  0.00  0.00    +0.002 C 
ATOM     25  C   UNL     1      -1.426   3.024  -0.855  0.00  0.00    +0.026 C 
BRANCH  21  26
ATOM     26  C   UNL     1      -1.871   0.641  -1.366  0.00  0.00    +0.074 C 
ATOM     27  N   UNL     1      -2.688  -0.135  -1.508  0.00  0.00    -0.196 NA
ENDBRANCH  21  26
ENDBRANCH  20  21
ENDBRANCH   1  17
TORSDOF 5
