REMARK  Name = ZINC42976554
REMARK  5 active torsions:
REMARK  status: ('A' for Active; 'I' for Inactive)
REMARK    1  A    between atoms: C_1  and  C_2
REMARK    2  A    between atoms: C_2  and  C_26
REMARK    3  A    between atoms: C_7  and  C_11
REMARK    4  A    between atoms: C_17  and  C_20
REMARK    5  A    between atoms: C_20  and  N_21
REMARK                            x       y       z     vdW  Elec       q    Type
REMARK                         _______ _______ _______ _____ _____    ______ ____
ROOT
ATOM      1  C   UNL     1       3.011  -0.918   1.210  0.00  0.00    +0.226 C 
ATOM      2  O   UNL     1       3.915  -0.178   0.882  0.00  0.00    -0.275 OA
ATOM      3  N   UNL     1       3.166  -1.746   2.262  0.00  0.00    -0.300 N 
ATOM      4  C   UNL     1       2.131  -2.733   2.597  0.00  0.00    +0.108 C 
ATOM      5  C   UNL     1       2.779  -4.118   2.682  0.00  0.00    +0.019 C 
ATOM      6  C   UNL     1       3.946  -4.071   3.672  0.00  0.00    +0.008 C 
ATOM      7  C   UNL     1       4.997  -3.075   3.177  0.00  0.00    +0.026 C 
ATOM      8  C   UNL     1       4.376  -1.682   3.093  0.00  0.00    +0.113 C 
ENDROOT
BRANCH   1  14
ATOM      9  C   UNL     1      -0.914  -3.249   0.166  0.00  0.00    +0.016 C 
ATOM     10  C   UNL     1      -0.158  -2.118  -0.532  0.00  0.00    -0.010 C 
ATOM     11  C   UNL     1      -0.575  -0.738   0.063  0.00  0.00    +0.000 C 
ATOM     12  C   UNL     1       0.061   0.308  -0.905  0.00  0.00    +0.006 C 
ATOM     13  C   UNL     1       1.582   0.187  -0.658  0.00  0.00    +0.021 C 
ATOM     14  C   UNL     1       1.716  -0.912   0.440  0.00  0.00    +0.069 C 
ATOM     15  C   UNL     1       0.400  -0.657   1.291  0.00  0.00    +0.025 C 
ATOM     16  C   UNL     1       1.334  -2.227  -0.255  0.00  0.00    -0.056 C 
ATOM     17  C   UNL     1       2.129  -3.221  -0.566  0.00  0.00    +0.009 C 
ATOM     18  C   UNL     1      -0.423  -2.152  -2.039  0.00  0.00    +0.016 C 
ENDBRANCH   1  14
BRANCH   7  19
ATOM     19  C   UNL     1       6.178  -3.053   4.149  0.00  0.00    +0.127 C 
BRANCH  19  20
ATOM     20  N   UNL     1       6.844  -4.357   4.137  0.00  0.00    -0.338 N 
ATOM     21  C   UNL     1       6.548  -5.428   4.938  0.00  0.00    +0.104 A 
ATOM     22  C   UNL     1       7.398  -6.416   4.596  0.00  0.00    +0.101 A 
ATOM     23  N   UNL     1       8.190  -5.961   3.615  0.00  0.00    -0.352 N 
ATOM     24  C   UNL     1       7.861  -4.731   3.331  0.00  0.00    +0.173 A 
ATOM     25  H   UNL     1       8.895  -6.468   3.181  0.00  0.00    +0.166 HD
ENDBRANCH  19  20
ENDBRANCH   7  19
TORSDOF 3
