REMARK  Name = ZINC05376739
REMARK  5 active torsions:
REMARK  status: ('A' for Active; 'I' for Inactive)
REMARK    1  A    between atoms: C_1  and  C_2
REMARK    2  A    between atoms: C_6  and  N_9
REMARK    3  A    between atoms: C_7  and  C_8
REMARK    4  A    between atoms: C_15  and  C_16
REMARK    5  A    between atoms: C_17  and  C_18
REMARK                            x       y       z     vdW  Elec       q    Type
REMARK                         _______ _______ _______ _____ _____    ______ ____
ROOT
ATOM      1  N   UNL     1       9.202   5.052  -0.058  0.00  0.00    -0.225 NA
ATOM      2  C   UNL     1       8.000   4.527   0.039  0.00  0.00    +0.166 C 
ATOM      3  N   UNL     1       6.773   5.136  -0.130  0.00  0.00    -0.260 N 
ATOM      4  C   UNL     1       5.661   4.435   0.005  0.00  0.00    +0.256 C 
ATOM      5  O   UNL     1       4.571   4.958  -0.148  0.00  0.00    -0.269 OA
ATOM      6  C   UNL     1       5.767   3.053   0.337  0.00  0.00    +0.077 C 
ATOM      7  C   UNL     1       4.769   2.123   0.532  0.00  0.00    +0.020 C 
ATOM      8  S   UNL     1       7.540   2.845   0.424  0.00  0.00    -0.049 S 
ATOM      9  H   UNL     1       6.728   6.079  -0.353  0.00  0.00    +0.157 HD
ENDROOT
BRANCH   1  15
ATOM     10  C   UNL     1      13.591   4.144   1.912  0.00  0.00    +0.044 C 
ATOM     11  C   UNL     1      12.463   3.779   0.981  0.00  0.00    -0.046 A 
ATOM     12  C   UNL     1      12.545   2.629   0.215  0.00  0.00    +0.004 A 
ATOM     13  C   UNL     1      11.515   2.287  -0.642  0.00  0.00    +0.002 A 
ATOM     14  C   UNL     1      10.395   3.087  -0.734  0.00  0.00    +0.028 A 
ATOM     15  C   UNL     1      10.307   4.251   0.032  0.00  0.00    +0.070 A 
ATOM     16  C   UNL     1      11.352   4.591   0.896  0.00  0.00    -0.022 A 
ATOM     17  C   UNL     1      11.265   5.842   1.731  0.00  0.00    +0.046 C 
ENDBRANCH   1  15
BRANCH   7  18
ATOM     18  C   UNL     1       3.423   2.503   0.414  0.00  0.00    +0.005 C 
ATOM     19  C   UNL     1       2.437   1.585   0.607  0.00  0.00    +0.046 C 
BRANCH  19  20
ATOM     20  C   UNL     1       1.081   1.968   0.488  0.00  0.00    +0.128 A 
ATOM     21  C   UNL     1      -0.015   1.145   0.657  0.00  0.00    +0.049 A 
ATOM     22  C   UNL     1      -1.150   1.943   0.440  0.00  0.00    +0.042 A 
ATOM     23  C   UNL     1      -0.715   3.191   0.163  0.00  0.00    +0.195 A 
ATOM     24  O   UNL     1       0.626   3.203   0.189  0.00  0.00    -0.464 OA
ENDBRANCH  19  20
ENDBRANCH   7  18
TORSDOF 3
