REMARK  Name = ZINC17063615
REMARK  7 active torsions:
REMARK  status: ('A' for Active; 'I' for Inactive)
REMARK    1  A    between atoms: C_1  and  C_2
REMARK    2  A    between atoms: C_5  and  C_34
REMARK    3  A    between atoms: C_6  and  S_8
REMARK    4  A    between atoms: S_8  and  N_11
REMARK    5  A    between atoms: C_17  and  C_19
REMARK    6  A    between atoms: C_19  and  C_21
REMARK    7  A    between atoms: C_19  and  N_22
REMARK                            x       y       z     vdW  Elec       q    Type
REMARK                         _______ _______ _______ _____ _____    ______ ____
ROOT
ATOM      1  N   UNL     1       8.931   5.631   0.107  0.00  0.00    -0.174 NA
ATOM      2  C   UNL     1       8.712   4.249  -0.341  0.00  0.00    +0.128 C 
ATOM      3  C   UNL     1       7.779   4.271  -1.559  0.00  0.00    +0.125 C 
ATOM      4  N   UNL     1       6.612   5.107  -1.242  0.00  0.00    -0.297 N 
ATOM      5  C   UNL     1       6.831   6.491  -0.798  0.00  0.00    +0.125 C 
ATOM      6  C   UNL     1       7.764   6.467   0.425  0.00  0.00    +0.128 C 
ATOM      7  C   UNL     1       5.364   4.614  -1.361  0.00  0.00    +0.236 C 
ATOM      8  O   UNL     1       4.407   5.339  -1.187  0.00  0.00    -0.274 OA
ENDROOT
BRANCH   1   9
ATOM      9  S   UNL     1      10.465   6.237   0.253  0.00  0.00    +0.061 S 
ATOM     10  O   UNL     1      10.403   7.271   1.226  0.00  0.00    -0.153 OA
ATOM     11  O   UNL     1      11.333   5.119   0.383  0.00  0.00    -0.153 OA
BRANCH   9  17
ATOM     12  C   UNL     1      11.436  10.493  -2.623  0.00  0.00    +0.044 C 
ATOM     13  C   UNL     1      11.303   8.993  -2.548  0.00  0.00    -0.049 A 
ATOM     14  C   UNL     1      11.496   8.225  -3.681  0.00  0.00    +0.004 A 
ATOM     15  C   UNL     1      11.374   6.850  -3.613  0.00  0.00    +0.005 A 
ATOM     16  C   UNL     1      11.059   6.243  -2.412  0.00  0.00    -0.024 A 
ATOM     17  C   UNL     1      10.867   7.011  -1.279  0.00  0.00    +0.109 A 
ATOM     18  C   UNL     1      10.984   8.387  -1.348  0.00  0.00    +0.032 A 
ATOM     19  C   UNL     1      10.926   4.744  -2.337  0.00  0.00    +0.046 C 
ENDBRANCH   9  17
ENDBRANCH   1   9
BRANCH   7  20
ATOM     20  C   UNL     1       5.156   3.163  -1.709  0.00  0.00    +0.155 C 
ATOM     21  C   UNL     1       5.432   2.952  -3.200  0.00  0.00    +0.038 C 
BRANCH  20  22
ATOM     22  N   UNL     1       3.774   2.781  -1.410  0.00  0.00    -0.316 N 
ATOM     23  C   UNL     1       3.464   1.465  -1.146  0.00  0.00    +0.150 C 
ATOM     24  N   UNL     1       4.389   0.559  -1.161  0.00  0.00    -0.113 NA
ATOM     25  S   UNL     1       3.623  -0.884  -0.798  0.00  0.00    +0.101 S 
ATOM     26  O   UNL     1       4.084  -1.311   0.476  0.00  0.00    -0.146 OA
ATOM     27  O   UNL     1       3.663  -1.701  -1.960  0.00  0.00    -0.146 OA
ATOM     28  C   UNL     1       1.960  -0.304  -0.604  0.00  0.00    +0.123 A 
ATOM     29  C   UNL     1       2.079   1.073  -0.844  0.00  0.00    +0.043 A 
ATOM     30  C   UNL     1       0.910   1.845  -0.766  0.00  0.00    +0.013 A 
ATOM     31  C   UNL     1      -0.296   1.252  -0.464  0.00  0.00    +0.001 A 
ATOM     32  C   UNL     1      -0.381  -0.108  -0.226  0.00  0.00    +0.002 A 
ATOM     33  C   UNL     1       0.764  -0.888  -0.305  0.00  0.00    +0.030 A 
ATOM     34  H   UNL     1       3.076   3.455  -1.397  0.00  0.00    +0.148 HD
ENDBRANCH  20  22
ENDBRANCH   7  20
TORSDOF 4
