REMARK  Name = ZINC33274374
REMARK  7 active torsions:
REMARK  status: ('A' for Active; 'I' for Inactive)
REMARK    1  A    between atoms: C_1  and  C_2
REMARK    2  A    between atoms: C_2  and  C_3
REMARK    3  A    between atoms: C_8  and  N_9
REMARK    4  A    between atoms: C_10  and  C_12
REMARK    5  A    between atoms: N_17  and  C_27
REMARK    6  A    between atoms: C_20  and  C_26
REMARK    7  A    between atoms: C_27  and  C_28
REMARK                            x       y       z     vdW  Elec       q    Type
REMARK                         _______ _______ _______ _____ _____    ______ ____
ROOT
ATOM      1  C   UNL     1      -0.015   1.316  -0.006  0.00  0.00    +0.238 A 
ATOM      2  N   UNL     1       1.248   1.756  -0.024  0.00  0.00    -0.198 NA
ATOM      3  C   UNL     1       2.030   0.697  -0.046  0.00  0.00    +0.222 A 
ATOM      4  C   UNL     1       3.495   0.530  -0.072  0.00  0.00    +0.297 A 
ATOM      5  O   UNL     1       4.223   1.505  -0.076  0.00  0.00    -0.264 OA
ATOM      6  N   UNL     1       4.020  -0.712  -0.092  0.00  0.00    -0.299 N 
ATOM      7  C   UNL     1       3.186  -1.826  -0.087  0.00  0.00    +0.071 A 
ATOM      8  C   UNL     1       3.740  -3.102  -0.108  0.00  0.00    +0.031 A 
ATOM      9  C   UNL     1       2.921  -4.211  -0.102  0.00  0.00    -0.048 A 
ATOM     10  C   UNL     1       1.544  -4.061  -0.077  0.00  0.00    +0.005 A 
ATOM     11  C   UNL     1       0.983  -2.802  -0.058  0.00  0.00    +0.030 A 
ATOM     12  C   UNL     1       1.799  -1.676  -0.062  0.00  0.00    +0.091 A 
ATOM     13  N   UNL     1       1.227  -0.405  -0.041  0.00  0.00    -0.206 N 
ATOM     14  N   UNL     1       0.003  -0.004  -0.017  0.00  0.00    -0.139 NA
ATOM     15  C   UNL     1       3.526  -5.591  -0.124  0.00  0.00    +0.044 C 
ENDROOT
BRANCH   1  17
ATOM     16  N   UNL     1      -1.109   3.507   0.027  0.00  0.00    -0.279 N 
ATOM     17  C   UNL     1      -1.227   2.165   0.017  0.00  0.00    +0.287 C 
ATOM     18  O   UNL     1      -2.329   1.651   0.026  0.00  0.00    -0.266 OA
ATOM     19  H   UNL     1      -0.116   3.972   0.110  0.00  0.00    +0.155 HD
BRANCH  16  25
ATOM     20  C   UNL     1      -2.235   5.604   0.434  0.00  0.00    -0.026 A 
ATOM     21  C   UNL     1      -3.364   6.395   0.338  0.00  0.00    +0.005 A 
ATOM     22  C   UNL     1      -4.508   5.898  -0.258  0.00  0.00    +0.000 A 
ATOM     23  C   UNL     1      -4.527   4.609  -0.760  0.00  0.00    +0.002 A 
ATOM     24  C   UNL     1      -3.400   3.816  -0.672  0.00  0.00    +0.023 A 
ATOM     25  C   UNL     1      -2.251   4.310  -0.069  0.00  0.00    +0.037 A 
BRANCH  20  27
ATOM     26  C   UNL     1      -0.057   6.710   0.007  0.00  0.00    +0.009 C 
ATOM     27  C   UNL     1      -0.988   6.146   1.083  0.00  0.00    +0.033 C 
ENDBRANCH  20  27
ENDBRANCH  16  25
ENDBRANCH   1  17
BRANCH   6  28
ATOM     28  C   UNL     1       5.474  -0.889  -0.117  0.00  0.00    +0.160 C 
BRANCH  28  29
ATOM     29  C   UNL     1       5.949  -0.937  -1.547  0.00  0.00    -0.028 A 
ATOM     30  C   UNL     1       6.027  -2.148  -2.208  0.00  0.00    +0.005 A 
ATOM     31  C   UNL     1       6.458  -2.192  -3.521  0.00  0.00    +0.000 A 
ATOM     32  C   UNL     1       6.821  -1.026  -4.169  0.00  0.00    +0.000 A 
ATOM     33  C   UNL     1       6.747   0.184  -3.506  0.00  0.00    +0.000 A 
ATOM     34  C   UNL     1       6.311   0.229  -2.195  0.00  0.00    +0.005 A 
ENDBRANCH  28  29
ENDBRANCH   6  28
TORSDOF 5
