REMARK  Name = ZINC32924311
REMARK  3 active torsions:
REMARK  status: ('A' for Active; 'I' for Inactive)
REMARK    1  A    between atoms: C_1  and  C_2
REMARK    2  A    between atoms: C_5  and  N_8
REMARK    3  A    between atoms: C_10  and  C_13
REMARK                            x       y       z     vdW  Elec       q    Type
REMARK                         _______ _______ _______ _____ _____    ______ ____
ROOT
ATOM      1  N   UNL     1       1.300  -0.377  -0.008  0.00  0.00    -0.219 N 
ATOM      2  C   UNL     1       0.002  -0.004   0.005  0.00  0.00    +0.149 A 
ATOM      3  C   UNL     1      -0.017   1.362   0.011  0.00  0.00    +0.168 A 
ATOM      4  N   UNL     1       1.253   1.805   0.003  0.00  0.00    -0.124 NA
ATOM      5  N   UNL     1       2.060   0.802  -0.009  0.00  0.00    -0.060 NA
ENDROOT
BRANCH   3   6
ATOM      6  C   UNL     1      -1.225   2.208   0.020  0.00  0.00    +0.273 C 
ATOM      7  O   UNL     1      -2.325   1.698  -0.070  0.00  0.00    -0.268 OA
ATOM      8  N   UNL     1      -1.109   3.546   0.129  0.00  0.00    -0.266 N 
ATOM      9  C   UNL     1       0.158   4.282   0.138  0.00  0.00    +0.119 C 
ATOM     10  C   UNL     1      -0.236   5.762   0.278  0.00  0.00    +0.056 C 
ATOM     11  C   UNL     1      -1.747   5.749   0.340  0.00  0.00    -0.024 A 
ATOM     12  C   UNL     1      -2.181   4.436   0.243  0.00  0.00    +0.040 A 
ATOM     13  C   UNL     1      -3.551   4.170   0.282  0.00  0.00    +0.024 A 
ATOM     14  C   UNL     1      -4.456   5.203   0.406  0.00  0.00    +0.002 A 
ATOM     15  C   UNL     1      -4.013   6.510   0.498  0.00  0.00    +0.000 A 
ATOM     16  C   UNL     1      -2.658   6.780   0.465  0.00  0.00    +0.005 A 
ENDBRANCH   3   6
BRANCH   1  21
ATOM     17  C   UNL     1       3.296  -5.690  -0.054  0.00  0.00    +0.044 C 
ATOM     18  C   UNL     1       2.766  -4.279  -0.042  0.00  0.00    -0.050 A 
ATOM     19  C   UNL     1       3.646  -3.212  -0.043  0.00  0.00    +0.005 A 
ATOM     20  C   UNL     1       3.163  -1.918  -0.032  0.00  0.00    +0.028 A 
ATOM     21  C   UNL     1       1.793  -1.690  -0.019  0.00  0.00    +0.067 A 
ATOM     22  C   UNL     1       0.913  -2.763  -0.012  0.00  0.00    +0.028 A 
ATOM     23  C   UNL     1       1.402  -4.055  -0.029  0.00  0.00    +0.005 A 
ENDBRANCH   1  21
TORSDOF 2
