REMARK  Name = ZINC39686320
REMARK  11 active torsions:
REMARK  status: ('A' for Active; 'I' for Inactive)
REMARK    1  A    between atoms: C_1  and  C_2
REMARK    2  A    between atoms: C_2  and  C_3
REMARK    3  A    between atoms: C_3  and  C_5
REMARK    4  A    between atoms: C_3  and  C_6
REMARK    5  A    between atoms: C_6  and  C_7
REMARK    6  A    between atoms: C_11  and  C_20
REMARK    7  A    between atoms: N_22  and  C_23
REMARK    8  A    between atoms: C_29  and  C_31
REMARK    9  A    between atoms: C_31  and  C_32
REMARK   10  A    between atoms: C_32  and  C_33
REMARK   11  A    between atoms: C_32  and  C_34
REMARK                            x       y       z     vdW  Elec       q    Type
REMARK                         _______ _______ _______ _____ _____    ______ ____
ROOT
ATOM      1  C   UNL     1      -2.538  -2.612   0.135  0.00  0.00    +0.216 C 
ATOM      2  O   UNL     1      -3.403  -1.763   0.091  0.00  0.00    -0.276 OA
ATOM      3  N   UNL     1      -2.871  -3.907   0.298  0.00  0.00    -0.300 N 
ATOM      4  C   UNL     1      -1.963  -5.075   0.381  0.00  0.00    +0.121 C 
ATOM      5  C   UNL     1      -2.586  -5.977   1.470  0.00  0.00    +0.100 C 
ATOM      6  C   UNL     1      -4.073  -5.587   1.500  0.00  0.00    -0.004 C 
ATOM      7  C   UNL     1      -4.229  -4.485   0.442  0.00  0.00    +0.115 C 
ATOM      8  C   UNL     1      -4.942  -6.789   1.144  0.00  0.00    -0.010 C 
ATOM      9  C   UNL     1      -6.418  -6.392   1.236  0.00  0.00    -0.082 C 
ATOM     10  N   UNL     1      -6.718  -5.932   2.598  0.00  0.00    +0.379 N 
ATOM     11  C   UNL     1      -5.946  -4.720   2.898  0.00  0.00    -0.082 C 
ATOM     12  C   UNL     1      -4.450  -5.047   2.876  0.00  0.00    -0.010 C 
ATOM     13  H   UNL     1      -7.704  -5.728   2.673  0.00  0.00    -0.086 HD
ATOM     14  H   UNL     1      -6.476  -6.656   3.257  0.00  0.00    -0.086 HD
ENDROOT
BRANCH   5  15
ATOM     15  C   UNL     1      -1.944  -5.707   2.806  0.00  0.00    +0.218 C 
ATOM     16  O   UNL     1      -1.512  -4.602   3.059  0.00  0.00    -0.275 OA
ATOM     17  N   UNL     1      -1.848  -6.692   3.720  0.00  0.00    -0.312 N 
ATOM     18  H   UNL     1      -2.193  -7.576   3.518  0.00  0.00    +0.149 HD
BRANCH  17  19
ATOM     19  C   UNL     1      -1.224  -6.429   5.019  0.00  0.00    +0.076 C 
ATOM     20  C   UNL     1       0.293  -6.593   4.898  0.00  0.00    +0.041 C 
ATOM     21  C   UNL     1       0.946  -6.283   6.249  0.00  0.00    +0.109 C 
ATOM     22  N   UNL     1       0.327  -7.131   7.278  0.00  0.00    -0.301 N 
ATOM     23  C   UNL     1      -1.135  -7.118   7.419  0.00  0.00    +0.109 C 
ATOM     24  C   UNL     1      -1.764  -7.418   6.055  0.00  0.00    +0.041 C 
ATOM     25  C   UNL     1       1.087  -7.905   8.077  0.00  0.00    +0.216 C 
ATOM     26  O   UNL     1       2.294  -7.907   7.951  0.00  0.00    -0.276 OA
BRANCH  25  27
ATOM     27  C   UNL     1       0.439  -8.769   9.128  0.00  0.00    +0.099 C 
BRANCH  27  28
ATOM     28  C   UNL     1       1.517  -9.541   9.891  0.00  0.00    -0.008 C 
ATOM     29  C   UNL     1       0.871 -10.321  11.037  0.00  0.00    +0.008 C 
ATOM     30  C   UNL     1       2.215 -10.516   8.940  0.00  0.00    +0.008 C 
ENDBRANCH  27  28
ENDBRANCH  25  27
ENDBRANCH  17  19
ENDBRANCH   5  15
BRANCH   1  31
ATOM     31  C   UNL     1      -1.089  -2.217   0.006  0.00  0.00    +0.099 C 
BRANCH  31  32
ATOM     32  C   UNL     1      -0.987  -0.700  -0.168  0.00  0.00    -0.006 C 
ATOM     33  C   UNL     1      -1.636  -0.294  -1.493  0.00  0.00    +0.008 C 
BRANCH  32  35
ATOM     34  C   UNL     1       0.585   1.240  -0.222  0.00  0.00    +0.004 C 
ATOM     35  C   UNL     1       0.486  -0.285  -0.173  0.00  0.00    +0.000 C 
ENDBRANCH  32  35
ENDBRANCH  31  32
ENDBRANCH   1  31
TORSDOF 7
