REMARK  Name = ZINC35920899
REMARK  7 active torsions:
REMARK  status: ('A' for Active; 'I' for Inactive)
REMARK    1  A    between atoms: C_1  and  C_2
REMARK    2  A    between atoms: N_7  and  S_10
REMARK    3  A    between atoms: S_10  and  C_13
REMARK    4  A    between atoms: N_17  and  C_34
REMARK    5  A    between atoms: C_18  and  C_20
REMARK    6  A    between atoms: C_24  and  O_26
REMARK    7  A    between atoms: O_26  and  C_27
REMARK                            x       y       z     vdW  Elec       q    Type
REMARK                         _______ _______ _______ _____ _____    ______ ____
ROOT
ATOM      1  C   UNL     1      -6.580  -3.283  -3.770  0.00  0.00    +0.199 C 
ATOM      2  C   UNL     1      -7.042  -2.030  -4.547  0.00  0.00    +0.215 C 
ATOM      3  O   UNL     1      -8.319  -2.417  -5.105  0.00  0.00    -0.295 OA
ATOM      4  N   UNL     1      -8.965  -3.214  -4.042  0.00  0.00    -0.182 NA
ATOM      5  C   UNL     1      -7.882  -4.052  -3.465  0.00  0.00    +0.142 C 
ATOM      6  C   UNL     1     -10.040  -4.051  -4.591  0.00  0.00    +0.138 C 
ENDROOT
BRANCH   5   7
ATOM      7  C   UNL     1      -8.068  -4.196  -1.976  0.00  0.00    -0.023 A 
ATOM      8  C   UNL     1      -8.576  -3.143  -1.238  0.00  0.00    +0.005 A 
ATOM      9  C   UNL     1      -8.748  -3.272   0.128  0.00  0.00    +0.004 A 
ATOM     10  C   UNL     1      -8.413  -4.455   0.758  0.00  0.00    +0.046 A 
ATOM     11  C   UNL     1      -7.903  -5.513   0.020  0.00  0.00    +0.129 A 
ATOM     12  C   UNL     1      -7.736  -5.382  -1.352  0.00  0.00    +0.051 A 
BRANCH  11  13
ATOM     13  O   UNL     1      -7.572  -6.677   0.638  0.00  0.00    -0.456 OA
BRANCH  13  14
ATOM     14  C   UNL     1      -7.072  -7.685  -0.125  0.00  0.00    +0.129 A 
ATOM     15  C   UNL     1      -5.704  -7.787  -0.330  0.00  0.00    +0.048 A 
ATOM     16  C   UNL     1      -5.197  -8.811  -1.106  0.00  0.00    +0.023 A 
ATOM     17  C   UNL     1      -6.053  -9.735  -1.678  0.00  0.00    +0.041 A 
ATOM     18  C   UNL     1      -7.418  -9.635  -1.475  0.00  0.00    +0.023 A 
ATOM     19  C   UNL     1      -7.928  -8.616  -0.695  0.00  0.00    +0.048 A 
ATOM     20 CL   UNL     1      -5.413 -11.022  -2.653  0.00  0.00    -0.084 Cl
ENDBRANCH  13  14
ENDBRANCH  11  13
ENDBRANCH   5   7
BRANCH   1  21
ATOM     21  S   UNL     1      -5.751  -2.803  -2.229  0.00  0.00    +0.039 S 
ATOM     22  O   UNL     1      -5.136  -3.936  -1.631  0.00  0.00    -0.158 OA
ATOM     23  O   UNL     1      -6.592  -1.948  -1.467  0.00  0.00    -0.158 OA
BRANCH  21  30
ATOM     24  C   UNL     1      -1.466   2.004  -2.785  0.00  0.00    +0.109 C 
ATOM     25  C   UNL     1      -1.272   0.515  -2.660  0.00  0.00    +0.213 C 
ATOM     26  O   UNL     1      -0.192   0.022  -2.909  0.00  0.00    -0.276 OA
ATOM     27  N   UNL     1      -2.297  -0.268  -2.272  0.00  0.00    -0.299 N 
ATOM     28  C   UNL     1      -3.613   0.315  -1.973  0.00  0.00    +0.125 C 
ATOM     29  C   UNL     1      -4.668  -0.387  -2.837  0.00  0.00    +0.128 C 
ATOM     30  N   UNL     1      -4.491  -1.840  -2.706  0.00  0.00    -0.178 NA
ATOM     31  C   UNL     1      -3.175  -2.423  -3.005  0.00  0.00    +0.128 C 
ATOM     32  C   UNL     1      -2.122  -1.722  -2.147  0.00  0.00    +0.125 C 
ENDBRANCH  21  30
ENDBRANCH   1  21
TORSDOF 5
