REMARK  Name = ZINC41707517
REMARK  6 active torsions:
REMARK  status: ('A' for Active; 'I' for Inactive)
REMARK    1  A    between atoms: C_1  and  C_2
REMARK    2  A    between atoms: C_7  and  C_23
REMARK    3  A    between atoms: C_10  and  C_12
REMARK    4  A    between atoms: C_12  and  C_21
REMARK    5  A    between atoms: C_13  and  C_14
REMARK    6  A    between atoms: C_17  and  O_20
REMARK                            x       y       z     vdW  Elec       q    Type
REMARK                         _______ _______ _______ _____ _____    ______ ____
ROOT
ATOM      1  C   UNL     1      -1.358  -1.654   2.028  0.00  0.00    +0.114 C 
ATOM      2  C   UNL     1      -2.046  -2.154   3.112  0.00  0.00    +0.032 C 
ENDROOT
BRANCH   1  10
ATOM      3  C   UNL     1       0.096   1.932   1.977  0.00  0.00    +0.028 C 
ATOM      4  C   UNL     1      -0.109   0.708   1.083  0.00  0.00    +0.074 C 
ATOM      5  C   UNL     1       0.336   1.035  -0.346  0.00  0.00    +0.022 C 
ATOM      6  C   UNL     1       1.844   1.295  -0.360  0.00  0.00    +0.004 C 
ATOM      7  C   UNL     1       2.584   0.037   0.100  0.00  0.00    +0.022 C 
ATOM      8  C   UNL     1       2.164  -0.302   1.534  0.00  0.00    +0.074 C 
ATOM      9  N   UNL     1       0.698  -0.411   1.588  0.00  0.00    -0.291 N 
ATOM     10  C   UNL     1       0.105  -1.515   2.086  0.00  0.00    +0.257 C 
ATOM     11  O   UNL     1       0.781  -2.396   2.583  0.00  0.00    -0.269 OA
ATOM     12  C   UNL     1       2.795  -1.631   1.953  0.00  0.00    +0.028 C 
ENDBRANCH   1  10
BRANCH   2  13
ATOM     13  C   UNL     1      -3.477  -2.444   3.001  0.00  0.00    -0.023 A 
ATOM     14  C   UNL     1      -4.018  -2.860   1.775  0.00  0.00    +0.011 A 
ATOM     15  C   UNL     1      -5.354  -3.129   1.678  0.00  0.00    +0.046 A 
ATOM     16  C   UNL     1      -6.177  -2.991   2.791  0.00  0.00    +0.117 A 
ATOM     17  C   UNL     1      -5.646  -2.579   4.009  0.00  0.00    +0.046 A 
ATOM     18  C   UNL     1      -4.311  -2.313   4.120  0.00  0.00    +0.011 A 
BRANCH  16  19
ATOM     19  O   UNL     1      -7.503  -3.259   2.687  0.00  0.00    -0.507 OA
ATOM     20  H   UNL     1      -7.734  -4.179   2.875  0.00  0.00    +0.292 HD
ENDBRANCH  16  19
ENDBRANCH   2  13
BRANCH   1  21
ATOM     21  C   UNL     1      -2.068  -1.270   0.845  0.00  0.00    +0.104 C 
ATOM     22  N   UNL     1      -2.631  -0.965  -0.094  0.00  0.00    -0.191 NA
ENDBRANCH   1  21
TORSDOF 4
