REMARK  Name = ZINC36484176
REMARK  9 active torsions:
REMARK  status: ('A' for Active; 'I' for Inactive)
REMARK    1  A    between atoms: C_1  and  C_2
REMARK    2  A    between atoms: C_2  and  C_3
REMARK    3  A    between atoms: C_2  and  C_4
REMARK    4  A    between atoms: C_2  and  N_5
REMARK    5  A    between atoms: C_6  and  C_8
REMARK    6  A    between atoms: C_8  and  C_10
REMARK    7  A    between atoms: C_8  and  N_19
REMARK    8  A    between atoms: C_13  and  N_16
REMARK    9  A    between atoms: N_19  and  C_22
REMARK                            x       y       z     vdW  Elec       q    Type
REMARK                         _______ _______ _______ _____ _____    ______ ____
ROOT
ATOM      1  C   UNL     1       2.644  -0.484  -2.654  0.00  0.00    +0.197 C 
ENDROOT
BRANCH   1   2
ATOM      2  C   UNL     1       2.320   0.137  -3.989  0.00  0.00    -0.018 A 
ATOM      3  C   UNL     1       1.908  -0.660  -5.040  0.00  0.00    +0.008 A 
ATOM      4  C   UNL     1       1.611  -0.091  -6.264  0.00  0.00    +0.033 A 
ATOM      5  C   UNL     1       1.727   1.276  -6.437  0.00  0.00    +0.126 A 
ATOM      6  C   UNL     1       2.139   2.073  -5.386  0.00  0.00    +0.033 A 
ATOM      7  C   UNL     1       2.432   1.504  -4.160  0.00  0.00    +0.008 A 
BRANCH   5   8
ATOM      8  N   UNL     1       1.411   1.886  -7.748  0.00  0.00    +0.056 N 
ATOM      9  O   UNL     1       1.051   1.188  -8.668  0.00  0.00    -0.126 OA
ATOM     10  O   UNL     1       1.512   3.081  -7.899  0.00  0.00    -0.126 OA
ENDBRANCH   5   8
ENDBRANCH   1   2
BRANCH   1  12
ATOM     11  N   UNL     1       0.456   0.096  -1.655  0.00  0.00    -0.309 N 
ATOM     12  C   UNL     1       1.801   0.159  -1.583  0.00  0.00    +0.239 C 
ATOM     13  O   UNL     1       2.332   0.734  -0.657  0.00  0.00    -0.273 OA
ATOM     14  H   UNL     1       0.031  -0.364  -2.396  0.00  0.00    +0.149 HD
BRANCH  11  16
ATOM     15  C   UNL     1      -0.066   2.221  -0.564  0.00  0.00    +0.031 C 
ATOM     16  C   UNL     1      -0.363   0.721  -0.614  0.00  0.00    +0.026 C 
ATOM     17  C   UNL     1      -0.035   0.091   0.741  0.00  0.00    +0.031 C 
ATOM     18  C   UNL     1      -1.844   0.505  -0.932  0.00  0.00    +0.031 C 
ENDBRANCH  11  16
ENDBRANCH   1  12
BRANCH   1  19
ATOM     19  N   UNL     1       4.062  -0.277  -2.350  0.00  0.00    -0.258 N 
ATOM     20  C   UNL     1       4.531   0.969  -2.141  0.00  0.00    +0.333 C 
ATOM     21  O   UNL     1       5.721   1.152  -1.993  0.00  0.00    -0.279 OA
BRANCH  19  22
ATOM     22  C   UNL     1       4.929  -1.373  -2.276  0.00  0.00    +0.039 A 
ATOM     23  C   UNL     1       5.672  -1.596  -1.124  0.00  0.00    +0.023 A 
ATOM     24  C   UNL     1       6.527  -2.678  -1.054  0.00  0.00    +0.003 A 
ATOM     25  C   UNL     1       6.645  -3.540  -2.129  0.00  0.00    +0.020 A 
ATOM     26  C   UNL     1       5.906  -3.320  -3.279  0.00  0.00    +0.043 A 
ATOM     27  C   UNL     1       5.044  -2.242  -3.352  0.00  0.00    +0.043 A 
ATOM     28 CL   UNL     1       6.058  -4.404  -4.627  0.00  0.00    -0.083 Cl
ENDBRANCH  19  22
ENDBRANCH   1  19
TORSDOF 6
