REMARK  Name = ZINC32059625
REMARK  6 active torsions:
REMARK  status: ('A' for Active; 'I' for Inactive)
REMARK    1  A    between atoms: C_1  and  C_2
REMARK    2  A    between atoms: C_2  and  N_3
REMARK    3  A    between atoms: C_6  and  C_13
REMARK    4  A    between atoms: C_8  and  C_10
REMARK    5  A    between atoms: C_10  and  C_11
REMARK    6  A    between atoms: C_10  and  C_12
REMARK                            x       y       z     vdW  Elec       q    Type
REMARK                         _______ _______ _______ _____ _____    ______ ____
ROOT
ATOM      1  N   UNL     1      -0.162   1.234   2.828  0.00  0.00    -0.278 N 
ATOM      2  C   UNL     1      -0.460  -0.047   3.260  0.00  0.00    +0.151 A 
ATOM      3  C   UNL     1       0.111  -0.498   4.462  0.00  0.00    +0.094 A 
ATOM      4  C   UNL     1      -0.171  -1.796   4.917  0.00  0.00    +0.055 A 
ATOM      5  C   UNL     1      -1.015  -2.587   4.134  0.00  0.00    +0.037 A 
ATOM      6  C   UNL     1      -1.531  -2.068   2.958  0.00  0.00    +0.047 A 
ATOM      7  N   UNL     1      -1.247  -0.845   2.558  0.00  0.00    -0.233 NA
ATOM      8  C   UNL     1       0.989   0.417   5.212  0.00  0.00    +0.264 A 
ATOM      9  O   UNL     1       1.501   0.073   6.259  0.00  0.00    -0.267 OA
ATOM     10  N   UNL     1       1.209   1.649   4.703  0.00  0.00    -0.274 N 
ATOM     11  H   UNL     1       1.860   2.357   5.238  0.00  0.00    +0.173 HD
ATOM     12  C   UNL     1       0.645   2.032   3.547  0.00  0.00    +0.331 A 
ATOM     13  O   UNL     1       0.875   3.151   3.131  0.00  0.00    -0.246 OA
ENDROOT
BRANCH   4  14
ATOM     14  C   UNL     1       0.405  -2.308   6.183  0.00  0.00    +0.252 C 
ATOM     15  O   UNL     1       1.562  -2.676   6.218  0.00  0.00    -0.270 OA
ATOM     16  N   UNL     1      -0.355  -2.364   7.294  0.00  0.00    -0.267 N 
ATOM     17  C   UNL     1       0.129  -2.745   8.624  0.00  0.00    +0.118 C 
ATOM     18  C   UNL     1      -1.101  -2.655   9.542  0.00  0.00    +0.056 C 
ATOM     19  C   UNL     1      -2.225  -2.216   8.630  0.00  0.00    -0.024 A 
ATOM     20  C   UNL     1      -1.718  -2.062   7.349  0.00  0.00    +0.040 A 
ATOM     21  C   UNL     1      -2.576  -1.654   6.326  0.00  0.00    +0.024 A 
ATOM     22  C   UNL     1      -3.906  -1.404   6.591  0.00  0.00    +0.002 A 
ATOM     23  C   UNL     1      -4.400  -1.556   7.873  0.00  0.00    +0.000 A 
ATOM     24  C   UNL     1      -3.559  -1.969   8.890  0.00  0.00    +0.005 A 
ENDBRANCH   4  14
BRANCH   6  25
ATOM     25  C   UNL     1      -2.441  -2.924   2.115  0.00  0.00    +0.032 C 
ATOM     26  C   UNL     1      -1.600  -3.823   1.208  0.00  0.00    +0.014 C 
ATOM     27  C   UNL     1      -3.313  -3.791   3.025  0.00  0.00    +0.014 C 
ENDBRANCH   6  25
BRANCH   1  29
ATOM     28  C   UNL     1       0.203   1.396   0.415  0.00  0.00    +0.027 C 
ATOM     29  C   UNL     1      -0.738   1.728   1.575  0.00  0.00    +0.125 C 
ENDBRANCH   1  29
TORSDOF 3
