REMARK  Name = ZINC25524416
REMARK  7 active torsions:
REMARK  status: ('A' for Active; 'I' for Inactive)
REMARK    1  A    between atoms: C_1  and  C_2
REMARK    2  A    between atoms: C_2  and  C_4
REMARK    3  A    between atoms: C_2  and  N_20
REMARK    4  A    between atoms: N_6  and  C_7
REMARK    5  A    between atoms: C_12  and  O_13
REMARK    6  A    between atoms: O_13  and  C_14
REMARK    7  A    between atoms: C_23  and  C_26
REMARK                            x       y       z     vdW  Elec       q    Type
REMARK                         _______ _______ _______ _____ _____    ______ ____
ROOT
ATOM      1  C   UNL     1      -0.476   9.246  -0.045  0.00  0.00    +0.203 C 
ATOM      2  O   UNL     1      -1.578   9.751  -0.006  0.00  0.00    -0.277 OA
ATOM      3  N   UNL     1      -0.351   7.904  -0.087  0.00  0.00    -0.284 N 
ATOM      4  H   UNL     1       0.644   7.448  -0.187  0.00  0.00    +0.155 HD
ENDROOT
BRANCH   3   5
ATOM      5  C   UNL     1      -1.490   7.092  -0.004  0.00  0.00    +0.076 A 
ATOM      6  C   UNL     1      -2.687   7.512  -0.566  0.00  0.00    +0.027 A 
ATOM      7  C   UNL     1      -3.809   6.710  -0.479  0.00  0.00    +0.002 A 
ATOM      8  C   UNL     1      -3.742   5.488   0.164  0.00  0.00    +0.004 A 
ATOM      9  C   UNL     1      -2.552   5.061   0.722  0.00  0.00    +0.048 A 
ATOM     10  C   UNL     1      -1.421   5.858   0.638  0.00  0.00    +0.150 A 
BRANCH  10  11
ATOM     11  O   UNL     1      -0.250   5.439   1.187  0.00  0.00    -0.454 OA
BRANCH  11  12
ATOM     12  C   UNL     1       0.033   5.826   2.458  0.00  0.00    +0.129 A 
ATOM     13  C   UNL     1       1.164   5.338   3.097  0.00  0.00    +0.046 A 
ATOM     14  C   UNL     1       1.450   5.733   4.390  0.00  0.00    +0.004 A 
ATOM     15  C   UNL     1       0.610   6.612   5.047  0.00  0.00    +0.000 A 
ATOM     16  C   UNL     1      -0.521   7.096   4.415  0.00  0.00    +0.004 A 
ATOM     17  C   UNL     1      -0.808   6.709   3.120  0.00  0.00    +0.046 A 
ENDBRANCH  11  12
ENDBRANCH  10  11
ENDBRANCH   3   5
BRANCH   1  19
ATOM     18  C   UNL     1       1.558   9.861  -1.322  0.00  0.00    -0.004 C 
ATOM     19  C   UNL     1       0.753  10.117  -0.047  0.00  0.00    +0.016 C 
BRANCH  19  20
ATOM     20  N   UNL     1       0.352  11.530   0.004  0.00  0.00    +0.387 N 
ATOM     21  C   UNL     1      -0.462  11.888  -1.165  0.00  0.00    -0.077 C 
ATOM     22  C   UNL     1      -0.982  13.319  -1.007  0.00  0.00    -0.006 C 
ATOM     23  C   UNL     1       0.206  14.276  -0.876  0.00  0.00    +0.071 C 
ATOM     24  C   UNL     1       1.064  13.852   0.320  0.00  0.00    -0.006 C 
ATOM     25  C   UNL     1       1.524  12.406   0.123  0.00  0.00    -0.077 C 
ATOM     26  H   UNL     1      -0.268  11.675   0.901  0.00  0.00    -0.081 HD
BRANCH  23  27
ATOM     27  C   UNL     1      -0.298  15.680  -0.661  0.00  0.00    +0.213 C 
ATOM     28  O   UNL     1      -0.002  16.283   0.349  0.00  0.00    -0.276 OA
ATOM     29  N   UNL     1      -1.079  16.265  -1.591  0.00  0.00    -0.329 N 
ATOM     30  H   UNL     1      -1.447  17.290  -1.434  0.00  0.00    +0.145 HD
ATOM     31  H   UNL     1      -1.348  15.718  -2.506  0.00  0.00    +0.145 HD
ENDBRANCH  23  27
ENDBRANCH  19  20
ENDBRANCH   1  19
TORSDOF 6
