REMARK  Name = ZINC23125304
REMARK  7 active torsions:
REMARK  status: ('A' for Active; 'I' for Inactive)
REMARK    1  A    between atoms: C_1  and  O_2
REMARK    2  A    between atoms: O_2  and  C_3
REMARK    3  A    between atoms: C_6  and  S_11
REMARK    4  A    between atoms: C_8  and  O_9
REMARK    5  A    between atoms: O_9  and  C_10
REMARK    6  A    between atoms: S_11  and  N_14
REMARK    7  A    between atoms: C_17  and  C_20
REMARK                            x       y       z     vdW  Elec       q    Type
REMARK                         _______ _______ _______ _____ _____    ______ ____
ROOT
ATOM      1  N   UNL     1      -3.507   3.498  -1.776  0.00  0.00    -0.177 NA
ATOM      2  C   UNL     1      -3.386   4.957  -1.653  0.00  0.00    +0.110 C 
ATOM      3  C   UNL     1      -4.628   5.612  -2.256  0.00  0.00    +0.030 C 
ATOM      4  C   UNL     1      -4.818   5.115  -3.691  0.00  0.00    +0.078 C 
ATOM      5  C   UNL     1      -5.024   3.599  -3.685  0.00  0.00    +0.030 C 
ATOM      6  C   UNL     1      -3.782   2.921  -3.099  0.00  0.00    +0.110 C 
ENDROOT
BRANCH   4   7
ATOM      7  C   UNL     1      -6.025   5.784  -4.298  0.00  0.00    +0.223 C 
ATOM      8  O   UNL     1      -7.128   5.306  -4.136  0.00  0.00    -0.275 OA
ATOM      9  N   UNL     1      -5.879   6.912  -5.020  0.00  0.00    -0.271 N 
ATOM     10  C   UNL     1      -4.594   7.527  -5.366  0.00  0.00    +0.118 C 
ATOM     11  C   UNL     1      -4.954   8.775  -6.189  0.00  0.00    +0.056 C 
ATOM     12  C   UNL     1      -6.465   8.776  -6.239  0.00  0.00    -0.024 A 
ATOM     13  C   UNL     1      -6.930   7.671  -5.543  0.00  0.00    +0.039 A 
ATOM     14  C   UNL     1      -8.306   7.458  -5.451  0.00  0.00    +0.024 A 
ATOM     15  C   UNL     1      -9.187   8.337  -6.045  0.00  0.00    +0.002 A 
ATOM     16  C   UNL     1      -8.713   9.436  -6.738  0.00  0.00    +0.000 A 
ATOM     17  C   UNL     1      -7.351   9.653  -6.833  0.00  0.00    +0.005 A 
ENDBRANCH   4   7
BRANCH   1  18
ATOM     18  S   UNL     1      -3.344   2.523  -0.448  0.00  0.00    +0.061 S 
ATOM     19  O   UNL     1      -4.043   1.320  -0.739  0.00  0.00    -0.153 OA
ATOM     20  O   UNL     1      -3.648   3.325   0.685  0.00  0.00    -0.153 OA
BRANCH  18  24
ATOM     21  C   UNL     1       1.040   1.422  -0.125  0.00  0.00    +0.162 A 
ATOM     22  C   UNL     1       0.175   0.626  -0.860  0.00  0.00    +0.051 A 
ATOM     23  C   UNL     1      -1.161   0.968  -0.961  0.00  0.00    +0.032 A 
ATOM     24  C   UNL     1      -1.639   2.096  -0.321  0.00  0.00    +0.109 A 
ATOM     25  C   UNL     1      -0.782   2.894   0.414  0.00  0.00    +0.078 A 
ATOM     26  C   UNL     1       0.559   2.560   0.514  0.00  0.00    +0.163 A 
BRANCH  21  28
ATOM     27  C   UNL     1       2.777  -0.092  -0.713  0.00  0.00    +0.277 C 
ATOM     28  O   UNL     1       2.355   1.090  -0.030  0.00  0.00    -0.491 OA
ENDBRANCH  21  28
BRANCH  26  29
ATOM     29  O   UNL     1       1.404   3.344   1.237  0.00  0.00    -0.491 OA
ATOM     30  C   UNL     1       0.841   4.497   1.866  0.00  0.00    +0.277 C 
ENDBRANCH  26  29
ENDBRANCH  18  24
ENDBRANCH   1  18
TORSDOF 5
