REMARK  Name = ZINC04231252
REMARK  10 active torsions:
REMARK  status: ('A' for Active; 'I' for Inactive)
REMARK    1  A    between atoms: C_1  and  C_2
REMARK    2  A    between atoms: C_5  and  C_30
REMARK    3  A    between atoms: C_9  and  C_14
REMARK    4  A    between atoms: C_14  and  N_15
REMARK    5  A    between atoms: N_15  and  C_16
REMARK    6  A    between atoms: C_16  and  C_17
REMARK    7  A    between atoms: C_17  and  N_57
REMARK    8  A    between atoms: C_18  and  N_57
REMARK    9  A    between atoms: C_19  and  N_57
REMARK   10  A    between atoms: N_22  and  C_23
REMARK                            x       y       z     vdW  Elec       q    Type
REMARK                         _______ _______ _______ _____ _____    ______ ____
ROOT
ATOM      1  N   UNL     1      -0.017   1.343  -0.010  0.00  0.00    -0.283 N 
ATOM      2  C   UNL     1       0.002  -0.005  -0.006  0.00  0.00    +0.307 C 
ATOM      3  O   UNL     1      -1.043  -0.627   0.002  0.00  0.00    -0.252 OA
ATOM      4  N   UNL     1       1.178  -0.662  -0.013  0.00  0.00    -0.267 N 
ATOM      5  H   UNL     1       2.010  -0.168  -0.085  0.00  0.00    +0.156 HD
ENDROOT
BRANCH   4   6
ATOM      6  C   UNL     1       1.200  -2.059   0.085  0.00  0.00    +0.070 A 
ATOM      7  C   UNL     1       0.193  -2.814  -0.500  0.00  0.00    +0.026 A 
ATOM      8  C   UNL     1       0.221  -4.192  -0.406  0.00  0.00    +0.002 A 
ATOM      9  C   UNL     1       1.244  -4.820   0.279  0.00  0.00    +0.003 A 
ATOM     10  C   UNL     1       2.247  -4.073   0.868  0.00  0.00    +0.040 A 
ATOM     11  C   UNL     1       2.229  -2.693   0.774  0.00  0.00    +0.145 A 
ATOM     12  F   UNL     1       3.208  -1.962   1.351  0.00  0.00    -0.204 F 
ENDBRANCH   4   6
BRANCH   1  13
ATOM     13  C   UNL     1      -1.296   2.057  -0.009  0.00  0.00    +0.149 C 
BRANCH  13  22
ATOM     14  C   UNL     1      -0.853   5.997   3.368  0.00  0.00    +0.044 C 
ATOM     15  C   UNL     1      -1.608   4.894   4.063  0.00  0.00    -0.041 A 
ATOM     16  C   UNL     1      -2.031   5.058   5.352  0.00  0.00    +0.004 A 
ATOM     17  C   UNL     1      -2.727   4.048   6.002  0.00  0.00    +0.005 A 
ATOM     18  C   UNL     1      -3.005   2.860   5.360  0.00  0.00    -0.026 A 
ATOM     19  C   UNL     1      -2.585   2.670   4.048  0.00  0.00    +0.052 A 
ATOM     20  C   UNL     1      -1.879   3.697   3.393  0.00  0.00    +0.002 A 
ATOM     21  C   UNL     1      -1.441   3.486   2.012  0.00  0.00    +0.020 A 
ATOM     22  C   UNL     1      -1.732   2.306   1.412  0.00  0.00    +0.035 A 
ATOM     23  C   UNL     1      -2.447   1.310   2.112  0.00  0.00    +0.254 A 
ATOM     24  O   UNL     1      -2.703   0.258   1.553  0.00  0.00    -0.268 OA
ATOM     25  N   UNL     1      -2.850   1.492   3.382  0.00  0.00    -0.322 N 
ATOM     26  H   UNL     1      -3.348   0.763   3.851  0.00  0.00    +0.169 HD
ATOM     27  C   UNL     1      -3.761   1.772   6.078  0.00  0.00    +0.046 C 
ENDBRANCH  13  22
ENDBRANCH   1  13
BRANCH   1  28
ATOM     28  C   UNL     1       1.241   2.093  -0.020  0.00  0.00    +0.091 C 
BRANCH  28  29
ATOM     29  C   UNL     1       1.669   2.351  -1.466  0.00  0.00    -0.060 C 
BRANCH  29  32
ATOM     30  C   UNL     1       4.029   2.298  -0.924  0.00  0.00    -0.097 C 
ATOM     31  C   UNL     1       3.252   3.575  -2.830  0.00  0.00    -0.097 C 
ATOM     32  N   UNL     1       2.928   3.127  -1.459  0.00  0.00    +0.377 N 
ATOM     33  H   UNL     1       2.808   3.951  -0.858  0.00  0.00    -0.083 HD
ENDBRANCH  29  32
ENDBRANCH  28  29
ENDBRANCH   1  28
TORSDOF 6
