REMARK  Name = ZINC49176681
REMARK  7 active torsions:
REMARK  status: ('A' for Active; 'I' for Inactive)
REMARK    1  A    between atoms: C_1  and  C_2
REMARK    2  A    between atoms: C_3  and  S_9
REMARK    3  A    between atoms: N_5  and  C_7
REMARK    4  A    between atoms: S_9  and  N_12
REMARK    5  A    between atoms: C_14  and  C_21
REMARK    6  A    between atoms: C_17  and  C_19
REMARK    7  A    between atoms: C_17  and  C_20
REMARK                            x       y       z     vdW  Elec       q    Type
REMARK                         _______ _______ _______ _____ _____    ______ ____
ROOT
ATOM      1  S   UNL     1      -0.009  -0.263  -2.808  0.00  0.00    +0.066 S 
ATOM      2  O   UNL     1      -0.548  -1.324  -3.583  0.00  0.00    -0.153 OA
ATOM      3  O   UNL     1      -0.579   1.039  -2.798  0.00  0.00    -0.153 OA
ENDROOT
BRANCH   1   4
ATOM      4  N   UNL     1       1.568  -0.085  -3.281  0.00  0.00    -0.171 NA
ATOM      5  C   UNL     1       2.276   1.191  -3.094  0.00  0.00    +0.140 C 
ATOM      6  C   UNL     1       3.611   0.906  -2.396  0.00  0.00    +0.132 C 
ATOM      7  O   UNL     1       4.312  -0.109  -3.118  0.00  0.00    -0.368 OA
ATOM      8  C   UNL     1       3.637  -1.368  -3.162  0.00  0.00    +0.079 C 
ATOM      9  C   UNL     1       2.305  -1.201  -3.895  0.00  0.00    +0.144 C 
ATOM     10  C   UNL     1       3.374  -1.858  -1.737  0.00  0.00    +0.042 C 
ATOM     11  C   UNL     1       4.505  -2.388  -3.903  0.00  0.00    +0.042 C 
ATOM     12  C   UNL     1       4.452   2.184  -2.360  0.00  0.00    +0.039 C 
ENDBRANCH   1   4
BRANCH   1  15
ATOM     13  C   UNL     1      -0.018   1.503   0.010  0.00  0.00    +0.069 C 
ATOM     14  C   UNL     1       0.002  -0.004   0.002  0.00  0.00    +0.088 A 
ATOM     15  C   UNL     1       0.008  -0.818  -1.135  0.00  0.00    +0.164 A 
ATOM     16  C   UNL     1       0.028  -2.108  -0.724  0.00  0.00    +0.153 A 
ATOM     17  N   UNL     1       0.035  -2.109   0.626  0.00  0.00    -0.254 N 
ATOM     18  N   UNL     1       0.023  -0.777   1.058  0.00  0.00    -0.173 NA
ATOM     19  C   UNL     1       0.055  -3.294   1.487  0.00  0.00    +0.174 C 
ATOM     20 CL   UNL     1       0.043  -3.509  -1.749  0.00  0.00    -0.060 Cl
ENDBRANCH   1  15
TORSDOF 2
