REMARK  Name = ZINC65594313
REMARK  4 active torsions:
REMARK  status: ('A' for Active; 'I' for Inactive)
REMARK    1  A    between atoms: C_2  and  C_3
REMARK    2  A    between atoms: C_3  and  N_4
REMARK    3  A    between atoms: C_11  and  C_14
REMARK    4  A    between atoms: C_16  and  C_19
REMARK                            x       y       z     vdW  Elec       q    Type
REMARK                         _______ _______ _______ _____ _____    ______ ____
ROOT
ATOM      1  N   UNL     1      -3.430  -2.446  -0.472  0.00  0.00    -0.296 N 
ATOM      2  C   UNL     1      -2.386  -2.498  -1.322  0.00  0.00    +0.302 C 
ATOM      3  O   UNL     1      -1.463  -1.715  -1.200  0.00  0.00    -0.253 OA
ATOM      4  N   UNL     1      -2.363  -3.417  -2.307  0.00  0.00    -0.285 N 
ATOM      5  C   UNL     1      -1.182  -3.563  -3.168  0.00  0.00    +0.109 C 
ATOM      6  C   UNL     1      -0.735  -5.028  -3.148  0.00  0.00    +0.020 C 
ATOM      7  C   UNL     1      -1.913  -5.923  -3.541  0.00  0.00    +0.016 C 
ATOM      8  C   UNL     1      -3.047  -5.750  -2.527  0.00  0.00    +0.095 C 
ATOM      9  C   UNL     1      -3.518  -4.297  -2.537  0.00  0.00    +0.122 C 
ATOM     10  H   UNL     1      -4.199  -3.021  -0.613  0.00  0.00    +0.151 HD
ENDROOT
BRANCH   8  11
ATOM     11  C   UNL     1      -4.193  -6.655  -2.896  0.00  0.00    +0.232 A 
ATOM     12  N   UNL     1      -4.689  -7.598  -2.147  0.00  0.00    -0.191 NA
ATOM     13  C   UNL     1      -5.704  -8.208  -2.787  0.00  0.00    +0.202 A 
ATOM     14  N   UNL     1      -5.857  -7.646  -3.960  0.00  0.00    -0.056 NA
ATOM     15  O   UNL     1      -4.878  -6.622  -4.046  0.00  0.00    -0.337 OA
BRANCH  13  16
ATOM     16  C   UNL     1      -6.513  -9.331  -2.252  0.00  0.00    +0.023 A 
ATOM     17  C   UNL     1      -6.252  -9.838  -0.981  0.00  0.00    +0.013 A 
ATOM     18  C   UNL     1      -7.007 -10.883  -0.488  0.00  0.00    +0.021 A 
ATOM     19  C   UNL     1      -8.024 -11.427  -1.254  0.00  0.00    +0.041 A 
ATOM     20  C   UNL     1      -8.287 -10.926  -2.518  0.00  0.00    +0.021 A 
ATOM     21  C   UNL     1      -7.541  -9.878  -3.017  0.00  0.00    +0.013 A 
ATOM     22 CL   UNL     1      -8.970 -12.740  -0.629  0.00  0.00    -0.084 Cl
ENDBRANCH  13  16
ENDBRANCH   8  11
BRANCH   1  23
ATOM     23  C   UNL     1      -3.405  -1.523   0.665  0.00  0.00    +0.132 C 
BRANCH  23  25
ATOM     24  C   UNL     1      -4.636  -1.922   2.736  0.00  0.00    +0.005 C 
ATOM     25  C   UNL     1      -4.682  -1.661   1.453  0.00  0.00    -0.016 C 
ENDBRANCH  23  25
ENDBRANCH   1  23
TORSDOF 4
