REMARK  Name = ZINC60665496
REMARK  3 active torsions:
REMARK  status: ('A' for Active; 'I' for Inactive)
REMARK    1  A    between atoms: C_6  and  C_7
REMARK    2  A    between atoms: C_7  and  O_9
REMARK    3  A    between atoms: O_9  and  C_10
REMARK                            x       y       z     vdW  Elec       q    Type
REMARK                         _______ _______ _______ _____ _____    ______ ____
ROOT
ATOM      1  C   UNL     1      -0.021   1.399   0.011  0.00  0.00    +0.017 A 
ATOM      2  C   UNL     1       1.161   2.109   0.004  0.00  0.00    +0.028 A 
ATOM      3  C   UNL     1       2.374   1.437  -0.052  0.00  0.00    +0.076 A 
ATOM      4  C   UNL     1       2.403   0.041  -0.102  0.00  0.00    +0.143 A 
ATOM      5  C   UNL     1       1.224  -0.674  -0.094  0.00  0.00    +0.062 A 
ATOM      6  C   UNL     1       0.001   0.003  -0.037  0.00  0.00    +0.063 A 
ATOM      7  O   UNL     1       3.601  -0.602  -0.160  0.00  0.00    -0.481 OA
ATOM      8  C   UNL     1       4.654   0.066  -0.860  0.00  0.00    +0.325 C 
ATOM      9  C   UNL     1       4.712   1.509  -0.429  0.00  0.00    +0.255 C 
ATOM     10  O   UNL     1       5.772   2.098  -0.414  0.00  0.00    -0.272 OA
ATOM     11  N   UNL     1       3.579   2.145  -0.059  0.00  0.00    -0.280 N 
ATOM     12  H   UNL     1       3.601   3.080   0.198  0.00  0.00    +0.155 HD
ENDROOT
BRANCH   6  13
ATOM     13  C   UNL     1      -1.263  -0.756  -0.029  0.00  0.00    +0.345 C 
ATOM     14  O   UNL     1      -1.244  -1.970  -0.071  0.00  0.00    -0.245 OA
BRANCH  13  15
ATOM     15  O   UNL     1      -2.441  -0.102   0.026  0.00  0.00    -0.422 OA
BRANCH  15  16
ATOM     16  C   UNL     1      -3.582  -0.835  -0.071  0.00  0.00    +0.134 A 
ATOM     17  C   UNL     1      -4.037  -1.559   1.021  0.00  0.00    +0.049 A 
ATOM     18  C   UNL     1      -5.197  -2.303   0.922  0.00  0.00    +0.043 A 
ATOM     19  C   UNL     1      -5.906  -2.326  -0.268  0.00  0.00    +0.142 A 
ATOM     20  C   UNL     1      -5.453  -1.603  -1.359  0.00  0.00    +0.080 A 
ATOM     21  C   UNL     1      -4.295  -0.853  -1.260  0.00  0.00    +0.069 A 
ATOM     22 CL   UNL     1      -6.343  -1.633  -2.850  0.00  0.00    -0.080 Cl
ATOM     23  F   UNL     1      -7.040  -3.054  -0.363  0.00  0.00    -0.204 F 
ENDBRANCH  15  16
ENDBRANCH  13  15
ENDBRANCH   6  13
TORSDOF 3
