REMARK  Name = ZINC64800946
REMARK  8 active torsions:
REMARK  status: ('A' for Active; 'I' for Inactive)
REMARK    1  A    between atoms: C_1  and  C_2
REMARK    2  A    between atoms: C_4  and  C_28
REMARK    3  A    between atoms: N_6  and  C_8
REMARK    4  A    between atoms: C_8  and  C_9
REMARK    5  A    between atoms: C_8  and  C_10
REMARK    6  A    between atoms: C_8  and  C_11
REMARK    7  A    between atoms: C_11  and  N_12
REMARK    8  A    between atoms: C_13  and  C_15
REMARK                            x       y       z     vdW  Elec       q    Type
REMARK                         _______ _______ _______ _____ _____    ______ ____
ROOT
ATOM      1  N   UNL     1      -0.842  -2.881   3.398  0.00  0.00    -0.316 N 
ATOM      2  C   UNL     1      -1.655  -2.455   4.384  0.00  0.00    +0.216 C 
ATOM      3  O   UNL     1      -1.227  -1.721   5.249  0.00  0.00    -0.276 OA
ATOM      4  H   UNL     1      -1.184  -3.468   2.706  0.00  0.00    +0.149 HD
ENDROOT
BRANCH   2   5
ATOM      5  C   UNL     1      -3.098  -2.892   4.412  0.00  0.00    +0.078 C 
ATOM      6  C   UNL     1      -3.795  -2.430   3.131  0.00  0.00    +0.032 C 
ATOM      7  C   UNL     1      -5.251  -2.905   3.147  0.00  0.00    +0.110 C 
ATOM      8  N   UNL     1      -5.888  -2.433   4.384  0.00  0.00    -0.285 N 
ATOM      9  C   UNL     1      -5.250  -2.744   5.671  0.00  0.00    +0.110 C 
ATOM     10  C   UNL     1      -3.794  -2.271   5.626  0.00  0.00    +0.032 C 
ATOM     11  C   UNL     1      -7.036  -1.728   4.340  0.00  0.00    +0.305 C 
ATOM     12  O   UNL     1      -7.446  -1.299   3.278  0.00  0.00    -0.252 OA
ATOM     13  N   UNL     1      -7.730  -1.499   5.472  0.00  0.00    -0.285 N 
ATOM     14  C   UNL     1      -7.266  -1.792   6.836  0.00  0.00    +0.109 C 
ATOM     15  C   UNL     1      -8.399  -1.388   7.802  0.00  0.00    +0.020 C 
ATOM     16  C   UNL     1      -9.657  -1.416   6.894  0.00  0.00    +0.020 C 
ATOM     17  C   UNL     1      -9.078  -0.906   5.548  0.00  0.00    +0.109 C 
ENDBRANCH   2   5
BRANCH   1  18
ATOM     18  C   UNL     1       0.560  -2.457   3.370  0.00  0.00    +0.092 C 
BRANCH  18  19
ATOM     19  C   UNL     1       1.257  -3.077   2.157  0.00  0.00    -0.055 C 
ATOM     20  C   UNL     1       1.187  -4.602   2.253  0.00  0.00    -0.008 C 
ATOM     21  C   UNL     1       2.721  -2.634   2.129  0.00  0.00    -0.008 C 
BRANCH  19  27
ATOM     22  C   UNL     1      -0.053   0.831  -0.484  0.00  0.00    +0.005 C 
ATOM     23  C   UNL     1      -0.120  -0.695  -0.395  0.00  0.00    -0.031 C 
ATOM     24  C   UNL     1       0.514  -1.308  -1.647  0.00  0.00    +0.003 C 
ATOM     25  C   UNL     1       0.513  -2.834  -1.513  0.00  0.00    -0.031 C 
ATOM     26  C   UNL     1       1.256  -3.228  -0.235  0.00  0.00    -0.075 C 
ATOM     27  N   UNL     1       0.587  -2.633   0.928  0.00  0.00    +0.384 N 
ATOM     28  C   UNL     1       0.647  -1.169   0.842  0.00  0.00    -0.075 C 
ATOM     29  C   UNL     1       1.214  -3.453  -2.724  0.00  0.00    +0.005 C 
ATOM     30  H   UNL     1      -0.378  -2.928   0.947  0.00  0.00    -0.081 HD
ENDBRANCH  19  27
ENDBRANCH  18  19
ENDBRANCH   1  18
TORSDOF 4
