REMARK  Name = ZINC65249024
REMARK  5 active torsions:
REMARK  status: ('A' for Active; 'I' for Inactive)
REMARK    1  A    between atoms: C_1  and  N_2
REMARK    2  A    between atoms: C_6  and  S_12
REMARK    3  A    between atoms: S_12  and  N_15
REMARK    4  A    between atoms: C_22  and  O_29
REMARK    5  A    between atoms: O_29  and  C_30
REMARK                            x       y       z     vdW  Elec       q    Type
REMARK                         _______ _______ _______ _____ _____    ______ ____
ROOT
ATOM      1  N   UNL     1      -4.322  -4.700  -1.582  0.00  0.00    -0.175 NA
ATOM      2  C   UNL     1      -5.404  -4.121  -2.394  0.00  0.00    +0.111 C 
ATOM      3  C   UNL     1      -5.303  -4.742  -3.806  0.00  0.00    +0.039 C 
ATOM      4  C   UNL     1      -3.847  -5.235  -3.858  0.00  0.00    +0.089 C 
ATOM      5  C   UNL     1      -3.566  -5.660  -2.413  0.00  0.00    +0.130 C 
ATOM      6  C   UNL     1      -3.671  -6.363  -4.828  0.00  0.00    -0.006 A 
ATOM      7  C   UNL     1      -4.234  -7.614  -4.946  0.00  0.00    +0.052 A 
ATOM      8  C   UNL     1      -3.853  -8.452  -5.984  0.00  0.00    +0.120 A 
ATOM      9  C   UNL     1      -2.902  -8.025  -6.900  0.00  0.00    +0.047 A 
ATOM     10  C   UNL     1      -2.336  -6.774  -6.781  0.00  0.00    +0.027 A 
ATOM     11  C   UNL     1      -2.714  -5.927  -5.742  0.00  0.00    +0.038 A 
ATOM     12  N   UNL     1      -2.288  -4.635  -5.416  0.00  0.00    -0.284 N 
ATOM     13  C   UNL     1      -2.909  -4.158  -4.317  0.00  0.00    +0.229 C 
ATOM     14  O   UNL     1      -2.741  -3.073  -3.803  0.00  0.00    -0.274 OA
ATOM     15  H   UNL     1      -1.624  -4.140  -5.921  0.00  0.00    +0.155 HD
ENDROOT
BRANCH   1  16
ATOM     16  S   UNL     1      -4.000  -4.331  -0.000  0.00  0.00    +0.061 S 
ATOM     17  O   UNL     1      -3.300  -5.443   0.541  0.00  0.00    -0.153 OA
ATOM     18  O   UNL     1      -5.214  -3.849   0.559  0.00  0.00    -0.153 OA
BRANCH  16  24
ATOM     19  C   UNL     1      -0.018   1.461   0.010  0.00  0.00    +0.156 C 
ATOM     20  N   UNL     1       0.002  -0.004   0.002  0.00  0.00    -0.277 N 
ATOM     21  C   UNL     1      -1.111  -0.844   0.003  0.00  0.00    +0.090 A 
ATOM     22  C   UNL     1      -2.478  -0.613   0.010  0.00  0.00    +0.031 A 
ATOM     23  C   UNL     1      -3.355  -1.680   0.009  0.00  0.00    +0.031 A 
ATOM     24  C   UNL     1      -2.873  -2.977   0.000  0.00  0.00    +0.109 A 
ATOM     25  C   UNL     1      -1.513  -3.215  -0.008  0.00  0.00    +0.077 A 
ATOM     26  C   UNL     1      -0.625  -2.151  -0.007  0.00  0.00    +0.159 A 
ATOM     27  O   UNL     1       0.729  -2.076  -0.013  0.00  0.00    -0.407 OA
ATOM     28  C   UNL     1       1.100  -0.786  -0.013  0.00  0.00    +0.421 A 
ATOM     29  O   UNL     1       2.248  -0.385  -0.022  0.00  0.00    -0.223 OA
ENDBRANCH  16  24
ENDBRANCH   1  16
BRANCH   8  30
ATOM     30  O   UNL     1      -4.409  -9.688  -6.103  0.00  0.00    -0.495 OA
ATOM     31  C   UNL     1      -3.967 -10.495  -7.196  0.00  0.00    +0.277 C 
ENDBRANCH   8  30
TORSDOF 3
