REMARK  Name = ZINC54913009
REMARK  3 active torsions:
REMARK  status: ('A' for Active; 'I' for Inactive)
REMARK    1  A    between atoms: C_13  and  O_14
REMARK    2  A    between atoms: O_14  and  C_15
REMARK    3  A    between atoms: C_15  and  C_17
REMARK                            x       y       z     vdW  Elec       q    Type
REMARK                         _______ _______ _______ _____ _____    ______ ____
ROOT
ATOM      1  C   UNL     1      -0.017   1.375   0.010  0.00  0.00    +0.001 A 
ATOM      2  C   UNL     1       1.169   2.088   0.002  0.00  0.00    +0.000 A 
ATOM      3  C   UNL     1       2.380   1.420  -0.013  0.00  0.00    +0.008 A 
ATOM      4  C   UNL     1       2.408   0.042  -0.021  0.00  0.00    +0.005 A 
ATOM      5  C   UNL     1       1.221  -0.685  -0.013  0.00  0.00    -0.010 A 
ATOM      6  C   UNL     1       0.002  -0.004   0.002  0.00  0.00    +0.009 A 
ATOM      7  C   UNL     1       1.530  -2.136  -0.025  0.00  0.00    -0.010 A 
ATOM      8  C   UNL     1       0.694  -3.254  -0.023  0.00  0.00    +0.009 A 
ATOM      9  C   UNL     1       1.238  -4.521  -0.035  0.00  0.00    +0.001 A 
ATOM     10  C   UNL     1       2.611  -4.690  -0.050  0.00  0.00    +0.000 A 
ATOM     11  C   UNL     1       3.445  -3.587  -0.052  0.00  0.00    +0.008 A 
ATOM     12  C   UNL     1       2.910  -2.316  -0.040  0.00  0.00    +0.005 A 
ATOM     13  C   UNL     1       3.547  -0.948  -0.038  0.00  0.00    +0.238 C 
ENDROOT
BRANCH  13  14
ATOM     14  O   UNL     1       4.335  -0.771  -1.217  0.00  0.00    -0.448 OA
BRANCH  14  15
ATOM     15  C   UNL     1       5.645  -1.076  -1.129  0.00  0.00    +0.342 C 
ATOM     16  O   UNL     1       6.106  -1.480  -0.079  0.00  0.00    -0.245 OA
BRANCH  15  17
ATOM     17  C   UNL     1       6.519  -0.918  -2.304  0.00  0.00    +0.077 A 
ATOM     18  C   UNL     1       5.989  -0.441  -3.529  0.00  0.00    +0.041 A 
ATOM     19  C   UNL     1       6.819  -0.305  -4.597  0.00  0.00    +0.106 A 
ATOM     20  C   UNL     1       8.181  -0.639  -4.465  0.00  0.00    +0.267 A 
ATOM     21  O   UNL     1       8.930  -0.518  -5.420  0.00  0.00    -0.266 OA
ATOM     22  N   UNL     1       8.663  -1.090  -3.292  0.00  0.00    -0.327 N 
ATOM     23  H   UNL     1       9.603  -1.315  -3.217  0.00  0.00    +0.168 HD
ATOM     24  C   UNL     1       7.861  -1.228  -2.219  0.00  0.00    +0.101 A 
ATOM     25 CL   UNL     1       6.204   0.276  -6.114  0.00  0.00    -0.078 Cl
ENDBRANCH  15  17
ENDBRANCH  14  15
ENDBRANCH  13  14
TORSDOF 3
