REMARK  Name = ZINC05584841
REMARK  9 active torsions:
REMARK  status: ('A' for Active; 'I' for Inactive)
REMARK    1  A    between atoms: C_1  and  C_2
REMARK    2  A    between atoms: C_2  and  C_3
REMARK    3  A    between atoms: C_3  and  C_4
REMARK    4  A    between atoms: C_4  and  C_5
REMARK    5  A    between atoms: C_5  and  N_24
REMARK    6  A    between atoms: N_8  and  C_18
REMARK    7  A    between atoms: N_9  and  C_12
REMARK    8  A    between atoms: N_24  and  C_25
REMARK    9  A    between atoms: C_28  and  C_31
REMARK                            x       y       z     vdW  Elec       q    Type
REMARK                         _______ _______ _______ _____ _____    ______ ____
ROOT
ATOM      1  C   UNL     1       1.146   2.039  -0.316  0.00  0.00    +0.189 C 
ATOM      2  C   UNL     1       0.086   1.047   0.118  0.00  0.00    +0.269 C 
ATOM      3  O   UNL     1       0.109  -0.155  -0.037  0.00  0.00    -0.271 OA
ATOM      4  N   UNL     1      -0.889   1.767   0.704  0.00  0.00    -0.179 N 
ATOM      5  N   UNL     1      -0.589   3.127   0.715  0.00  0.00    -0.179 N 
ATOM      6  C   UNL     1       0.597   3.379   0.128  0.00  0.00    +0.269 C 
ATOM      7  O   UNL     1       1.121   4.463  -0.016  0.00  0.00    -0.271 OA
ENDROOT
BRANCH   5   8
ATOM      8  C   UNL     1      -1.419   4.110   1.264  0.00  0.00    +0.057 A 
ATOM      9  C   UNL     1      -2.762   4.162   0.914  0.00  0.00    +0.025 A 
ATOM     10  C   UNL     1      -3.580   5.130   1.461  0.00  0.00    +0.002 A 
ATOM     11  C   UNL     1      -3.060   6.056   2.348  0.00  0.00    +0.000 A 
ATOM     12  C   UNL     1      -1.722   6.011   2.694  0.00  0.00    +0.002 A 
ATOM     13  C   UNL     1      -0.900   5.041   2.155  0.00  0.00    +0.025 A 
ENDBRANCH   5   8
BRANCH   4  14
ATOM     14  C   UNL     1      -2.059   1.217   1.239  0.00  0.00    +0.057 A 
ATOM     15  C   UNL     1      -2.495   1.601   2.500  0.00  0.00    +0.025 A 
ATOM     16  C   UNL     1      -3.653   1.060   3.023  0.00  0.00    +0.002 A 
ATOM     17  C   UNL     1      -4.372   0.128   2.297  0.00  0.00    +0.000 A 
ATOM     18  C   UNL     1      -3.937  -0.261   1.043  0.00  0.00    +0.002 A 
ATOM     19  C   UNL     1      -2.783   0.281   0.512  0.00  0.00    +0.025 A 
ENDBRANCH   4  14
BRANCH   1  20
ATOM     20  N   UNL     1       1.313   2.009  -1.771  0.00  0.00    -0.323 N 
ATOM     21  H   UNL     1       2.191   1.861  -2.155  0.00  0.00    +0.148 HD
BRANCH  20  22
ATOM     22  C   UNL     1       0.208   2.195  -2.605  0.00  0.00    +0.028 A 
ATOM     23  C   UNL     1      -1.015   2.574  -2.066  0.00  0.00    +0.023 A 
ATOM     24  C   UNL     1      -2.104   2.761  -2.894  0.00  0.00    +0.005 A 
ATOM     25  C   UNL     1      -1.982   2.561  -4.256  0.00  0.00    -0.050 A 
ATOM     26  C   UNL     1      -0.767   2.178  -4.796  0.00  0.00    +0.005 A 
ATOM     27  C   UNL     1       0.328   1.994  -3.974  0.00  0.00    +0.023 A 
ATOM     28  C   UNL     1      -3.174   2.761  -5.156  0.00  0.00    +0.044 C 
ENDBRANCH  20  22
ENDBRANCH   1  20
BRANCH   1  29
ATOM     29  C   UNL     1       2.475   1.743   0.382  0.00  0.00    +0.045 C 
BRANCH  29  30
ATOM     30  C   UNL     1       3.527   2.757  -0.073  0.00  0.00    +0.003 C 
BRANCH  30  32
ATOM     31  C   UNL     1       5.907   3.475   0.170  0.00  0.00    +0.004 C 
ATOM     32  C   UNL     1       4.856   2.461   0.625  0.00  0.00    -0.003 C 
ENDBRANCH  30  32
ENDBRANCH  29  30
ENDBRANCH   1  29
TORSDOF 7
