REMARK  Name = ZINC33258628
REMARK  6 active torsions:
REMARK  status: ('A' for Active; 'I' for Inactive)
REMARK    1  A    between atoms: C_1  and  C_2
REMARK    2  A    between atoms: C_3  and  C_23
REMARK    3  A    between atoms: N_5  and  C_7
REMARK    4  A    between atoms: C_10  and  C_13
REMARK    5  A    between atoms: C_15  and  C_18
REMARK    6  A    between atoms: N_25  and  C_26
REMARK                            x       y       z     vdW  Elec       q    Type
REMARK                         _______ _______ _______ _____ _____    ______ ____
ROOT
ATOM      1  C   UNL     1      -1.620   6.553   0.399  0.00  0.00    +0.068 C 
ATOM      2  C   UNL     1      -2.718   5.521   0.371  0.00  0.00    +0.072 A 
ATOM      3  C   UNL     1      -2.541   4.124   0.249  0.00  0.00    +0.078 A 
ATOM      4  C   UNL     1      -3.797   3.551   0.259  0.00  0.00    +0.127 A 
ATOM      5  N   UNL     1      -4.692   4.548   0.390  0.00  0.00    -0.239 N 
ATOM      6  N   UNL     1      -3.997   5.761   0.453  0.00  0.00    -0.171 NA
ENDROOT
BRANCH   5   7
ATOM      7  C   UNL     1      -6.082   4.397   0.447  0.00  0.00    +0.065 A 
ATOM      8  C   UNL     1      -6.647   3.129   0.367  0.00  0.00    +0.028 A 
ATOM      9  C   UNL     1      -8.015   2.978   0.429  0.00  0.00    +0.014 A 
ATOM     10  C   UNL     1      -8.835   4.098   0.558  0.00  0.00    +0.023 A 
ATOM     11  C   UNL     1      -8.267   5.369   0.632  0.00  0.00    +0.014 A 
ATOM     12  C   UNL     1      -6.897   5.515   0.577  0.00  0.00    +0.028 A 
BRANCH  10  13
ATOM     13  C   UNL     1     -10.308   3.938   0.619  0.00  0.00    +0.202 A 
ATOM     14  N   UNL     1     -10.993   2.774   0.554  0.00  0.00    -0.191 NA
ATOM     15  C   UNL     1     -12.257   3.103   0.648  0.00  0.00    +0.231 A 
ATOM     16  O   UNL     1     -12.310   4.434   0.757  0.00  0.00    -0.337 OA
ATOM     17  N   UNL     1     -11.189   4.898   0.739  0.00  0.00    -0.056 NA
BRANCH  15  18
ATOM     18  C   UNL     1     -13.431   2.159   0.631  0.00  0.00    +0.078 C 
ATOM     19  C   UNL     1     -14.394   2.534  -0.514  0.00  0.00    +0.013 C 
ATOM     20  C   UNL     1     -15.803   2.273   0.073  0.00  0.00    +0.001 C 
ATOM     21  C   UNL     1     -15.653   2.739   1.543  0.00  0.00    +0.001 C 
ATOM     22  C   UNL     1     -14.232   2.289   1.939  0.00  0.00    +0.013 C 
ENDBRANCH  15  18
ENDBRANCH  10  13
ENDBRANCH   5   7
BRANCH   3  23
ATOM     23  C   UNL     1      -1.256   3.412   0.128  0.00  0.00    +0.252 C 
ATOM     24  O   UNL     1      -0.212   4.037   0.127  0.00  0.00    -0.270 OA
ATOM     25  N   UNL     1      -1.237   2.069   0.019  0.00  0.00    -0.281 N 
ATOM     26  H   UNL     1      -2.182   1.510  -0.057  0.00  0.00    +0.155 HD
BRANCH  25  27
ATOM     27  C   UNL     1      -0.017   1.385   0.002  0.00  0.00    +0.034 A 
ATOM     28  C   UNL     1       1.090   1.954  -0.615  0.00  0.00    +0.025 A 
ATOM     29  C   UNL     1       2.293   1.274  -0.635  0.00  0.00    +0.022 A 
ATOM     30  C   UNL     1       2.395   0.028  -0.042  0.00  0.00    +0.041 A 
ATOM     31  C   UNL     1       1.293  -0.541   0.573  0.00  0.00    +0.022 A 
ATOM     32  C   UNL     1       0.089   0.135   0.597  0.00  0.00    +0.025 A 
ATOM     33 CL   UNL     1       3.908  -0.823  -0.069  0.00  0.00    -0.084 Cl
ENDBRANCH  25  27
ENDBRANCH   3  23
TORSDOF 5
