REMARK  Name = ZINC02440631
REMARK  8 active torsions:
REMARK  status: ('A' for Active; 'I' for Inactive)
REMARK    1  A    between atoms: C_1  and  C_2
REMARK    2  A    between atoms: C_2  and  C_3
REMARK    3  A    between atoms: C_3  and  C_4
REMARK    4  A    between atoms: C_4  and  N_5
REMARK    5  A    between atoms: C_16  and  C_32
REMARK    6  A    between atoms: N_18  and  C_26
REMARK    7  A    between atoms: C_21  and  N_25
REMARK    8  A    between atoms: C_22  and  C_23
REMARK                            x       y       z     vdW  Elec       q    Type
REMARK                         _______ _______ _______ _____ _____    ______ ____
ROOT
ATOM      1  N   UNL     1       0.625  -3.694  -0.421  0.00  0.00    -0.270 N 
ATOM      2  C   UNL     1       0.857  -3.645   0.943  0.00  0.00    +0.041 A 
ATOM      3  C   UNL     1       0.440  -4.523   1.945  0.00  0.00    +0.024 A 
ATOM      4  C   UNL     1       0.821  -4.228   3.244  0.00  0.00    +0.002 A 
ATOM      5  C   UNL     1       1.581  -3.117   3.549  0.00  0.00    +0.000 A 
ATOM      6  C   UNL     1       2.002  -2.235   2.560  0.00  0.00    +0.007 A 
ATOM      7  C   UNL     1       1.628  -2.521   1.265  0.00  0.00    -0.001 A 
ATOM      8  C   UNL     1       1.893  -1.813  -0.025  0.00  0.00    +0.145 C 
ATOM      9  C   UNL     1       1.196  -2.657  -1.069  0.00  0.00    +0.240 C 
ATOM     10  O   UNL     1       1.157  -2.442  -2.262  0.00  0.00    -0.274 OA
ATOM     11  C   UNL     1       1.326  -0.422  -0.013  0.00  0.00    +0.062 A 
ATOM     12  C   UNL     1       0.002  -0.004   0.002  0.00  0.00    +0.069 A 
ATOM     13  N   UNL     1      -0.016   1.308   0.009  0.00  0.00    -0.168 NA
ATOM     14  N   UNL     1       1.310   1.770  -0.001  0.00  0.00    -0.200 N 
ATOM     15  C   UNL     1       2.122   0.692  -0.014  0.00  0.00    +0.230 A 
ATOM     16  O   UNL     1       3.476   0.623  -0.028  0.00  0.00    -0.423 OA
ATOM     17  C   UNL     1       4.046  -0.569  -0.300  0.00  0.00    +0.201 C 
ATOM     18  C   UNL     1       3.367  -1.740  -0.316  0.00  0.00    +0.110 C 
ATOM     19  C   UNL     1      -1.207  -0.903   0.008  0.00  0.00    +0.068 C 
ENDROOT
BRANCH  14  20
ATOM     20  C   UNL     1       1.717   3.111   0.002  0.00  0.00    +0.069 A 
ATOM     21  C   UNL     1       2.865   3.489   0.686  0.00  0.00    +0.028 A 
ATOM     22  C   UNL     1       3.266   4.810   0.683  0.00  0.00    +0.002 A 
ATOM     23  C   UNL     1       2.521   5.759   0.007  0.00  0.00    +0.000 A 
ATOM     24  C   UNL     1       1.374   5.387  -0.670  0.00  0.00    +0.002 A 
ATOM     25  C   UNL     1       0.971   4.067  -0.675  0.00  0.00    +0.028 A 
ENDBRANCH  14  20
BRANCH  17  26
ATOM     26  N   UNL     1       5.390  -0.595  -0.577  0.00  0.00    -0.328 N 
ATOM     27  H   UNL     1       5.827  -1.438  -0.777  0.00  0.00    +0.145 HD
ATOM     28  H   UNL     1       5.902   0.228  -0.574  0.00  0.00    +0.145 HD
ENDBRANCH  17  26
BRANCH  18  29
ATOM     29  C   UNL     1       4.075  -2.947  -0.619  0.00  0.00    +0.102 C 
ATOM     30  N   UNL     1       4.636  -3.905  -0.860  0.00  0.00    -0.191 NA
ENDBRANCH  18  29
BRANCH   1  31
ATOM     31  C   UNL     1      -0.149  -4.748  -1.082  0.00  0.00    +0.114 C 
BRANCH  31  32
ATOM     32  C   UNL     1      -1.623  -4.341  -1.135  0.00  0.00    +0.019 C 
BRANCH  32  34
ATOM     33  C   UNL     1      -3.905  -5.035  -1.879  0.00  0.00    +0.004 C 
ATOM     34  C   UNL     1      -2.431  -5.441  -1.826  0.00  0.00    -0.002 C 
ENDBRANCH  32  34
ENDBRANCH  31  32
ENDBRANCH   1  31
TORSDOF 6
