REMARK  Name = ZINC61912549
REMARK  4 active torsions:
REMARK  status: ('A' for Active; 'I' for Inactive)
REMARK    1  A    between atoms: C_1  and  C_2
REMARK    2  A    between atoms: N_6  and  C_15
REMARK    3  A    between atoms: C_10  and  N_14
REMARK    4  A    between atoms: C_15  and  C_16
REMARK                            x       y       z     vdW  Elec       q    Type
REMARK                         _______ _______ _______ _____ _____    ______ ____
ROOT
ATOM      1  C   UNL     1      -0.188   1.516  -0.184  0.00  0.00    +0.062 C 
ATOM      2  C   UNL     1      -0.179  -0.014  -0.215  0.00  0.00    +0.256 C 
ATOM      3  C   UNL     1       0.621  -0.487  -1.402  0.00  0.00    +0.260 C 
ATOM      4  O   UNL     1       0.071  -0.694  -2.463  0.00  0.00    -0.271 OA
ATOM      5  N   UNL     1       1.952  -0.680  -1.279  0.00  0.00    -0.265 N 
ATOM      6  C   UNL     1       2.557  -0.467  -0.029  0.00  0.00    +0.078 A 
ATOM      7  C   UNL     1       3.932  -0.337   0.077  0.00  0.00    +0.029 A 
ATOM      8  C   UNL     1       4.511  -0.129   1.315  0.00  0.00    +0.025 A 
ATOM      9  C   UNL     1       3.717  -0.049   2.451  0.00  0.00    +0.028 A 
ATOM     10  C   UNL     1       2.338  -0.177   2.348  0.00  0.00    +0.070 A 
ATOM     11  C   UNL     1       1.757  -0.386   1.110  0.00  0.00    +0.145 A 
ATOM     12  O   UNL     1       0.409  -0.511   0.990  0.00  0.00    -0.478 OA
ENDROOT
BRANCH   9  13
ATOM     13  N   UNL     1       4.307   0.161   3.702  0.00  0.00    -0.358 N 
ATOM     14  H   UNL     1       5.271   0.251   3.775  0.00  0.00    +0.142 HD
ATOM     15  H   UNL     1       3.753   0.217   4.496  0.00  0.00    +0.142 HD
ENDBRANCH   9  13
BRANCH   5  16
ATOM     16  C   UNL     1       2.752  -1.105  -2.430  0.00  0.00    +0.117 C 
BRANCH  16  17
ATOM     17  C   UNL     1       2.919  -2.625  -2.402  0.00  0.00    +0.007 C 
ATOM     18  C   UNL     1       1.577  -3.324  -2.731  0.00  0.00    +0.005 C 
ATOM     19  C   UNL     1       2.031  -4.711  -3.249  0.00  0.00    +0.000 C 
ATOM     20  C   UNL     1       3.306  -4.411  -4.064  0.00  0.00    +0.000 C 
ATOM     21  C   UNL     1       3.871  -3.085  -3.525  0.00  0.00    +0.005 C 
ENDBRANCH  16  17
ENDBRANCH   5  16
TORSDOF 3
