REMARK  Name = ZINC41293525
REMARK  6 active torsions:
REMARK  status: ('A' for Active; 'I' for Inactive)
REMARK    1  A    between atoms: C_1  and  C_2
REMARK    2  A    between atoms: C_2  and  N_3
REMARK    3  A    between atoms: C_10  and  C_25
REMARK    4  A    between atoms: C_11  and  C_13
REMARK    5  A    between atoms: C_17  and  C_24
REMARK    6  A    between atoms: C_20  and  C_23
REMARK                            x       y       z     vdW  Elec       q    Type
REMARK                         _______ _______ _______ _____ _____    ______ ____
ROOT
ATOM      1  N   UNL     1       0.436  -1.319  -1.267  0.00  0.00    -0.299 N 
ATOM      2  C   UNL     1      -0.032  -0.668  -2.361  0.00  0.00    +0.203 A 
ATOM      3  N   UNL     1       0.695  -0.511  -3.434  0.00  0.00    -0.230 NA
ATOM      4  C   UNL     1       1.933  -0.982  -3.510  0.00  0.00    +0.116 A 
ATOM      5  C   UNL     1       2.534  -1.678  -2.437  0.00  0.00    +0.076 A 
ATOM      6  C   UNL     1       1.681  -1.832  -1.236  0.00  0.00    +0.262 A 
ATOM      7  O   UNL     1       2.094  -2.410  -0.247  0.00  0.00    -0.267 OA
ATOM      8  C   UNL     1       3.841  -2.119  -2.654  0.00  0.00    -0.017 A 
ATOM      9  C   UNL     1       4.454  -1.866  -3.846  0.00  0.00    +0.080 A 
ATOM     10  S   UNL     1       3.201  -0.974  -4.752  0.00  0.00    -0.064 S 
ATOM     11  C   UNL     1       4.574  -2.871  -1.573  0.00  0.00    +0.046 C 
ENDROOT
BRANCH   9  12
ATOM     12  C   UNL     1       5.807  -2.235  -4.276  0.00  0.00    +0.254 C 
ATOM     13  O   UNL     1       6.748  -2.081  -3.520  0.00  0.00    -0.269 OA
ATOM     14  N   UNL     1       6.007  -2.743  -5.508  0.00  0.00    -0.292 N 
ATOM     15  C   UNL     1       7.338  -3.212  -5.927  0.00  0.00    +0.139 C 
ATOM     16  C   UNL     1       7.193  -4.623  -6.507  0.00  0.00    +0.133 C 
ATOM     17  O   UNL     1       6.176  -4.617  -7.512  0.00  0.00    -0.371 OA
ATOM     18  C   UNL     1       4.875  -4.277  -7.027  0.00  0.00    +0.133 C 
ATOM     19  C   UNL     1       4.900  -2.852  -6.471  0.00  0.00    +0.139 C 
ATOM     20  C   UNL     1       3.864  -4.365  -8.171  0.00  0.00    +0.039 C 
ATOM     21  C   UNL     1       6.805  -5.596  -5.391  0.00  0.00    +0.039 C 
ENDBRANCH   9  12
BRANCH   1  23
ATOM     22  C   UNL     1      -0.229  -0.264   0.837  0.00  0.00    +0.027 C 
ATOM     23  C   UNL     1      -0.429  -1.462  -0.093  0.00  0.00    +0.123 C 
ENDBRANCH   1  23
TORSDOF 2
