REMARK  Name = ZINC15497041
REMARK  7 active torsions:
REMARK  status: ('A' for Active; 'I' for Inactive)
REMARK    1  A    between atoms: C_1  and  C_2
REMARK    2  A    between atoms: C_3  and  C_7
REMARK    3  A    between atoms: N_9  and  C_10
REMARK    4  A    between atoms: C_15  and  C_16
REMARK    5  A    between atoms: C_16  and  C_17
REMARK    6  A    between atoms: C_16  and  C_18
REMARK    7  A    between atoms: C_16  and  C_19
REMARK                            x       y       z     vdW  Elec       q    Type
REMARK                         _______ _______ _______ _____ _____    ______ ____
ROOT
ATOM      1  C   UNL     1      -2.440  -0.474   0.414  0.00  0.00    +0.252 C 
ATOM      2  O   UNL     1      -2.702   0.714   0.421  0.00  0.00    -0.270 OA
ATOM      3  N   UNL     1      -3.428  -1.381   0.280  0.00  0.00    -0.281 N 
ATOM      4  H   UNL     1      -3.213  -2.322   0.186  0.00  0.00    +0.155 HD
ENDROOT
BRANCH   1   7
ATOM      5  C   UNL     1       0.077   1.369   0.740  0.00  0.00    +0.087 C 
ATOM      6  C   UNL     1       0.064  -0.137   0.694  0.00  0.00    +0.114 A 
ATOM      7  C   UNL     1      -1.043  -0.921   0.551  0.00  0.00    +0.078 A 
ATOM      8  C   UNL     1      -0.550  -2.307   0.563  0.00  0.00    +0.054 A 
ATOM      9  C   UNL     1       0.781  -2.224   0.710  0.00  0.00    +0.196 A 
ATOM     10  O   UNL     1       1.135  -0.931   0.780  0.00  0.00    -0.467 OA
ENDBRANCH   1   7
BRANCH   3  11
ATOM     11  C   UNL     1      -4.764  -0.965   0.278  0.00  0.00    +0.037 A 
ATOM     12  C   UNL     1      -5.071   0.390   0.298  0.00  0.00    +0.023 A 
ATOM     13  C   UNL     1      -6.390   0.797   0.296  0.00  0.00    +0.002 A 
ATOM     14  C   UNL     1      -7.405  -0.142   0.273  0.00  0.00    +0.000 A 
ATOM     15  C   UNL     1      -7.103  -1.491   0.252  0.00  0.00    +0.006 A 
ATOM     16  C   UNL     1      -5.785  -1.905   0.248  0.00  0.00    -0.021 A 
BRANCH  16  17
ATOM     17  C   UNL     1      -5.456  -3.376   0.219  0.00  0.00    -0.011 C 
ATOM     18  C   UNL     1      -6.753  -4.188   0.224  0.00  0.00    +0.015 C 
ATOM     19  C   UNL     1      -4.659  -3.695  -1.048  0.00  0.00    +0.015 C 
ATOM     20  C   UNL     1      -4.623  -3.737   1.450  0.00  0.00    +0.015 C 
ENDBRANCH  16  17
ENDBRANCH   3  11
TORSDOF 3
