REMARK  Name = ZINC19169571
REMARK  3 active torsions:
REMARK  status: ('A' for Active; 'I' for Inactive)
REMARK    1  A    between atoms: C_1  and  C_2
REMARK    2  A    between atoms: C_5  and  C_8
REMARK    3  A    between atoms: N_16  and  C_19
REMARK                            x       y       z     vdW  Elec       q    Type
REMARK                         _______ _______ _______ _____ _____    ______ ____
ROOT
ATOM      1  C   UNL     1       0.007  -4.230  -0.030  0.00  0.00    +0.117 C 
ATOM      2  C   UNL     1      -1.341  -4.834   0.417  0.00  0.00    +0.126 C 
ATOM      3  C   UNL     1      -0.947  -6.069   1.268  0.00  0.00    +0.173 C 
ATOM      4  C   UNL     1      -1.476  -7.233   0.461  0.00  0.00    +0.246 C 
ATOM      5  O   UNL     1      -1.387  -8.401   0.774  0.00  0.00    -0.273 OA
ATOM      6  N   UNL     1      -2.057  -6.773  -0.653  0.00  0.00    -0.209 N 
ATOM      7  C   UNL     1      -2.045  -5.425  -0.784  0.00  0.00    +0.233 C 
ATOM      8  O   UNL     1      -2.513  -4.791  -1.704  0.00  0.00    -0.274 OA
ATOM      9  N   UNL     1       0.530  -6.098   1.284  0.00  0.00    -0.227 NA
ATOM     10  N   UNL     1       0.981  -4.734   0.968  0.00  0.00    -0.231 NA
ATOM     11  C   UNL     1       0.815  -3.997   2.245  0.00  0.00    +0.104 C 
ATOM     12  C   UNL     1       1.218  -5.030   3.321  0.00  0.00    +0.034 C 
ATOM     13  C   UNL     1       1.009  -6.391   2.652  0.00  0.00    +0.104 C 
ENDROOT
BRANCH   1  18
ATOM     14  C   UNL     1      -0.218   1.543   0.096  0.00  0.00    +0.044 C 
ATOM     15  C   UNL     1      -0.160   0.037   0.063  0.00  0.00    -0.050 A 
ATOM     16  C   UNL     1       1.058  -0.609   0.166  0.00  0.00    +0.003 A 
ATOM     17  C   UNL     1       1.112  -1.990   0.136  0.00  0.00    +0.005 A 
ATOM     18  C   UNL     1      -0.052  -2.724   0.004  0.00  0.00    -0.028 A 
ATOM     19  C   UNL     1      -1.269  -2.078  -0.098  0.00  0.00    +0.005 A 
ATOM     20  C   UNL     1      -1.324  -0.697  -0.064  0.00  0.00    +0.003 A 
ENDBRANCH   1  18
BRANCH   6  21
ATOM     21  C   UNL     1      -2.640  -7.617  -1.608  0.00  0.00    +0.044 A 
ATOM     22  C   UNL     1      -2.074  -7.736  -2.870  0.00  0.00    +0.024 A 
ATOM     23  C   UNL     1      -2.651  -8.569  -3.809  0.00  0.00    +0.002 A 
ATOM     24  C   UNL     1      -3.792  -9.283  -3.493  0.00  0.00    +0.000 A 
ATOM     25  C   UNL     1      -4.359  -9.166  -2.237  0.00  0.00    +0.002 A 
ATOM     26  C   UNL     1      -3.783  -8.340  -1.292  0.00  0.00    +0.024 A 
ENDBRANCH   6  21
TORSDOF 2
