REMARK  Name = ZINC07378332
REMARK  2 active torsions:
REMARK  status: ('A' for Active; 'I' for Inactive)
REMARK    1  A    between atoms: N_11  and  S_12
REMARK    2  A    between atoms: S_12  and  C_15
REMARK                            x       y       z     vdW  Elec       q    Type
REMARK                         _______ _______ _______ _____ _____    ______ ____
ROOT
ATOM      1  C   UNL     1       2.581   5.286   0.606  0.00  0.00    +0.002 A 
ATOM      2  C   UNL     1       1.446   5.984   0.976  0.00  0.00    +0.002 A 
ATOM      3  C   UNL     1       0.221   5.343   1.027  0.00  0.00    +0.026 A 
ATOM      4  C   UNL     1       0.135   4.000   0.705  0.00  0.00    +0.073 A 
ATOM      5  C   UNL     1       1.280   3.293   0.335  0.00  0.00    +0.056 A 
ATOM      6  C   UNL     1       2.502   3.943   0.285  0.00  0.00    +0.025 A 
ATOM      7  N   UNL     1       1.179   1.932   0.019  0.00  0.00    -0.283 N 
ATOM      8  C   UNL     1      -0.021   1.367  -0.210  0.00  0.00    +0.236 C 
ATOM      9  O   UNL     1      -0.090   0.178  -0.440  0.00  0.00    -0.274 OA
ATOM     10  C   UNL     1      -1.280   2.196  -0.193  0.00  0.00    +0.227 C 
ATOM     11  N   UNL     1      -1.094   3.326   0.735  0.00  0.00    -0.192 N 
ATOM     12  H   UNL     1       1.983   1.391  -0.035  0.00  0.00    +0.155 HD
ENDROOT
BRANCH  11  13
ATOM     13  S   UNL     1      -2.296   3.787   1.776  0.00  0.00    +0.078 S 
ATOM     14  O   UNL     1      -2.180   5.195   1.933  0.00  0.00    -0.150 OA
ATOM     15  O   UNL     1      -3.490   3.168   1.317  0.00  0.00    -0.150 OA
BRANCH  13  16
ATOM     16  C   UNL     1      -1.930   3.074   3.345  0.00  0.00    +0.144 A 
ATOM     17  C   UNL     1      -1.638   3.887   4.423  0.00  0.00    +0.032 A 
ATOM     18  C   UNL     1      -1.356   3.328   5.655  0.00  0.00    +0.002 A 
ATOM     19  C   UNL     1      -1.355   1.954   5.808  0.00  0.00    +0.003 A 
ATOM     20  C   UNL     1      -1.641   1.138   4.730  0.00  0.00    +0.040 A 
ATOM     21  C   UNL     1      -1.929   1.698   3.496  0.00  0.00    +0.150 A 
ATOM     22  F   UNL     1      -2.208   0.901   2.441  0.00  0.00    -0.203 F 
ENDBRANCH  13  16
ENDBRANCH  11  13
TORSDOF 2
