REMARK  Name = ZINC63807353
REMARK  8 active torsions:
REMARK  status: ('A' for Active; 'I' for Inactive)
REMARK    1  A    between atoms: C_1  and  C_2
REMARK    2  A    between atoms: N_5  and  C_6
REMARK    3  A    between atoms: C_6  and  C_8
REMARK    4  A    between atoms: C_9  and  C_10
REMARK    5  A    between atoms: C_13  and  O_16
REMARK    6  A    between atoms: O_16  and  C_17
REMARK    7  A    between atoms: C_19  and  C_21
REMARK    8  A    between atoms: C_24  and  C_28
REMARK                            x       y       z     vdW  Elec       q    Type
REMARK                         _______ _______ _______ _____ _____    ______ ____
ROOT
ATOM      1  C   UNL     1      -0.018   1.503   0.010  0.00  0.00    +0.062 C 
ATOM      2  C   UNL     1       0.002  -0.004   0.002  0.00  0.00    +0.036 C 
ATOM      3  N   UNL     1       0.006  -0.668  -1.079  0.00  0.00    -0.232 NA
ATOM      4  C   UNL     1       0.024  -2.028  -1.142  0.00  0.00    +0.181 C 
ATOM      5  N   UNL     1       0.031  -2.802  -2.217  0.00  0.00    -0.151 NA
ATOM      6  S   UNL     1       0.039  -2.515   0.579  0.00  0.00    -0.075 S 
ATOM      7  C   UNL     1       0.025  -0.816   1.291  0.00  0.00    +0.144 C 
ENDROOT
BRANCH   7   8
ATOM      8  C   UNL     1      -1.233  -0.572   2.127  0.00  0.00    +0.230 C 
ATOM      9  N   UNL     1      -1.125  -1.286   3.418  0.00  0.00    -0.268 NA
ATOM     10  C   UNL     1      -2.506  -1.777   3.677  0.00  0.00    +0.187 C 
ATOM     11  N   UNL     1      -2.975  -2.131   2.311  0.00  0.00    -0.177 NA
ATOM     12  O   UNL     1      -2.382  -1.094   1.442  0.00  0.00    -0.278 OA
ATOM     13  H   UNL     1      -0.475  -2.055   3.353  0.00  0.00    +0.126 HD
ATOM     14  H   UNL     1      -2.657  -3.051   2.046  0.00  0.00    +0.156 HD
BRANCH  10  15
ATOM     15  C   UNL     1      -2.486  -2.988   4.573  0.00  0.00    +0.023 A 
ATOM     16  C   UNL     1      -3.350  -4.031   4.617  0.00  0.00    +0.014 A 
ATOM     17  C   UNL     1      -3.132  -5.044   5.532  0.00  0.00    +0.008 A 
ATOM     18  C   UNL     1      -2.061  -4.964   6.358  0.00  0.00    +0.045 A 
ATOM     19  S   UNL     1      -1.314  -3.425   5.847  0.00  0.00    -0.099 S 
ENDBRANCH  10  15
ENDBRANCH   7   8
BRANCH   5  20
ATOM     20  C   UNL     1       0.018  -2.251  -3.442  0.00  0.00    +0.262 C 
ATOM     21  O   UNL     1       0.001  -1.037  -3.564  0.00  0.00    -0.269 OA
BRANCH  20  22
ATOM     22  C   UNL     1       0.025  -3.108  -4.632  0.00  0.00    +0.070 C 
ATOM     23  C   UNL     1       0.012  -2.554  -5.861  0.00  0.00    +0.013 C 
BRANCH  23  24
ATOM     24  C   UNL     1       0.019  -3.414  -7.054  0.00  0.00    -0.025 A 
ATOM     25  C   UNL     1       0.033  -4.806  -6.917  0.00  0.00    +0.011 A 
ATOM     26  C   UNL     1       0.039  -5.606  -8.037  0.00  0.00    +0.046 A 
ATOM     27  C   UNL     1       0.032  -5.033  -9.303  0.00  0.00    +0.120 A 
ATOM     28  C   UNL     1       0.018  -3.651  -9.446  0.00  0.00    +0.046 A 
ATOM     29  C   UNL     1       0.006  -2.842  -8.332  0.00  0.00    +0.011 A 
BRANCH  27  30
ATOM     30  O   UNL     1       0.038  -5.827 -10.405  0.00  0.00    -0.495 OA
ATOM     31  C   UNL     1       0.030  -5.173 -11.675  0.00  0.00    +0.277 C 
ENDBRANCH  27  30
ENDBRANCH  23  24
ENDBRANCH  20  22
ENDBRANCH   5  20
TORSDOF 6
