REMARK  Name = ZINC25490978
REMARK  11 active torsions:
REMARK  status: ('A' for Active; 'I' for Inactive)
REMARK    1  A    between atoms: C_1  and  C_2
REMARK    2  A    between atoms: C_2  and  O_3
REMARK    3  A    between atoms: O_3  and  C_4
REMARK    4  A    between atoms: C_4  and  C_6
REMARK    5  A    between atoms: C_8  and  C_24
REMARK    6  A    between atoms: C_11  and  C_15
REMARK    7  A    between atoms: C_16  and  C_17
REMARK    8  A    between atoms: C_22  and  O_23
REMARK    9  A    between atoms: C_27  and  N_30
REMARK   10  A    between atoms: N_30  and  C_31
REMARK   11  A    between atoms: N_30  and  C_32
REMARK                            x       y       z     vdW  Elec       q    Type
REMARK                         _______ _______ _______ _____ _____    ______ ____
ROOT
ATOM      1  C   UNL     1      -0.015   1.617  -0.029  0.00  0.00    +0.176 C 
ATOM      2  C   UNL     1       1.455   2.047  -0.066  0.00  0.00    +0.045 C 
ATOM      3  C   UNL     1       2.163   1.501   1.177  0.00  0.00    +0.044 C 
ATOM      4  C   UNL     1       2.019   0.003   1.218  0.00  0.00    -0.043 C 
ATOM      5  C   UNL     1       0.934  -0.613   0.677  0.00  0.00    +0.050 C 
ATOM      6  C   UNL     1      -0.088   0.115   0.059  0.00  0.00    +0.171 C 
ATOM      7  O   UNL     1      -1.043  -0.470  -0.413  0.00  0.00    -0.292 OA
ENDROOT
BRANCH   2   8
ATOM      8  C   UNL     1       1.540   3.552  -0.075  0.00  0.00    -0.043 A 
ATOM      9  C   UNL     1       0.864   4.275  -1.040  0.00  0.00    +0.006 A 
ATOM     10  C   UNL     1       0.935   5.654  -1.048  0.00  0.00    +0.023 A 
ATOM     11  C   UNL     1       1.697   6.314  -0.092  0.00  0.00    +0.029 A 
ATOM     12  C   UNL     1       2.380   5.584   0.873  0.00  0.00    +0.023 A 
ATOM     13  C   UNL     1       2.300   4.205   0.878  0.00  0.00    +0.006 A 
BRANCH  11  14
ATOM     14  N   UNL     1       1.776   7.709  -0.100  0.00  0.00    -0.336 N 
ATOM     15  C   UNL     1       2.673   8.397   0.832  0.00  0.00    +0.129 C 
ATOM     16  C   UNL     1       0.962   8.483  -1.040  0.00  0.00    +0.129 C 
ENDBRANCH  11  14
ENDBRANCH   2   8
BRANCH   1  17
ATOM     17  C   UNL     1      -0.687   2.225   1.175  0.00  0.00    +0.318 C 
ATOM     18  O   UNL     1      -0.042   2.873   1.965  0.00  0.00    -0.250 OA
BRANCH  17  19
ATOM     19  O   UNL     1      -2.003   2.045   1.371  0.00  0.00    -0.464 OA
BRANCH  19  21
ATOM     20  C   UNL     1      -4.081   2.348   2.605  0.00  0.00    +0.048 C 
ATOM     21  C   UNL     1      -2.584   2.659   2.552  0.00  0.00    +0.229 C 
ENDBRANCH  19  21
ENDBRANCH  17  19
ENDBRANCH   1  17
BRANCH   4  22
ATOM     22  C   UNL     1       3.023  -0.772   1.826  0.00  0.00    +0.004 C 
ATOM     23  C   UNL     1       4.110  -0.169   2.369  0.00  0.00    +0.012 C 
BRANCH  23  24
ATOM     24  C   UNL     1       5.158  -0.978   3.003  0.00  0.00    +0.016 A 
ATOM     25  C   UNL     1       5.040  -2.373   3.050  0.00  0.00    +0.011 A 
ATOM     26  C   UNL     1       6.028  -3.124   3.646  0.00  0.00    +0.001 A 
ATOM     27  C   UNL     1       7.138  -2.508   4.201  0.00  0.00    +0.004 A 
ATOM     28  C   UNL     1       7.268  -1.133   4.162  0.00  0.00    +0.046 A 
ATOM     29  C   UNL     1       6.288  -0.358   3.562  0.00  0.00    +0.124 A 
BRANCH  29  30
ATOM     30  O   UNL     1       6.418   0.992   3.518  0.00  0.00    -0.506 OA
ATOM     31  H   UNL     1       7.304   1.473   3.957  0.00  0.00    +0.292 HD
ENDBRANCH  29  30
ENDBRANCH  23  24
ENDBRANCH   4  22
TORSDOF 8
