REMARK  Name = ZINC13576693
REMARK  4 active torsions:
REMARK  status: ('A' for Active; 'I' for Inactive)
REMARK    1  A    between atoms: C_1  and  N_2
REMARK    2  A    between atoms: C_4  and  C_26
REMARK    3  A    between atoms: C_6  and  C_18
REMARK    4  A    between atoms: C_18  and  C_20
REMARK                            x       y       z     vdW  Elec       q    Type
REMARK                         _______ _______ _______ _____ _____    ______ ____
ROOT
ATOM      1  C   UNL     1       0.003   1.505   0.076  0.00  0.00    +0.106 C 
ATOM      2  N   UNL     1       0.044   0.037   0.040  0.00  0.00    -0.287 NA
ATOM      3  C   UNL     1      -1.322  -0.531  -0.017  0.00  0.00    +0.094 C 
ATOM      4  C   UNL     1      -1.236  -1.851   0.789  0.00  0.00    +0.046 C 
ATOM      5  C   UNL     1      -0.256  -1.462   1.929  0.00  0.00    +0.104 C 
ATOM      6  C   UNL     1       0.716  -0.499   1.229  0.00  0.00    +0.136 C 
ATOM      7  C   UNL     1       1.996  -1.203   0.866  0.00  0.00    +0.004 A 
ATOM      8  C   UNL     1       2.285  -2.279   0.056  0.00  0.00    +0.008 A 
ATOM      9  C   UNL     1       3.593  -2.708  -0.083  0.00  0.00    +0.000 A 
ATOM     10  C   UNL     1       4.607  -2.054   0.593  0.00  0.00    +0.002 A 
ATOM     11  C   UNL     1       4.322  -0.975   1.404  0.00  0.00    +0.023 A 
ATOM     12  C   UNL     1       3.007  -0.537   1.549  0.00  0.00    +0.039 A 
ATOM     13  N   UNL     1       2.473   0.514   2.298  0.00  0.00    -0.283 N 
ATOM     14  C   UNL     1       1.137   0.605   2.165  0.00  0.00    +0.243 C 
ATOM     15  O   UNL     1       0.411   1.419   2.696  0.00  0.00    -0.273 OA
ATOM     16  H   UNL     1       3.004   1.109   2.850  0.00  0.00    +0.155 HD
ENDROOT
BRANCH   4  17
ATOM     17  C   UNL     1      -2.585  -2.233   1.343  0.00  0.00    -0.042 A 
ATOM     18  C   UNL     1      -3.259  -1.365   2.182  0.00  0.00    +0.005 A 
ATOM     19  C   UNL     1      -4.495  -1.715   2.690  0.00  0.00    +0.020 A 
ATOM     20  C   UNL     1      -5.059  -2.935   2.360  0.00  0.00    +0.041 A 
ATOM     21  C   UNL     1      -4.384  -3.803   1.520  0.00  0.00    +0.020 A 
ATOM     22  C   UNL     1      -3.150  -3.450   1.008  0.00  0.00    +0.005 A 
ATOM     23 CL   UNL     1      -6.612  -3.375   2.998  0.00  0.00    -0.084 Cl
ENDBRANCH   4  17
BRANCH   5  24
ATOM     24  C   UNL     1       0.470  -2.677   2.447  0.00  0.00    +0.187 C 
ATOM     25  O   UNL     1       0.578  -3.662   1.748  0.00  0.00    -0.290 OA
BRANCH  24  26
ATOM     26  C   UNL     1       1.049  -2.668   3.804  0.00  0.00    +0.106 A 
ATOM     27  C   UNL     1       1.725  -3.794   4.276  0.00  0.00    +0.031 A 
ATOM     28  C   UNL     1       2.263  -3.769   5.552  0.00  0.00    +0.004 A 
ATOM     29  C   UNL     1       2.108  -2.621   6.314  0.00  0.00    +0.020 A 
ATOM     30  C   UNL     1       1.424  -1.539   5.782  0.00  0.00    +0.111 A 
ATOM     31  N   UNL     1       0.927  -1.585   4.565  0.00  0.00    -0.252 NA
ENDBRANCH  24  26
ENDBRANCH   5  24
TORSDOF 3
