REMARK  Name = ZINC39466184
REMARK  5 active torsions:
REMARK  status: ('A' for Active; 'I' for Inactive)
REMARK    1  A    between atoms: C_1  and  C_2
REMARK    2  A    between atoms: C_2  and  C_3
REMARK    3  A    between atoms: C_2  and  S_4
REMARK    4  A    between atoms: S_4  and  P_7
REMARK    5  A    between atoms: C_15  and  O_24
REMARK                            x       y       z     vdW  Elec       q    Type
REMARK                         _______ _______ _______ _____ _____    ______ ____
ROOT
ATOM      1  P   UNL     1      -1.503  -2.736   0.180  0.00  0.00    +0.419 P 
ATOM      2  O   UNL     1      -0.777  -3.275  -0.992  0.00  0.00    -0.246 OA
ATOM      3  N   UNL     1      -2.993  -3.441   0.307  0.00  0.00    -0.161 NA
ATOM      4  N   UNL     1      -3.591  -3.400   1.548  0.00  0.00    -0.224 NA
ATOM      5  C   UNL     1      -4.893  -4.082   1.497  0.00  0.00    +0.108 C 
ATOM      6  C   UNL     1      -5.676  -3.741   2.764  0.00  0.00    +0.052 C 
ATOM      7  C   UNL     1      -4.824  -4.017   3.977  0.00  0.00    -0.038 A 
ATOM      8  C   UNL     1      -5.449  -4.153   5.206  0.00  0.00    +0.052 A 
ATOM      9  C   UNL     1      -4.703  -4.407   6.345  0.00  0.00    +0.152 A 
ATOM     10  C   UNL     1      -3.322  -4.523   6.250  0.00  0.00    +0.165 A 
ATOM     11  C   UNL     1      -2.705  -4.386   5.023  0.00  0.00    +0.047 A 
ATOM     12  C   UNL     1      -3.454  -4.133   3.882  0.00  0.00    -0.021 A 
ATOM     13  C   UNL     1      -2.728  -3.993   2.569  0.00  0.00    +0.130 C 
ATOM     14  C   UNL     1      -1.468  -3.150   2.783  0.00  0.00    +0.195 C 
ATOM     15  O   UNL     1      -0.718  -3.121   1.552  0.00  0.00    -0.298 OA
ATOM     16  F   UNL     1      -2.585  -4.769   7.355  0.00  0.00    -0.202 F 
ATOM     17  H   UNL     1      -3.425  -3.862  -0.453  0.00  0.00    +0.152 HD
ENDROOT
BRANCH   1  18
ATOM     18  S   UNL     1      -1.700  -0.632   0.015  0.00  0.00    +0.058 S 
ATOM     19  O   UNL     1      -2.359  -0.234   1.209  0.00  0.00    -0.164 OA
ATOM     20  O   UNL     1      -2.308  -0.423  -1.252  0.00  0.00    -0.164 OA
BRANCH  18  22
ATOM     21  C   UNL     1      -0.019   1.526   0.010  0.00  0.00    +0.032 C 
ATOM     22  C   UNL     1       0.002  -0.004   0.002  0.00  0.00    +0.136 C 
ATOM     23  C   UNL     1       0.742  -0.511   1.242  0.00  0.00    +0.032 C 
ENDBRANCH  18  22
ENDBRANCH   1  18
BRANCH   9  24
ATOM     24  O   UNL     1      -5.319  -4.540   7.550  0.00  0.00    -0.504 OA
ATOM     25  H   UNL     1      -5.580  -5.448   7.759  0.00  0.00    +0.292 HD
ENDBRANCH   9  24
TORSDOF 3
