REMARK  Name = ZINC67510763
REMARK  6 active torsions:
REMARK  status: ('A' for Active; 'I' for Inactive)
REMARK    1  A    between atoms: C_1  and  C_2
REMARK    2  A    between atoms: C_2  and  N_3
REMARK    3  A    between atoms: C_12  and  C_14
REMARK    4  A    between atoms: C_14  and  C_16
REMARK    5  A    between atoms: C_14  and  N_17
REMARK    6  A    between atoms: C_23  and  C_28
REMARK                            x       y       z     vdW  Elec       q    Type
REMARK                         _______ _______ _______ _____ _____    ______ ____
ROOT
ATOM      1  N   UNL     1       0.203  -0.339  -1.759  0.00  0.00    -0.300 N 
ATOM      2  C   UNL     1       0.338  -1.667  -1.946  0.00  0.00    +0.302 C 
ATOM      3  O   UNL     1      -0.165  -2.446  -1.159  0.00  0.00    -0.253 OA
ATOM      4  N   UNL     1       1.030  -2.132  -3.005  0.00  0.00    -0.283 N 
ATOM      5  C   UNL     1       1.742  -1.207  -3.897  0.00  0.00    +0.128 C 
ATOM      6  C   UNL     1       3.213  -1.635  -3.973  0.00  0.00    +0.127 C 
ATOM      7  N   UNL     1       3.269  -3.076  -4.256  0.00  0.00    -0.297 N 
ATOM      8  C   UNL     1       2.557  -4.001  -3.363  0.00  0.00    +0.127 C 
ATOM      9  C   UNL     1       1.090  -3.574  -3.284  0.00  0.00    +0.128 C 
ATOM     10  C   UNL     1       3.962  -3.541  -5.314  0.00  0.00    +0.236 C 
ATOM     11  O   UNL     1       4.627  -2.780  -5.985  0.00  0.00    -0.274 OA
ATOM     12  H   UNL     1       0.663   0.282  -2.345  0.00  0.00    +0.150 HD
ENDROOT
BRANCH   1  14
ATOM     13  C   UNL     1      -0.621   1.696  -0.681  0.00  0.00    +0.024 C 
ATOM     14  C   UNL     1      -0.640   0.166  -0.672  0.00  0.00    +0.102 C 
ENDBRANCH   1  14
BRANCH  10  15
ATOM     15  C   UNL     1       3.908  -5.005  -5.665  0.00  0.00    +0.167 C 
ATOM     16  C   UNL     1       4.739  -5.802  -4.657  0.00  0.00    +0.038 C 
BRANCH  15  17
ATOM     17  N   UNL     1       4.451  -5.205  -7.012  0.00  0.00    -0.222 N 
ATOM     18  C   UNL     1       5.705  -4.890  -7.381  0.00  0.00    +0.254 C 
ATOM     19  O   UNL     1       6.555  -4.402  -6.663  0.00  0.00    -0.270 OA
ATOM     20  C   UNL     1       5.877  -5.237  -8.808  0.00  0.00    +0.049 A 
ATOM     21  C   UNL     1       6.927  -5.141  -9.707  0.00  0.00    +0.014 A 
ATOM     22  C   UNL     1       6.753  -5.570 -11.014  0.00  0.00    +0.004 A 
ATOM     23  C   UNL     1       5.542  -6.092 -11.425  0.00  0.00    -0.050 A 
ATOM     24  C   UNL     1       4.483  -6.194 -10.536  0.00  0.00    +0.017 A 
ATOM     25  C   UNL     1       4.641  -5.769  -9.227  0.00  0.00    +0.050 A 
ATOM     26  C   UNL     1       3.762  -5.732  -8.040  0.00  0.00    +0.254 C 
ATOM     27  O   UNL     1       2.609  -6.112  -7.999  0.00  0.00    -0.270 OA
ATOM     28  C   UNL     1       5.370  -6.553 -12.849  0.00  0.00    +0.044 C 
ENDBRANCH  15  17
ENDBRANCH  10  15
TORSDOF 3
