REMARK  Name = ZINC39195634
REMARK  5 active torsions:
REMARK  status: ('A' for Active; 'I' for Inactive)
REMARK    1  A    between atoms: C_1  and  C_2
REMARK    2  A    between atoms: C_2  and  C_3
REMARK    3  A    between atoms: C_3  and  C_4
REMARK    4  A    between atoms: C_16  and  C_18
REMARK    5  A    between atoms: C_18  and  C_19
REMARK                            x       y       z     vdW  Elec       q    Type
REMARK                         _______ _______ _______ _____ _____    ______ ____
ROOT
ATOM      1  C   UNL     1       0.763  -2.041   1.233  0.00  0.00    +0.064 C 
ATOM      2  C   UNL     1       1.787  -2.539   0.221  0.00  0.00    +0.134 C 
ATOM      3  N   UNL     1       3.089  -2.252   0.887  0.00  0.00    -0.298 N 
ATOM      4  C   UNL     1       2.861  -2.201   2.354  0.00  0.00    +0.122 C 
ATOM      5  C   UNL     1       1.402  -2.569   2.553  0.00  0.00    +0.117 C 
ATOM      6  C   UNL     1       0.629  -1.945   3.663  0.00  0.00    +0.227 C 
ATOM      7  O   UNL     1       1.161  -1.470   4.643  0.00  0.00    -0.275 OA
ATOM      8  N   UNL     1      -0.726  -1.950   3.493  0.00  0.00    -0.240 N 
ATOM      9  C   UNL     1      -1.288  -2.438   2.369  0.00  0.00    +0.306 C 
ATOM     10  O   UNL     1      -2.453  -2.782   2.393  0.00  0.00    -0.252 OA
ATOM     11  N   UNL     1      -0.590  -2.549   1.208  0.00  0.00    -0.291 N 
ATOM     12  C   UNL     1       4.270  -2.072   0.265  0.00  0.00    +0.220 C 
ATOM     13  O   UNL     1       4.335  -2.138  -0.945  0.00  0.00    -0.275 OA
ATOM     14  H   UNL     1      -1.295  -1.597   4.195  0.00  0.00    +0.159 HD
ATOM     15  H   UNL     1      -0.976  -2.952   0.415  0.00  0.00    +0.151 HD
ENDROOT
BRANCH   1  16
ATOM     16  C   UNL     1       0.742  -0.511   1.242  0.00  0.00    +0.028 C 
BRANCH  16  18
ATOM     17  C   UNL     1      -0.019   1.526   0.010  0.00  0.00    +0.004 C 
ATOM     18  C   UNL     1       0.002  -0.004   0.002  0.00  0.00    -0.001 C 
ENDBRANCH  16  18
ENDBRANCH   1  16
BRANCH  12  19
ATOM     19  C   UNL     1       5.511  -1.788   1.071  0.00  0.00    +0.133 C 
BRANCH  19  20
ATOM     20  C   UNL     1       6.688  -1.628   0.144  0.00  0.00    -0.014 A 
ATOM     21  C   UNL     1       7.092  -0.401  -0.547  0.00  0.00    +0.003 A 
ATOM     22  C   UNL     1       6.590   0.901  -0.587  0.00  0.00    +0.010 A 
ATOM     23  C   UNL     1       7.214   1.846  -1.352  0.00  0.00    +0.001 A 
ATOM     24  C   UNL     1       8.343   1.522  -2.091  0.00  0.00    +0.002 A 
ATOM     25  C   UNL     1       8.856   0.243  -2.066  0.00  0.00    +0.026 A 
ATOM     26  C   UNL     1       8.237  -0.735  -1.294  0.00  0.00    +0.047 A 
ATOM     27  N   UNL     1       8.497  -2.067  -1.065  0.00  0.00    -0.360 N 
ATOM     28  C   UNL     1       7.568  -2.581  -0.201  0.00  0.00    +0.087 A 
ATOM     29  H   UNL     1       9.232  -2.566  -1.454  0.00  0.00    +0.165 HD
ENDBRANCH  19  20
ENDBRANCH  12  19
TORSDOF 4
