REMARK  Name = ZINC38770876
REMARK  4 active torsions:
REMARK  status: ('A' for Active; 'I' for Inactive)
REMARK    1  A    between atoms: C_1  and  C_2
REMARK    2  A    between atoms: C_5  and  C_9
REMARK    3  A    between atoms: C_6  and  C_8
REMARK    4  A    between atoms: C_15  and  C_17
REMARK                            x       y       z     vdW  Elec       q    Type
REMARK                         _______ _______ _______ _____ _____    ______ ____
ROOT
ATOM      1  C   UNL     1       0.058  -4.251  -0.021  0.00  0.00    +0.250 A 
ATOM      2  N   UNL     1       0.068  -5.033   1.031  0.00  0.00    -0.106 NA
ATOM      3  N   UNL     1       0.084  -6.261   0.649  0.00  0.00    -0.092 NA
ATOM      4  C   UNL     1       0.085  -6.312  -0.661  0.00  0.00    +0.315 A 
ATOM      5  O   UNL     1       0.063  -5.044  -1.114  0.00  0.00    -0.405 OA
ATOM      6  N   UNL     1       0.101  -7.459  -1.437  0.00  0.00    -0.234 N 
ATOM      7  C   UNL     1       0.116  -8.671  -0.847  0.00  0.00    +0.254 C 
ATOM      8  O   UNL     1       0.116  -8.757   0.366  0.00  0.00    -0.270 OA
ATOM      9  H   UNL     1       0.100  -7.390  -2.404  0.00  0.00    +0.160 HD
ENDROOT
BRANCH   1  14
ATOM     10  C   UNL     1      -0.018   1.503   0.010  0.00  0.00    +0.044 C 
ATOM     11  C   UNL     1       0.002  -0.004   0.002  0.00  0.00    -0.050 A 
ATOM     12  C   UNL     1       0.006  -0.686  -1.202  0.00  0.00    +0.004 A 
ATOM     13  C   UNL     1       0.024  -2.065  -1.217  0.00  0.00    +0.014 A 
ATOM     14  C   UNL     1       0.039  -2.773  -0.013  0.00  0.00    +0.041 A 
ATOM     15  C   UNL     1       0.036  -2.079   1.198  0.00  0.00    -0.038 A 
ATOM     16  C   UNL     1       0.023  -0.699   1.198  0.00  0.00    +0.007 A 
ATOM     17  C   UNL     1       0.052  -2.834   2.501  0.00  0.00    +0.044 C 
ENDBRANCH   1  14
BRANCH   7  18
ATOM     18  C   UNL     1       0.132  -9.893  -1.673  0.00  0.00    +0.072 A 
ATOM     19  C   UNL     1       0.138  -9.797  -3.068  0.00  0.00    +0.019 A 
ATOM     20  C   UNL     1       0.153 -10.941  -3.834  0.00  0.00    +0.039 A 
ATOM     21  C   UNL     1       0.163 -12.188  -3.227  0.00  0.00    +0.126 A 
ATOM     22  C   UNL     1       0.157 -12.293  -1.845  0.00  0.00    +0.077 A 
ATOM     23  C   UNL     1       0.148 -11.152  -1.065  0.00  0.00    +0.138 A 
ATOM     24  F   UNL     1       0.149 -11.254   0.282  0.00  0.00    -0.205 F 
ATOM     25  F   UNL     1       0.177 -13.306  -3.985  0.00  0.00    -0.205 F 
ENDBRANCH   7  18
TORSDOF 2
