REMARK  Name = ZINC28674891
REMARK  6 active torsions:
REMARK  status: ('A' for Active; 'I' for Inactive)
REMARK    1  A    between atoms: C_1  and  C_2
REMARK    2  A    between atoms: C_9  and  C_14
REMARK    3  A    between atoms: C_14  and  S_15
REMARK    4  A    between atoms: S_15  and  C_16
REMARK    5  A    between atoms: C_19  and  C_22
REMARK    6  A    between atoms: N_20  and  N_21
REMARK                            x       y       z     vdW  Elec       q    Type
REMARK                         _______ _______ _______ _____ _____    ______ ____
ROOT
ATOM      1  C   UNL     1      -2.989   3.658   5.097  0.00  0.00    +0.113 C 
ENDROOT
BRANCH   1  10
ATOM      2  C   UNL     1      -0.770   7.857   9.763  0.00  0.00    +0.045 C 
ATOM      3  C   UNL     1      -1.534   7.014   8.774  0.00  0.00    -0.029 A 
ATOM      4  C   UNL     1      -2.902   7.155   8.669  0.00  0.00    +0.051 A 
ATOM      5  C   UNL     1      -3.612   6.379   7.764  0.00  0.00    +0.140 A 
ATOM      6  C   UNL     1      -2.924   5.461   6.951  0.00  0.00    +0.023 A 
ATOM      7  C   UNL     1      -1.536   5.336   7.059  0.00  0.00    +0.032 A 
ATOM      8  C   UNL     1      -0.852   6.113   7.968  0.00  0.00    +0.045 A 
ATOM      9 CL   UNL     1       0.872   5.963   8.107  0.00  0.00    -0.083 Cl
ATOM     10  C   UNL     1      -3.684   4.650   5.994  0.00  0.00    -0.020 A 
ATOM     11  C   UNL     1      -5.030   4.814   5.942  0.00  0.00    +0.097 A 
ATOM     12  C   UNL     1      -5.656   5.750   6.792  0.00  0.00    +0.338 A 
ATOM     13  O   UNL     1      -6.865   5.887   6.736  0.00  0.00    -0.245 OA
ATOM     14  O   UNL     1      -4.954   6.493   7.662  0.00  0.00    -0.422 OA
ENDBRANCH   1  10
BRANCH   1  15
ATOM     15  S   UNL     1      -2.518   4.470   3.550  0.00  0.00    -0.080 S 
BRANCH  15  16
ATOM     16  C   UNL     1      -1.749   3.120   2.718  0.00  0.00    +0.209 A 
ATOM     17  N   UNL     1      -1.606   1.899   3.178  0.00  0.00    -0.121 NA
ATOM     18  N   UNL     1      -1.005   1.171   2.305  0.00  0.00    -0.123 NA
ATOM     19  C   UNL     1      -0.722   1.881   1.250  0.00  0.00    +0.255 A 
ATOM     20  N   UNL     1      -1.189   3.147   1.473  0.00  0.00    -0.220 N 
BRANCH  19  21
ATOM     21  C   UNL     1      -0.017   1.395   0.010  0.00  0.00    +0.454 C 
ATOM     22  F   UNL     1       0.002  -0.004   0.002  0.00  0.00    -0.163 F 
ATOM     23  F   UNL     1       1.296   1.879  -0.000  0.00  0.00    -0.163 F 
ATOM     24  F   UNL     1      -0.694   1.858  -1.124  0.00  0.00    -0.163 F 
ENDBRANCH  19  21
BRANCH  20  25
ATOM     25  N   UNL     1      -1.111   4.216   0.626  0.00  0.00    -0.295 N 
ATOM     26  H   UNL     1      -0.631   4.105  -0.357  0.00  0.00    +0.163 HD
ATOM     27  H   UNL     1      -1.528   5.188   0.928  0.00  0.00    +0.163 HD
ENDBRANCH  20  25
ENDBRANCH  15  16
ENDBRANCH   1  15
TORSDOF 5
