REMARK  Name = ZINC65480385
REMARK  7 active torsions:
REMARK  status: ('A' for Active; 'I' for Inactive)
REMARK    1  A    between atoms: C_1  and  C_2
REMARK    2  A    between atoms: N_5  and  C_8
REMARK    3  A    between atoms: C_8  and  C_9
REMARK    4  A    between atoms: C_8  and  C_10
REMARK    5  A    between atoms: C_10  and  N_11
REMARK    6  A    between atoms: N_14  and  C_15
REMARK    7  A    between atoms: C_21  and  C_23
REMARK                            x       y       z     vdW  Elec       q    Type
REMARK                         _______ _______ _______ _____ _____    ______ ____
ROOT
ATOM      1  N   UNL     1       0.681  -4.274   2.553  0.00  0.00    -0.301 N 
ATOM      2  C   UNL     1       1.517  -4.340   3.608  0.00  0.00    +0.300 C 
ATOM      3  O   UNL     1       2.659  -4.731   3.456  0.00  0.00    -0.253 OA
ATOM      4  N   UNL     1       1.088  -3.974   4.832  0.00  0.00    -0.296 N 
ATOM      5  H   UNL     1      -0.229  -3.963   2.675  0.00  0.00    +0.150 HD
ATOM      6  H   UNL     1       0.177  -3.663   4.954  0.00  0.00    +0.151 HD
ENDROOT
BRANCH   4   7
ATOM      7  C   UNL     1       1.997  -4.046   5.979  0.00  0.00    +0.077 C 
ATOM      8  C   UNL     1       1.978  -5.463   6.556  0.00  0.00    +0.041 C 
ATOM      9  C   UNL     1       2.955  -5.543   7.734  0.00  0.00    +0.109 C 
ATOM     10  N   UNL     1       2.615  -4.493   8.703  0.00  0.00    -0.301 N 
ATOM     11  C   UNL     1       2.517  -3.104   8.233  0.00  0.00    +0.109 C 
ATOM     12  C   UNL     1       1.545  -3.051   7.051  0.00  0.00    +0.041 C 
ATOM     13  C   UNL     1       2.398  -4.797   9.997  0.00  0.00    +0.219 C 
ATOM     14  O   UNL     1       2.421  -5.954  10.361  0.00  0.00    -0.275 OA
BRANCH  13  15
ATOM     15  C   UNL     1       2.126  -3.700  10.994  0.00  0.00    +0.075 C 
ATOM     16  C   UNL     1       3.381  -2.842  11.164  0.00  0.00    +0.013 C 
ATOM     17  C   UNL     1       3.104  -1.728  12.175  0.00  0.00    +0.001 C 
ATOM     18  C   UNL     1       2.723  -2.346  13.522  0.00  0.00    +0.000 C 
ATOM     19  C   UNL     1       1.468  -3.204  13.353  0.00  0.00    +0.001 C 
ATOM     20  C   UNL     1       1.744  -4.318  12.341  0.00  0.00    +0.013 C 
ENDBRANCH  13  15
ENDBRANCH   4   7
BRANCH   1  21
ATOM     21  C   UNL     1       1.148  -4.673   1.223  0.00  0.00    +0.090 C 
BRANCH  21  22
ATOM     22  C   UNL     1       0.058  -4.377   0.191  0.00  0.00    -0.054 C 
ATOM     23  C   UNL     1       0.584  -4.695  -1.211  0.00  0.00    -0.012 C 
BRANCH  22  28
ATOM     24  C   UNL     1      -1.141   1.131  -0.673  0.00  0.00    +0.007 C 
ATOM     25  C   UNL     1      -0.732  -0.328  -0.879  0.00  0.00    -0.018 C 
ATOM     26  C   UNL     1       0.476  -0.651   0.005  0.00  0.00    -0.016 C 
ATOM     27  C   UNL     1       0.830  -2.132  -0.147  0.00  0.00    -0.078 C 
ATOM     28  N   UNL     1      -0.313  -2.957   0.263  0.00  0.00    +0.382 N 
ATOM     29  C   UNL     1      -1.453  -2.705  -0.625  0.00  0.00    -0.078 C 
ATOM     30  C   UNL     1      -1.895  -1.246  -0.492  0.00  0.00    -0.016 C 
ATOM     31  H   UNL     1      -0.569  -2.727   1.212  0.00  0.00    -0.081 HD
ENDBRANCH  22  28
ENDBRANCH  21  22
ENDBRANCH   1  21
TORSDOF 5
