REMARK  Name = ZINC16447841
REMARK  5 active torsions:
REMARK  status: ('A' for Active; 'I' for Inactive)
REMARK    1  A    between atoms: C_1  and  C_2
REMARK    2  A    between atoms: C_15  and  C_17
REMARK    3  A    between atoms: C_17  and  C_18
REMARK    4  A    between atoms: C_18  and  C_19
REMARK    5  A    between atoms: C_18  and  C_20
REMARK                            x       y       z     vdW  Elec       q    Type
REMARK                         _______ _______ _______ _____ _____    ______ ____
ROOT
ATOM      1  C   UNL     1       1.838   2.109  -1.414  0.00  0.00    +0.029 C 
ATOM      2  C   UNL     1       1.256   2.120   0.001  0.00  0.00    +0.087 C 
ATOM      3  C   UNL     1       2.240   1.448   0.960  0.00  0.00    +0.118 C 
ATOM      4  C   UNL     1       1.547   1.092   2.249  0.00  0.00    +0.219 C 
ATOM      5  O   UNL     1       1.740   1.762   3.242  0.00  0.00    -0.275 OA
ATOM      6  N   UNL     1       0.711   0.033   2.306  0.00  0.00    -0.284 N 
ATOM      7  C   UNL     1       0.403  -0.691   1.148  0.00  0.00    +0.055 A 
ATOM      8  C   UNL     1       0.458  -2.075   1.141  0.00  0.00    +0.025 A 
ATOM      9  C   UNL     1       0.096  -2.772   0.002  0.00  0.00    +0.002 A 
ATOM     10  C   UNL     1      -0.320  -2.091  -1.128  0.00  0.00    +0.002 A 
ATOM     11  C   UNL     1      -0.367  -0.709  -1.131  0.00  0.00    +0.025 A 
ATOM     12  C   UNL     1       0.002  -0.004   0.002  0.00  0.00    +0.058 A 
ATOM     13  N   UNL     1      -0.017   1.397   0.010  0.00  0.00    -0.266 N 
ATOM     14  C   UNL     1      -1.186   2.068   0.019  0.00  0.00    +0.220 C 
ATOM     15  O   UNL     1      -1.190   3.281   0.025  0.00  0.00    -0.275 OA
ATOM     16  H   UNL     1       0.321  -0.228   3.155  0.00  0.00    +0.155 HD
ENDROOT
BRANCH  14  17
ATOM     17  C   UNL     1      -2.489   1.310   0.021  0.00  0.00    +0.099 C 
BRANCH  17  18
ATOM     18  C   UNL     1      -3.655   2.301   0.032  0.00  0.00    -0.008 C 
ATOM     19  C   UNL     1      -3.655   3.103  -1.271  0.00  0.00    +0.008 C 
ATOM     20  C   UNL     1      -4.973   1.536   0.160  0.00  0.00    +0.008 C 
ENDBRANCH  17  18
ENDBRANCH  14  17
TORSDOF 2
