REMARK  Name = ZINC35566866
REMARK  8 active torsions:
REMARK  status: ('A' for Active; 'I' for Inactive)
REMARK    1  A    between atoms: C_4  and  C_7
REMARK    2  A    between atoms: C_7  and  C_8
REMARK    3  A    between atoms: C_7  and  O_14
REMARK    4  A    between atoms: O_14  and  C_15
REMARK    5  A    between atoms: C_15  and  C_17
REMARK    6  A    between atoms: C_19  and  O_40
REMARK    7  A    between atoms: C_28  and  N_30
REMARK    8  A    between atoms: N_33  and  C_34
REMARK                            x       y       z     vdW  Elec       q    Type
REMARK                         _______ _______ _______ _____ _____    ______ ____
ROOT
ATOM      1  C   UNL     1       4.720  -3.394  -2.451  0.00  0.00    +0.215 C 
ATOM      2  C   UNL     1       3.756  -3.126  -3.611  0.00  0.00    +0.156 C 
ATOM      3  C   UNL     1       3.710  -4.294  -4.593  0.00  0.00    +0.104 C 
ATOM      4  S   UNL     1       5.313  -4.465  -5.441  0.00  0.00    -0.133 S 
ATOM      5  C   UNL     1       6.458  -4.642  -4.032  0.00  0.00    +0.164 C 
ATOM      6  N   UNL     1       6.058  -3.616  -3.019  0.00  0.00    -0.270 N 
ATOM      7  C   UNL     1       7.271  -3.035  -2.965  0.00  0.00    +0.240 C 
ATOM      8  O   UNL     1       7.777  -2.198  -2.249  0.00  0.00    -0.273 OA
ATOM      9  C   UNL     1       7.761  -3.857  -4.167  0.00  0.00    +0.191 C 
ENDROOT
BRANCH   9  10
ATOM     10  N   UNL     1       8.959  -4.654  -3.888  0.00  0.00    -0.285 N 
ATOM     11  C   UNL     1      10.143  -4.301  -4.425  0.00  0.00    +0.305 C 
ATOM     12  O   UNL     1      10.218  -3.322  -5.141  0.00  0.00    -0.252 OA
ATOM     13  N   UNL     1      11.245  -5.035  -4.168  0.00  0.00    -0.269 N 
ATOM     14  H   UNL     1       8.899  -5.436  -3.316  0.00  0.00    +0.151 HD
ATOM     15  H   UNL     1      11.200  -5.776  -3.544  0.00  0.00    +0.156 HD
BRANCH  13  16
ATOM     16  C   UNL     1      12.454  -4.726  -4.802  0.00  0.00    +0.035 A 
ATOM     17  C   UNL     1      13.327  -5.743  -5.167  0.00  0.00    +0.023 A 
ATOM     18  C   UNL     1      14.519  -5.435  -5.793  0.00  0.00    +0.002 A 
ATOM     19  C   UNL     1      14.844  -4.117  -6.056  0.00  0.00    +0.000 A 
ATOM     20  C   UNL     1      13.977  -3.103  -5.693  0.00  0.00    +0.002 A 
ATOM     21  C   UNL     1      12.780  -3.404  -5.072  0.00  0.00    +0.023 A 
ENDBRANCH  13  16
ENDBRANCH   9  10
BRANCH   1  22
ATOM     22  C   UNL     1       4.749  -2.205  -1.525  0.00  0.00    +0.331 C 
ATOM     23  O   UNL     1       5.783  -1.608  -1.342  0.00  0.00    -0.249 OA
BRANCH  22  24
ATOM     24  O   UNL     1       3.626  -1.810  -0.905  0.00  0.00    -0.450 OA
BRANCH  24  25
ATOM     25  C   UNL     1       3.727  -0.675  -0.042  0.00  0.00    +0.237 C 
BRANCH  25  29
ATOM     26  C   UNL     1       0.001   1.413   0.003  0.00  0.00    +0.000 A 
ATOM     27  C   UNL     1       1.188   2.119  -0.013  0.00  0.00    +0.000 A 
ATOM     28  C   UNL     1       2.394   1.444  -0.028  0.00  0.00    +0.007 A 
ATOM     29  C   UNL     1       2.412   0.061  -0.026  0.00  0.00    -0.003 A 
ATOM     30  C   UNL     1       1.224  -0.645  -0.009  0.00  0.00    +0.007 A 
ATOM     31  C   UNL     1       0.018   0.030   0.004  0.00  0.00    +0.000 A 
ENDBRANCH  25  29
BRANCH  25  32
ATOM     32  C   UNL     1       4.064  -1.133   1.353  0.00  0.00    -0.003 A 
ATOM     33  C   UNL     1       3.558  -2.329   1.829  0.00  0.00    +0.007 A 
ATOM     34  C   UNL     1       3.867  -2.749   3.109  0.00  0.00    +0.000 A 
ATOM     35  C   UNL     1       4.682  -1.974   3.913  0.00  0.00    +0.000 A 
ATOM     36  C   UNL     1       5.189  -0.780   3.437  0.00  0.00    +0.000 A 
ATOM     37  C   UNL     1       4.883  -0.361   2.155  0.00  0.00    +0.007 A 
ENDBRANCH  25  32
ENDBRANCH  24  25
ENDBRANCH  22  24
ENDBRANCH   1  22
BRANCH   2  38
ATOM     38  O   UNL     1       4.180  -1.952  -4.306  0.00  0.00    -0.389 OA
ATOM     39  H   UNL     1       3.618  -1.715  -5.057  0.00  0.00    +0.210 HD
ENDBRANCH   2  38
TORSDOF 8
