REMARK  Name = ZINC06962822
REMARK  4 active torsions:
REMARK  status: ('A' for Active; 'I' for Inactive)
REMARK    1  A    between atoms: C_1  and  C_2
REMARK    2  A    between atoms: C_4  and  N_26
REMARK    3  A    between atoms: C_7  and  C_8
REMARK    4  A    between atoms: C_16  and  C_19
REMARK                            x       y       z     vdW  Elec       q    Type
REMARK                         _______ _______ _______ _____ _____    ______ ____
ROOT
ATOM      1  C   UNL     1      -1.229   1.213   0.177  0.00  0.00    +0.044 C 
ATOM      2  C   UNL     1      -0.577  -0.142   0.082  0.00  0.00    -0.045 A 
ATOM      3  C   UNL     1      -0.577  -0.825  -1.121  0.00  0.00    +0.038 A 
ATOM      4  C   UNL     1       0.015  -2.069  -1.204  0.00  0.00    +0.147 A 
ATOM      5  C   UNL     1       0.612  -2.635  -0.081  0.00  0.00    +0.062 A 
ATOM      6  C   UNL     1       0.622  -1.947   1.119  0.00  0.00    -0.014 A 
ATOM      7  C   UNL     1       0.023  -0.698   1.194  0.00  0.00    -0.042 A 
ATOM      8  C   UNL     1       0.022   0.055   2.499  0.00  0.00    +0.044 C 
ATOM      9  C   UNL     1       1.284  -2.495   2.353  0.00  0.00    +0.049 C 
ATOM     10  C   UNL     1       2.211  -1.420   2.899  0.00  0.00    -0.023 C 
ATOM     11  C   UNL     1       3.452  -1.677   2.580  0.00  0.00    -0.030 C 
ATOM     12  C   UNL     1       3.552  -2.962   1.785  0.00  0.00    +0.033 C 
ATOM     13  C   UNL     1       2.196  -3.684   2.067  0.00  0.00    +0.029 C 
ATOM     14  C   UNL     1       1.770  -4.588   0.949  0.00  0.00    +0.108 C 
ATOM     15  N   UNL     1       1.188  -3.896  -0.185  0.00  0.00    -0.335 N 
ATOM     16  H   UNL     1       1.181  -4.340  -1.048  0.00  0.00    +0.147 HD
ENDROOT
BRANCH  14  17
ATOM     17  C   UNL     1       2.980  -5.336   0.452  0.00  0.00    +0.008 A 
ATOM     18  C   UNL     1       3.695  -4.856  -0.628  0.00  0.00    +0.008 A 
ATOM     19  C   UNL     1       4.805  -5.542  -1.084  0.00  0.00    +0.000 A 
ATOM     20  C   UNL     1       5.201  -6.710  -0.460  0.00  0.00    +0.003 A 
ATOM     21  C   UNL     1       4.488  -7.193   0.621  0.00  0.00    +0.039 A 
ATOM     22  C   UNL     1       3.379  -6.503   1.082  0.00  0.00    +0.128 A 
ATOM     23  F   UNL     1       2.683  -6.971   2.142  0.00  0.00    -0.205 F 
ENDBRANCH  14  17
BRANCH   4  24
ATOM     24  N   UNL     1       0.014  -2.803  -2.489  0.00  0.00    +0.058 N 
ATOM     25  O   UNL     1       0.167  -2.203  -3.528  0.00  0.00    -0.126 OA
ATOM     26  O   UNL     1      -0.139  -4.002  -2.500  0.00  0.00    -0.126 OA
ENDBRANCH   4  24
TORSDOF 2
