REMARK  Name = ZINC24473774
REMARK  4 active torsions:
REMARK  status: ('A' for Active; 'I' for Inactive)
REMARK    1  A    between atoms: C_5  and  C_6
REMARK    2  A    between atoms: N_8  and  N_9
REMARK    3  A    between atoms: C_10  and  C_12
REMARK    4  A    between atoms: C_12  and  N_13
REMARK                            x       y       z     vdW  Elec       q    Type
REMARK                         _______ _______ _______ _____ _____    ______ ____
ROOT
ATOM      1  N   UNL     1      -1.965  -3.171   0.003  0.00  0.00    -0.233 N 
ATOM      2  C   UNL     1      -1.733  -4.499  -0.006  0.00  0.00    +0.247 C 
ATOM      3  O   UNL     1      -0.594  -4.915  -0.019  0.00  0.00    -0.273 OA
ATOM      4  H   UNL     1      -2.876  -2.838   0.013  0.00  0.00    +0.173 HD
ENDROOT
BRANCH   1   7
ATOM      5  C   UNL     1      -1.122  -0.945   0.007  0.00  0.00    +0.267 C 
ATOM      6  O   UNL     1      -2.265  -0.527   0.020  0.00  0.00    -0.268 OA
ATOM      7  N   UNL     1      -0.890  -2.272  -0.002  0.00  0.00    -0.230 N 
ATOM      8  H   UNL     1       0.021  -2.605  -0.012  0.00  0.00    +0.173 HD
BRANCH   5  13
ATOM      9  C   UNL     1      -0.017   1.377   0.010  0.00  0.00    +0.024 A 
ATOM     10  C   UNL     1       1.215   2.026   0.001  0.00  0.00    -0.036 A 
ATOM     11  C   UNL     1       2.318   1.232  -0.015  0.00  0.00    -0.006 A 
ATOM     12  S   UNL     1       1.752  -0.343  -0.015  0.00  0.00    -0.088 S 
ATOM     13  C   UNL     1       0.002  -0.004   0.002  0.00  0.00    +0.076 A 
ATOM     14  C   UNL     1       3.756   1.658  -0.035  0.00  0.00    +0.043 C 
ATOM     15  C   UNL     1       3.896   3.018   0.657  0.00  0.00    +0.005 C 
ATOM     16  C   UNL     1       3.707   4.116  -0.385  0.00  0.00    +0.001 C 
ATOM     17  C   UNL     1       2.319   4.027  -1.014  0.00  0.00    +0.005 C 
ATOM     18  C   UNL     1       1.299   3.548   0.013  0.00  0.00    +0.036 C 
ENDBRANCH   5  13
ENDBRANCH   1   7
BRANCH   2  19
ATOM     19  C   UNL     1      -2.889  -5.466  -0.001  0.00  0.00    +0.213 C 
BRANCH  19  20
ATOM     20  N   UNL     1      -2.377  -6.838  -0.013  0.00  0.00    -0.233 N 
ATOM     21  C   UNL     1      -2.121  -7.530  -1.156  0.00  0.00    +0.226 C 
ATOM     22  O   UNL     1      -2.062  -7.083  -2.281  0.00  0.00    -0.275 OA
ATOM     23  C   UNL     1      -1.927  -8.954  -0.742  0.00  0.00    +0.087 C 
ATOM     24  C   UNL     1      -0.950  -9.823  -1.503  0.00  0.00    +0.013 C 
ATOM     25  C   UNL     1      -0.960 -11.197  -0.803  0.00  0.00    +0.001 C 
ATOM     26  C   UNL     1      -0.595 -11.084   0.673  0.00  0.00    +0.001 C 
ATOM     27  C   UNL     1      -1.469 -10.052   1.409  0.00  0.00    +0.013 C 
ATOM     28  C   UNL     1      -1.329  -8.744   0.681  0.00  0.00    +0.087 C 
ATOM     29  C   UNL     1      -2.106  -7.544   1.118  0.00  0.00    +0.226 C 
ATOM     30  O   UNL     1      -2.430  -7.260   2.251  0.00  0.00    -0.275 OA
ENDBRANCH  19  20
ENDBRANCH   2  19
TORSDOF 4
