REMARK  Name = ZINC21791491
REMARK  3 active torsions:
REMARK  status: ('A' for Active; 'I' for Inactive)
REMARK    1  A    between atoms: C_1  and  C_2
REMARK    2  A    between atoms: C_4  and  C_7
REMARK    3  A    between atoms: C_13  and  C_15
REMARK                            x       y       z     vdW  Elec       q    Type
REMARK                         _______ _______ _______ _____ _____    ______ ____
ROOT
ATOM      1  C   UNL     1      -3.167   2.390   1.530  0.00  0.00    +0.269 C 
ATOM      2  O   UNL     1      -2.967   2.645   2.701  0.00  0.00    -0.268 OA
ATOM      3  N   UNL     1      -2.171   1.894   0.768  0.00  0.00    -0.289 N 
ATOM      4  C   UNL     1      -2.275   1.541  -0.659  0.00  0.00    +0.109 C 
ATOM      5  C   UNL     1      -0.825   1.630  -1.196  0.00  0.00    +0.021 C 
ATOM      6  C   UNL     1      -0.013   1.086   0.008  0.00  0.00    +0.029 C 
ATOM      7  C   UNL     1      -0.798   1.615   1.227  0.00  0.00    +0.107 C 
ENDROOT
BRANCH   7   8
ATOM      8  C   UNL     1      -0.819   0.572   2.315  0.00  0.00    -0.027 A 
ATOM      9  C   UNL     1      -1.716  -0.478   2.248  0.00  0.00    +0.008 A 
ATOM     10  C   UNL     1      -1.733  -1.438   3.242  0.00  0.00    +0.038 A 
ATOM     11  C   UNL     1      -0.857  -1.343   4.310  0.00  0.00    +0.123 A 
ATOM     12  C   UNL     1       0.038  -0.288   4.379  0.00  0.00    +0.038 A 
ATOM     13  C   UNL     1       0.056   0.668   3.381  0.00  0.00    +0.008 A 
ATOM     14  F   UNL     1      -0.876  -2.277   5.285  0.00  0.00    -0.205 F 
ENDBRANCH   7   8
BRANCH   1  18
ATOM     15  C   UNL     1      -8.033   3.616   0.789  0.00  0.00    +0.089 C 
ATOM     16  C   UNL     1      -6.606   3.158   0.637  0.00  0.00    +0.135 A 
ATOM     17  C   UNL     1      -5.656   3.138   1.601  0.00  0.00    +0.080 A 
ATOM     18  C   UNL     1      -4.507   2.624   0.938  0.00  0.00    +0.168 A 
ATOM     19  N   UNL     1      -4.869   2.404  -0.301  0.00  0.00    -0.073 NA
ATOM     20  O   UNL     1      -6.030   2.690  -0.480  0.00  0.00    -0.359 OA
ENDBRANCH   1  18
TORSDOF 2
