REMARK  Name = ZINC25505424
REMARK  7 active torsions:
REMARK  status: ('A' for Active; 'I' for Inactive)
REMARK    1  A    between atoms: C_1  and  C_2
REMARK    2  A    between atoms: C_2  and  C_4
REMARK    3  A    between atoms: C_2  and  N_17
REMARK    4  A    between atoms: N_6  and  C_7
REMARK    5  A    between atoms: C_8  and  C_15
REMARK    6  A    between atoms: N_20  and  C_23
REMARK    7  A    between atoms: C_26  and  O_29
REMARK                            x       y       z     vdW  Elec       q    Type
REMARK                         _______ _______ _______ _____ _____    ______ ____
ROOT
ATOM      1  C   UNL     1       3.176   7.668  -1.225  0.00  0.00    -0.004 C 
ATOM      2  C   UNL     1       1.662   7.549  -1.035  0.00  0.00    +0.017 C 
ENDROOT
BRANCH   2   3
ATOM      3  N   UNL     1       1.307   6.142  -0.805  0.00  0.00    +0.389 N 
ATOM      4  C   UNL     1       1.954   5.267  -1.792  0.00  0.00    -0.059 C 
ATOM      5  C   UNL     1       1.497   3.824  -1.568  0.00  0.00    +0.086 C 
ATOM      6  N   UNL     1       1.838   3.411  -0.199  0.00  0.00    -0.333 N 
ATOM      7  C   UNL     1       1.191   4.287   0.788  0.00  0.00    +0.086 C 
ATOM      8  C   UNL     1       1.648   5.730   0.564  0.00  0.00    -0.059 C 
ATOM      9  H   UNL     1       0.218   6.045  -0.927  0.00  0.00    -0.081 HD
BRANCH   6  10
ATOM     10  C   UNL     1       1.500   2.071   0.020  0.00  0.00    +0.030 A 
ATOM     11  C   UNL     1       1.743   1.487   1.256  0.00  0.00    +0.026 A 
ATOM     12  C   UNL     1       1.408   0.165   1.472  0.00  0.00    +0.047 A 
ATOM     13  C   UNL     1       0.829  -0.580   0.455  0.00  0.00    +0.117 A 
ATOM     14  C   UNL     1       0.587   0.003  -0.780  0.00  0.00    +0.047 A 
ATOM     15  C   UNL     1       0.922   1.325  -0.998  0.00  0.00    +0.026 A 
BRANCH  13  16
ATOM     16  O   UNL     1       0.499  -1.882   0.668  0.00  0.00    -0.507 OA
ATOM     17  H   UNL     1       0.040  -2.472  -0.138  0.00  0.00    +0.292 HD
ENDBRANCH  13  16
ENDBRANCH   6  10
ENDBRANCH   2   3
BRANCH   2  18
ATOM     18  C   UNL     1       0.960   8.048  -2.271  0.00  0.00    +0.204 C 
ATOM     19  O   UNL     1       0.439   7.261  -3.033  0.00  0.00    -0.277 OA
ATOM     20  N   UNL     1       0.910   9.370  -2.530  0.00  0.00    -0.280 N 
ATOM     21  H   UNL     1       1.382  10.084  -1.839  0.00  0.00    +0.155 HD
BRANCH  20  22
ATOM     22  C   UNL     1       0.263   9.830  -3.668  0.00  0.00    +0.090 A 
ATOM     23  C   UNL     1       0.108  11.135  -4.101  0.00  0.00    +0.084 A 
ATOM     24  C   UNL     1      -0.623  11.354  -5.348  0.00  0.00    -0.018 A 
ATOM     25  C   UNL     1      -1.074  10.237  -5.949  0.00  0.00    -0.004 A 
ATOM     26  S   UNL     1      -0.539   8.911  -4.896  0.00  0.00    -0.077 S 
ATOM     27  C   UNL     1      -1.817  10.542  -7.221  0.00  0.00    +0.043 C 
ATOM     28  C   UNL     1      -2.148  12.048  -7.127  0.00  0.00    +0.010 C 
ATOM     29  C   UNL     1      -1.030  12.559  -6.197  0.00  0.00    +0.037 C 
BRANCH  23  30
ATOM     30  C   UNL     1       0.643  12.233  -3.353  0.00  0.00    +0.102 C 
ATOM     31  N   UNL     1       1.068  13.104  -2.760  0.00  0.00    -0.191 NA
ENDBRANCH  23  30
ENDBRANCH  20  22
ENDBRANCH   2  18
TORSDOF 6
