REMARK  Name = ZINC05457777
REMARK  4 active torsions:
REMARK  status: ('A' for Active; 'I' for Inactive)
REMARK    1  A    between atoms: C_3  and  N_9
REMARK    2  A    between atoms: C_10  and  C_12
REMARK    3  A    between atoms: C_12  and  O_13
REMARK    4  A    between atoms: O_13  and  N_14
REMARK                            x       y       z     vdW  Elec       q    Type
REMARK                         _______ _______ _______ _____ _____    ______ ____
ROOT
ATOM      1  N   UNL     1       7.300   5.052  -0.038  0.00  0.00    -0.281 N 
ATOM      2  C   UNL     1       5.997   4.711  -0.022  0.00  0.00    +0.258 C 
ATOM      3  O   UNL     1       5.144   5.574  -0.014  0.00  0.00    -0.272 OA
ATOM      4  H   UNL     1       7.982   4.364   0.021  0.00  0.00    +0.155 HD
ENDROOT
BRANCH   1   7
ATOM      5  C   UNL     1       7.264   8.709   0.360  0.00  0.00    +0.040 A 
ATOM      6  C   UNL     1       6.897   7.380   0.462  0.00  0.00    +0.027 A 
ATOM      7  C   UNL     1       7.671   6.399  -0.141  0.00  0.00    +0.052 A 
ATOM      8  C   UNL     1       8.818   6.754  -0.841  0.00  0.00    +0.065 A 
ATOM      9  C   UNL     1       9.178   8.084  -0.945  0.00  0.00    +0.060 A 
ATOM     10  C   UNL     1       8.403   9.061  -0.343  0.00  0.00    +0.125 A 
ATOM     11  F   UNL     1       8.760  10.360  -0.441  0.00  0.00    -0.205 F 
ATOM     12 CL   UNL     1       9.793   5.528  -1.590  0.00  0.00    -0.082 Cl
ENDBRANCH   1   7
BRANCH   2  13
ATOM     13  C   UNL     1       5.598   3.258  -0.014  0.00  0.00    +0.358 C 
BRANCH  13  14
ATOM     14  O   UNL     1       4.172   3.155   0.003  0.00  0.00    -0.383 OA
BRANCH  14  15
ATOM     15  N   UNL     1       3.691   1.824   0.012  0.00  0.00    -0.076 N 
ATOM     16  C   UNL     1       2.376   1.425   0.028  0.00  0.00    +0.132 A 
ATOM     17  C   UNL     1       1.161   2.102   0.043  0.00  0.00    +0.053 A 
ATOM     18  C   UNL     1      -0.018   1.389   0.059  0.00  0.00    +0.043 A 
ATOM     19  C   UNL     1       0.001  -0.001   0.061  0.00  0.00    +0.022 A 
ATOM     20  C   UNL     1       1.182  -0.683   0.048  0.00  0.00    +0.033 A 
ATOM     21  C   UNL     1       2.394   0.019   0.031  0.00  0.00    +0.116 A 
ATOM     22  N   UNL     1       3.684  -0.373   0.017  0.00  0.00    -0.127 NA
ATOM     23  N   UNL     1       4.462   0.652   0.005  0.00  0.00    -0.029 NA
ATOM     24 CL   UNL     1      -1.536   2.232   0.069  0.00  0.00    -0.083 Cl
ENDBRANCH  14  15
ENDBRANCH  13  14
ENDBRANCH   2  13
TORSDOF 4
