REMARK  Name = ZINC08548886
REMARK  7 active torsions:
REMARK  status: ('A' for Active; 'I' for Inactive)
REMARK    1  A    between atoms: C_1  and  C_2
REMARK    2  A    between atoms: C_4  and  C_25
REMARK    3  A    between atoms: C_5  and  N_11
REMARK    4  A    between atoms: C_6  and  N_8
REMARK    5  A    between atoms: C_12  and  C_14
REMARK    6  A    between atoms: C_20  and  C_23
REMARK    7  A    between atoms: C_20  and  C_24
REMARK                            x       y       z     vdW  Elec       q    Type
REMARK                         _______ _______ _______ _____ _____    ______ ____
ROOT
ATOM      1  N   UNL     1       0.282   1.526  -0.627  0.00  0.00    -0.283 N 
ATOM      2  C   UNL     1      -0.760   2.283  -1.022  0.00  0.00    +0.231 C 
ATOM      3  O   UNL     1      -1.705   1.769  -1.583  0.00  0.00    -0.274 OA
ATOM      4  H   UNL     1       1.002   1.922  -0.112  0.00  0.00    +0.155 HD
ENDROOT
BRANCH   2   5
ATOM      5  C   UNL     1      -0.753   3.768  -0.767  0.00  0.00    +0.106 C 
ATOM      6  C   UNL     1       0.404   4.567  -1.440  0.00  0.00    +0.024 C 
ATOM      7  C   UNL     1      -0.096   6.030  -1.464  0.00  0.00    +0.006 C 
ATOM      8  C   UNL     1      -1.504   5.971  -0.795  0.00  0.00    +0.003 C 
ATOM      9  C   UNL     1      -2.000   4.566  -1.288  0.00  0.00    +0.028 C 
ATOM     10  C   UNL     1      -1.206   5.651   0.702  0.00  0.00    +0.027 C 
ATOM     11  C   UNL     1      -0.709   4.193   0.708  0.00  0.00    +0.154 C 
ATOM     12  O   UNL     1      -0.357   3.527   1.652  0.00  0.00    -0.296 OA
ATOM     13  C   UNL     1      -0.115   6.579   1.238  0.00  0.00    +0.019 C 
ATOM     14  C   UNL     1      -2.480   5.786   1.539  0.00  0.00    +0.019 C 
ENDBRANCH   2   5
BRANCH   1  19
ATOM     15  C   UNL     1       0.473  -3.976  -1.999  0.00  0.00    +0.044 C 
ATOM     16  C   UNL     1       0.423  -2.515  -1.635  0.00  0.00    -0.048 A 
ATOM     17  C   UNL     1      -0.661  -2.015  -0.936  0.00  0.00    +0.008 A 
ATOM     18  C   UNL     1      -0.711  -0.676  -0.600  0.00  0.00    -0.027 A 
ATOM     19  C   UNL     1       0.329   0.169  -0.966  0.00  0.00    +0.067 A 
ATOM     20  C   UNL     1       1.413  -0.335  -1.673  0.00  0.00    +0.148 A 
ATOM     21  C   UNL     1       1.459  -1.676  -2.000  0.00  0.00    +0.038 A 
ATOM     22  C   UNL     1      -1.892  -0.133   0.161  0.00  0.00    +0.046 C 
BRANCH  20  23
ATOM     23  N   UNL     1       2.521   0.563  -2.070  0.00  0.00    +0.058 N 
ATOM     24  O   UNL     1       3.518   0.104  -2.598  0.00  0.00    -0.126 OA
ATOM     25  O   UNL     1       2.435   1.762  -1.869  0.00  0.00    -0.126 OA
ENDBRANCH  20  23
ENDBRANCH   1  19
TORSDOF 3
