REMARK  Name = ZINC20609277
REMARK  9 active torsions:
REMARK  status: ('A' for Active; 'I' for Inactive)
REMARK    1  A    between atoms: C_1  and  C_2
REMARK    2  A    between atoms: C_2  and  O_3
REMARK    3  A    between atoms: O_3  and  C_4
REMARK    4  A    between atoms: C_4  and  C_6
REMARK    5  A    between atoms: C_7  and  N_31
REMARK    6  A    between atoms: N_8  and  C_28
REMARK    7  A    between atoms: C_19  and  C_23
REMARK    8  A    between atoms: C_19  and  C_24
REMARK    9  A    between atoms: C_28  and  C_29
REMARK                            x       y       z     vdW  Elec       q    Type
REMARK                         _______ _______ _______ _____ _____    ______ ____
ROOT
ATOM      1  C   UNL     1      -0.466  -0.662   1.146  0.00  0.00    +0.098 C 
ATOM      2  C   UNL     1      -1.769  -1.066   1.296  0.00  0.00    +0.100 C 
ATOM      3  N   UNL     1      -2.626  -1.073   0.228  0.00  0.00    -0.284 N 
ATOM      4  C   UNL     1      -2.125  -1.037  -1.076  0.00  0.00    +0.040 A 
ATOM      5  C   UNL     1      -2.937  -1.418  -2.138  0.00  0.00    +0.024 A 
ATOM      6  C   UNL     1      -2.443  -1.394  -3.427  0.00  0.00    +0.002 A 
ATOM      7  C   UNL     1      -1.141  -0.991  -3.660  0.00  0.00    +0.000 A 
ATOM      8  C   UNL     1      -0.333  -0.608  -2.607  0.00  0.00    +0.007 A 
ATOM      9  C   UNL     1      -0.820  -0.627  -1.312  0.00  0.00    +0.000 A 
ATOM     10  C   UNL     1       0.068  -0.205  -0.177  0.00  0.00    +0.160 C 
ATOM     11  C   UNL     1       0.270   1.283  -0.187  0.00  0.00    +0.059 C 
ATOM     12  C   UNL     1       1.600   1.490  -0.371  0.00  0.00    +0.118 C 
ATOM     13  C   UNL     1       2.181   2.889  -0.422  0.00  0.00    +0.081 C 
ATOM     14  C   UNL     1       1.272   3.814   0.394  0.00  0.00    -0.021 C 
ATOM     15  C   UNL     1      -0.164   3.744  -0.128  0.00  0.00    +0.086 C 
ATOM     16  C   UNL     1      -0.668   2.319  -0.048  0.00  0.00    +0.165 C 
ATOM     17  O   UNL     1      -1.845   2.080   0.134  0.00  0.00    -0.292 OA
ATOM     18  C   UNL     1       1.298   3.384   1.862  0.00  0.00    +0.012 C 
ATOM     19  C   UNL     1       1.779   5.253   0.279  0.00  0.00    +0.012 C 
ATOM     20  O   UNL     1       2.266   0.337  -0.486  0.00  0.00    -0.429 OA
ATOM     21  C   UNL     1       1.470  -0.743  -0.388  0.00  0.00    +0.332 C 
ATOM     22  O   UNL     1       1.803  -1.902  -0.456  0.00  0.00    -0.249 OA
ENDROOT
BRANCH   2  23
ATOM     23  N   UNL     1      -2.217  -1.467   2.528  0.00  0.00    -0.346 N 
ATOM     24  H   UNL     1      -3.260  -1.792   2.655  0.00  0.00    +0.143 HD
ATOM     25  H   UNL     1      -1.533  -1.464   3.390  0.00  0.00    +0.143 HD
ENDBRANCH   2  23
BRANCH   1  26
ATOM     26  C   UNL     1       0.386  -0.678   2.257  0.00  0.00    +0.340 C 
ATOM     27  O   UNL     1       0.003  -1.153   3.312  0.00  0.00    -0.245 OA
BRANCH  26  28
ATOM     28  O   UNL     1       1.632  -0.165   2.160  0.00  0.00    -0.462 OA
BRANCH  28  30
ATOM     29  C   UNL     1       3.812   0.408   3.032  0.00  0.00    +0.048 C 
ATOM     30  C   UNL     1       2.446  -0.214   3.333  0.00  0.00    +0.229 C 
ENDBRANCH  28  30
ENDBRANCH  26  28
ENDBRANCH   1  26
BRANCH   3  31
ATOM     31  C   UNL     1      -4.073  -1.117   0.453  0.00  0.00    +0.139 C 
BRANCH  31  32
ATOM     32  C   UNL     1      -4.529  -2.553   0.507  0.00  0.00    -0.015 C 
ATOM     33  C   UNL     1      -5.196  -2.990   1.546  0.00  0.00    +0.005 C 
ENDBRANCH  31  32
ENDBRANCH   3  31
TORSDOF 6
