REMARK  Name = ZINC37129092
REMARK  3 active torsions:
REMARK  status: ('A' for Active; 'I' for Inactive)
REMARK    1  A    between atoms: C_5  and  C_6
REMARK    2  A    between atoms: C_6  and  N_7
REMARK    3  A    between atoms: N_7  and  C_8
REMARK                            x       y       z     vdW  Elec       q    Type
REMARK                         _______ _______ _______ _____ _____    ______ ____
ROOT
ATOM      1  C   UNL     1      -2.530  -2.229  -1.624  0.00  0.00    +0.075 A 
ATOM      2  C   UNL     1      -3.032  -2.373  -2.881  0.00  0.00    +0.065 A 
ATOM      3  C   UNL     1      -4.018  -3.318  -3.166  0.00  0.00    +0.044 A 
ATOM      4  C   UNL     1      -4.518  -4.133  -2.205  0.00  0.00    +0.071 A 
ATOM      5  C   UNL     1      -4.042  -4.040  -0.868  0.00  0.00    +0.120 A 
ATOM      6  C   UNL     1      -3.008  -3.058  -0.565  0.00  0.00    +0.123 A 
ATOM      7  N   UNL     1      -2.635  -3.065   0.715  0.00  0.00    -0.189 NA
ATOM      8  S   UNL     1      -3.520  -4.211   1.418  0.00  0.00    +0.117 S 
ATOM      9  N   UNL     1      -4.415  -4.753   0.196  0.00  0.00    -0.189 NA
ATOM     10 CL   UNL     1      -5.745  -5.293  -2.608  0.00  0.00    -0.081 Cl
ATOM     11 CL   UNL     1      -2.433  -1.359  -4.156  0.00  0.00    -0.082 Cl
ENDROOT
BRANCH   1  12
ATOM     12  N   UNL     1      -1.544  -1.274  -1.371  0.00  0.00    -0.336 N 
ATOM     13  H   UNL     1      -1.050  -0.881  -2.108  0.00  0.00    +0.147 HD
BRANCH  12  14
ATOM     14  C   UNL     1      -1.256  -0.864   0.005  0.00  0.00    +0.144 C 
BRANCH  14  19
ATOM     15  C   UNL     1      -0.486   1.602  -0.052  0.00  0.00    +0.014 A 
ATOM     16  C   UNL     1       0.594   2.465  -0.052  0.00  0.00    +0.028 A 
ATOM     17  C   UNL     1       1.848   1.949  -0.004  0.00  0.00    +0.078 A 
ATOM     18  S   UNL     1       1.523   0.194   0.043  0.00  0.00    -0.080 S 
ATOM     19  C   UNL     1      -0.260   0.266  -0.005  0.00  0.00    +0.008 A 
ATOM     20 CL   UNL     1       3.373   2.779   0.009  0.00  0.00    -0.076 Cl
ENDBRANCH  14  19
ENDBRANCH  12  14
ENDBRANCH   1  12
TORSDOF 3
