REMARK  Name = ZINC01080326
REMARK  13 active torsions:
REMARK  status: ('A' for Active; 'I' for Inactive)
REMARK    1  A    between atoms: C_1  and  C_2
REMARK    2  A    between atoms: C_2  and  C_36
REMARK    3  A    between atoms: C_6  and  C_17
REMARK    4  A    between atoms: C_8  and  C_15
REMARK    5  A    between atoms: C_9  and  N_14
REMARK    6  A    between atoms: N_10  and  N_11
REMARK    7  A    between atoms: N_11  and  C_12
REMARK    8  A    between atoms: N_11  and  C_13
REMARK    9  A    between atoms: C_20  and  O_25
REMARK   10  A    between atoms: C_21  and  O_23
REMARK   11  A    between atoms: O_23  and  C_24
REMARK   12  A    between atoms: O_25  and  C_26
REMARK   13  A    between atoms: C_26  and  C_27
REMARK                            x       y       z     vdW  Elec       q    Type
REMARK                         _______ _______ _______ _____ _____    ______ ____
ROOT
ATOM      1  C   UNL     1      -4.294   1.727   3.097  0.00  0.00    +0.011 C 
ATOM      2  C   UNL     1      -5.245   1.561   1.910  0.00  0.00    -0.023 C 
ATOM      3  C   UNL     1      -4.530   0.821   0.778  0.00  0.00    +0.059 C 
ATOM      4  C   UNL     1      -3.340   1.627   0.319  0.00  0.00    +0.037 C 
ATOM      5  C   UNL     1      -3.349   2.976   0.379  0.00  0.00    +0.026 C 
ATOM      6  C   UNL     1      -2.169   3.781  -0.103  0.00  0.00    +0.098 C 
ATOM      7  C   UNL     1      -0.936   2.930  -0.194  0.00  0.00    +0.078 C 
ATOM      8  C   UNL     1      -1.021   1.574  -0.229  0.00  0.00    +0.117 C 
ATOM      9  N   UNL     1      -2.248   0.958  -0.164  0.00  0.00    -0.223 N 
ATOM     10  C   UNL     1      -4.459   3.671   0.889  0.00  0.00    +0.162 C 
ATOM     11  O   UNL     1      -4.439   4.886   0.922  0.00  0.00    -0.292 OA
ATOM     12  C   UNL     1      -5.672   2.940   1.397  0.00  0.00    +0.086 C 
ATOM     13  C   UNL     1      -6.480   0.770   2.348  0.00  0.00    +0.011 C 
ENDROOT
BRANCH   6  14
ATOM     14  C   UNL     1      -2.482   4.352  -1.462  0.00  0.00    -0.031 A 
ATOM     15  C   UNL     1      -2.769   3.505  -2.516  0.00  0.00    +0.008 A 
ATOM     16  C   UNL     1      -3.056   4.023  -3.765  0.00  0.00    +0.050 A 
ATOM     17  C   UNL     1      -3.058   5.394  -3.962  0.00  0.00    +0.162 A 
ATOM     18  C   UNL     1      -2.770   6.247  -2.901  0.00  0.00    +0.162 A 
ATOM     19  C   UNL     1      -2.487   5.721  -1.651  0.00  0.00    +0.054 A 
BRANCH  18  20
ATOM     20  O   UNL     1      -2.770   7.594  -3.090  0.00  0.00    -0.491 OA
ATOM     21  C   UNL     1      -2.465   8.408  -1.955  0.00  0.00    +0.277 C 
ENDBRANCH  18  20
BRANCH  17  22
ATOM     22  O   UNL     1      -3.341   5.906  -5.190  0.00  0.00    -0.484 OA
BRANCH  22  23
ATOM     23  C   UNL     1      -3.627   4.971  -6.232  0.00  0.00    +0.264 C 
BRANCH  23  24
ATOM     24  C   UNL     1      -3.913   5.716  -7.511  0.00  0.00    -0.010 A 
ATOM     25  C   UNL     1      -5.208   6.092  -7.816  0.00  0.00    +0.007 A 
ATOM     26  C   UNL     1      -5.471   6.780  -8.986  0.00  0.00    +0.000 A 
ATOM     27  C   UNL     1      -4.440   7.082  -9.856  0.00  0.00    +0.000 A 
ATOM     28  C   UNL     1      -3.146   6.701  -9.553  0.00  0.00    +0.000 A 
ATOM     29  C   UNL     1      -2.883   6.018  -8.381  0.00  0.00    +0.007 A 
ENDBRANCH  23  24
ENDBRANCH  22  23
ENDBRANCH  17  22
ENDBRANCH   6  14
BRANCH   9  30
ATOM     30  N   UNL     1      -2.379  -0.335  -0.586  0.00  0.00    -0.227 NA
ATOM     31  C   UNL     1      -1.865  -0.497  -1.952  0.00  0.00    +0.128 C 
ATOM     32  C   UNL     1      -1.714  -1.260   0.341  0.00  0.00    +0.128 C 
ENDBRANCH   9  30
BRANCH   8  33
ATOM     33  N   UNL     1       0.122   0.818  -0.324  0.00  0.00    -0.344 N 
ATOM     34  H   UNL     1       0.069  -0.106  -0.616  0.00  0.00    +0.144 HD
ATOM     35  H   UNL     1       0.982   1.209  -0.104  0.00  0.00    +0.144 HD
ENDBRANCH   8  33
BRANCH   7  36
ATOM     36  C   UNL     1       0.350   3.556  -0.248  0.00  0.00    +0.099 C 
ATOM     37  N   UNL     1       1.371   4.053  -0.291  0.00  0.00    -0.191 NA
ENDBRANCH   7  36
TORSDOF 8
