REMARK  Name = ZINC21093046
REMARK  7 active torsions:
REMARK  status: ('A' for Active; 'I' for Inactive)
REMARK    1  A    between atoms: C_1  and  C_2
REMARK    2  A    between atoms: C_3  and  C_7
REMARK    3  A    between atoms: C_10  and  S_13
REMARK    4  A    between atoms: N_11  and  N_12
REMARK    5  A    between atoms: S_13  and  C_14
REMARK    6  A    between atoms: C_14  and  C_15
REMARK    7  A    between atoms: N_17  and  C_18
REMARK                            x       y       z     vdW  Elec       q    Type
REMARK                         _______ _______ _______ _____ _____    ______ ____
ROOT
ATOM      1  C   UNL     1       3.901  10.193   0.648  0.00  0.00    +0.185 A 
ATOM      2  N   UNL     1       2.628   9.878   0.580  0.00  0.00    -0.127 NA
ATOM      3  N   UNL     1       2.495   8.605   0.472  0.00  0.00    -0.121 NA
ATOM      4  C   UNL     1       3.675   8.027   0.464  0.00  0.00    +0.209 A 
ATOM      5  N   UNL     1       4.611   9.017   0.581  0.00  0.00    -0.224 N 
ENDROOT
BRANCH   1   8
ATOM      6  C   UNL     1       2.276  12.869   0.799  0.00  0.00    +0.087 C 
ATOM      7  C   UNL     1       3.776  12.725   0.844  0.00  0.00    +0.112 A 
ATOM      8  C   UNL     1       4.465  11.554   0.777  0.00  0.00    +0.061 A 
ATOM      9  C   UNL     1       5.884  11.922   0.854  0.00  0.00    +0.053 A 
ATOM     10  C   UNL     1       5.914  13.260   0.963  0.00  0.00    +0.196 A 
ATOM     11  O   UNL     1       4.657  13.729   0.960  0.00  0.00    -0.467 OA
ENDBRANCH   1   8
BRANCH   5  12
ATOM     12  N   UNL     1       5.968   8.868   0.621  0.00  0.00    -0.295 N 
ATOM     13  H   UNL     1       6.414   7.865   0.557  0.00  0.00    +0.163 HD
ATOM     14  H   UNL     1       6.615   9.753   0.715  0.00  0.00    +0.163 HD
ENDBRANCH   5  12
BRANCH   4  15
ATOM     15  S   UNL     1       3.991   6.299   0.333  0.00  0.00    -0.075 S 
BRANCH  15  16
ATOM     16  C   UNL     1       2.295   5.676   0.226  0.00  0.00    +0.173 C 
BRANCH  16  17
ATOM     17  C   UNL     1       2.318   4.174   0.104  0.00  0.00    +0.228 C 
ATOM     18  O   UNL     1       3.377   3.583   0.091  0.00  0.00    -0.275 OA
ATOM     19  N   UNL     1       1.162   3.487   0.010  0.00  0.00    -0.284 N 
ATOM     20  H   UNL     1       0.207   4.027  -0.070  0.00  0.00    +0.155 HD
BRANCH  19  21
ATOM     21  C   UNL     1       1.177   2.088   0.013  0.00  0.00    +0.053 A 
ATOM     22  C   UNL     1       2.230   1.405   0.607  0.00  0.00    +0.044 A 
ATOM     23  C   UNL     1       2.241   0.022   0.609  0.00  0.00    +0.043 A 
ATOM     24  C   UNL     1       1.205  -0.680   0.019  0.00  0.00    +0.021 A 
ATOM     25  C   UNL     1       0.156  -0.003  -0.573  0.00  0.00    +0.023 A 
ATOM     26  C   UNL     1       0.138   1.379  -0.578  0.00  0.00    +0.062 A 
ATOM     27 CL   UNL     1      -1.176   2.229  -1.329  0.00  0.00    -0.082 Cl
ATOM     28 CL   UNL     1       3.557  -0.833   1.352  0.00  0.00    -0.083 Cl
ENDBRANCH  19  21
ENDBRANCH  16  17
ENDBRANCH  15  16
ENDBRANCH   4  15
TORSDOF 6
