REMARK  Name = ZINC15811815
REMARK  7 active torsions:
REMARK  status: ('A' for Active; 'I' for Inactive)
REMARK    1  A    between atoms: C_1  and  C_2
REMARK    2  A    between atoms: C_2  and  C_3
REMARK    3  A    between atoms: C_3  and  C_5
REMARK    4  A    between atoms: C_3  and  N_12
REMARK    5  A    between atoms: C_13  and  C_15
REMARK    6  A    between atoms: C_15  and  N_16
REMARK    7  A    between atoms: C_22  and  C_25
REMARK                            x       y       z     vdW  Elec       q    Type
REMARK                         _______ _______ _______ _____ _____    ______ ____
ROOT
ATOM      1  C   UNL     1       3.738   1.732   1.933  0.00  0.00    +0.213 C 
ENDROOT
BRANCH   1   2
ATOM      2  N   UNL     1       4.663   0.941   1.118  0.00  0.00    -0.215 N 
ATOM      3  C   UNL     1       4.894   1.157  -0.194  0.00  0.00    +0.247 C 
ATOM      4  O   UNL     1       4.395   2.010  -0.895  0.00  0.00    -0.273 OA
ATOM      5  C   UNL     1       5.906   0.112  -0.604  0.00  0.00    +0.113 C 
ATOM      6  C   UNL     1       7.188   0.777  -1.092  0.00  0.00    +0.035 C 
ATOM      7  C   UNL     1       8.209  -0.297  -1.475  0.00  0.00    +0.006 C 
ATOM      8  C   UNL     1       7.625  -1.186  -2.575  0.00  0.00    -0.014 C 
ATOM      9  C   UNL     1       6.353  -1.864  -2.062  0.00  0.00    +0.006 C 
ATOM     10  C   UNL     1       5.324  -0.797  -1.681  0.00  0.00    +0.035 C 
ATOM     11  C   UNL     1       8.649  -2.252  -2.967  0.00  0.00    +0.007 C 
ATOM     12  N   UNL     1       6.156  -0.645   0.630  0.00  0.00    -0.285 N 
ATOM     13  C   UNL     1       5.388  -0.084   1.583  0.00  0.00    +0.310 C 
ATOM     14  O   UNL     1       5.355  -0.466   2.736  0.00  0.00    -0.252 OA
ATOM     15  H   UNL     1       6.758  -1.397   0.737  0.00  0.00    +0.151 HD
ENDBRANCH   1   2
BRANCH   1  17
ATOM     16  N   UNL     1       1.346   1.674   2.558  0.00  0.00    -0.307 N 
ATOM     17  C   UNL     1       2.365   1.113   1.879  0.00  0.00    +0.231 C 
ATOM     18  O   UNL     1       2.178   0.109   1.224  0.00  0.00    -0.274 OA
ATOM     19  H   UNL     1       1.496   2.477   3.082  0.00  0.00    +0.149 HD
BRANCH  16  20
ATOM     20  C   UNL     1       0.011   1.072   2.506  0.00  0.00    +0.103 C 
BRANCH  20  21
ATOM     21  C   UNL     1      -0.761   1.454   3.743  0.00  0.00    -0.027 A 
ATOM     22  C   UNL     1      -0.658   2.734   4.254  0.00  0.00    +0.006 A 
ATOM     23  C   UNL     1      -1.369   3.086   5.386  0.00  0.00    +0.015 A 
ATOM     24  C   UNL     1      -2.176   2.154   6.013  0.00  0.00    +0.018 A 
ATOM     25  C   UNL     1      -2.275   0.871   5.504  0.00  0.00    +0.015 A 
ATOM     26  C   UNL     1      -1.567   0.522   4.370  0.00  0.00    +0.006 A 
ATOM     27 BR   UNL     1      -3.144   2.632   7.566  0.00  0.00    -0.050 Br
ENDBRANCH  20  21
BRANCH  20  29
ATOM     28  C   UNL     1      -0.013   1.086   0.008  0.00  0.00    +0.006 C 
ATOM     29  C   UNL     1      -0.729   1.579   1.267  0.00  0.00    +0.024 C 
ENDBRANCH  20  29
ENDBRANCH  16  20
ENDBRANCH   1  17
TORSDOF 5
