REMARK  Name = ZINC09276690
REMARK  6 active torsions:
REMARK  status: ('A' for Active; 'I' for Inactive)
REMARK    1  A    between atoms: C_1  and  C_2
REMARK    2  A    between atoms: C_5  and  N_8
REMARK    3  A    between atoms: C_14  and  S_15
REMARK    4  A    between atoms: S_15  and  C_16
REMARK    5  A    between atoms: C_16  and  C_17
REMARK    6  A    between atoms: C_29  and  C_32
REMARK                            x       y       z     vdW  Elec       q    Type
REMARK                         _______ _______ _______ _____ _____    ______ ____
ROOT
ATOM      1  N   UNL     1       7.210  -4.005  -0.081  0.00  0.00    -0.255 N 
ATOM      2  C   UNL     1       8.321  -3.391   0.387  0.00  0.00    +0.273 A 
ATOM      3  O   UNL     1       9.256  -4.042   0.825  0.00  0.00    -0.266 OA
ATOM      4  C   UNL     1       8.371  -1.990   0.365  0.00  0.00    +0.094 A 
ATOM      5  C   UNL     1       7.313  -1.245  -0.115  0.00  0.00    +0.064 A 
ATOM      6  N   UNL     1       6.246  -1.930  -0.578  0.00  0.00    -0.227 NA
ATOM      7  C   UNL     1       6.191  -3.239  -0.567  0.00  0.00    +0.177 A 
ATOM      8  C   UNL     1       7.461   0.255  -0.048  0.00  0.00    +0.071 C 
ATOM      9  C   UNL     1       8.943   0.679   0.074  0.00  0.00    +0.054 C 
ATOM     10  S   UNL     1       9.625  -0.835   0.869  0.00  0.00    -0.115 S 
ATOM     11  C   UNL     1       9.103   1.904   0.977  0.00  0.00    +0.020 C 
ENDROOT
BRANCH   1  16
ATOM     12  C   UNL     1       6.809  -9.665  -0.048  0.00  0.00    +0.044 C 
ATOM     13  C   UNL     1       6.915  -8.162  -0.057  0.00  0.00    -0.050 A 
ATOM     14  C   UNL     1       7.457  -7.515  -1.153  0.00  0.00    +0.005 A 
ATOM     15  C   UNL     1       7.556  -6.138  -1.164  0.00  0.00    +0.026 A 
ATOM     16  C   UNL     1       7.111  -5.402  -0.073  0.00  0.00    +0.052 A 
ATOM     17  C   UNL     1       6.573  -6.055   1.028  0.00  0.00    +0.026 A 
ATOM     18  C   UNL     1       6.472  -7.432   1.031  0.00  0.00    +0.005 A 
ENDBRANCH   1  16
BRANCH   7  19
ATOM     19  S   UNL     1       4.751  -4.036  -1.195  0.00  0.00    -0.078 S 
BRANCH  19  20
ATOM     20  C   UNL     1       3.774  -2.590  -1.674  0.00  0.00    +0.173 C 
BRANCH  20  21
ATOM     21  C   UNL     1       2.459  -3.041  -2.254  0.00  0.00    +0.230 C 
ATOM     22  O   UNL     1       2.206  -4.225  -2.336  0.00  0.00    -0.274 OA
ATOM     23  N   UNL     1       1.562  -2.130  -2.682  0.00  0.00    -0.270 N 
ATOM     24  C   UNL     1       0.255  -2.446  -3.263  0.00  0.00    +0.118 C 
ATOM     25  C   UNL     1      -0.383  -1.085  -3.586  0.00  0.00    +0.056 C 
ATOM     26  C   UNL     1       0.648  -0.069  -3.149  0.00  0.00    -0.024 A 
ATOM     27  C   UNL     1       1.744  -0.744  -2.637  0.00  0.00    +0.040 A 
ATOM     28  C   UNL     1       2.834  -0.010  -2.166  0.00  0.00    +0.024 A 
ATOM     29  C   UNL     1       2.815   1.368  -2.212  0.00  0.00    +0.002 A 
ATOM     30  C   UNL     1       1.716   2.033  -2.723  0.00  0.00    +0.000 A 
ATOM     31  C   UNL     1       0.633   1.312  -3.192  0.00  0.00    +0.005 A 
ENDBRANCH  20  21
ENDBRANCH  19  20
ENDBRANCH   7  19
TORSDOF 4
