REMARK  Name = ZINC39040653
REMARK  3 active torsions:
REMARK  status: ('A' for Active; 'I' for Inactive)
REMARK    1  A    between atoms: C_1  and  C_2
REMARK    2  A    between atoms: C_7  and  C_9
REMARK    3  A    between atoms: C_7  and  C_10
REMARK                            x       y       z     vdW  Elec       q    Type
REMARK                         _______ _______ _______ _____ _____    ______ ____
ROOT
ATOM      1  C   UNL     1      -0.019   1.532   0.011  0.00  0.00    +0.013 C 
ATOM      2  C   UNL     1       0.002  -0.004   0.002  0.00  0.00    -0.014 C 
ATOM      3  C   UNL     1      -1.426  -0.614  -0.023  0.00  0.00    +0.030 C 
ATOM      4  C   UNL     1      -1.088  -2.044  -0.513  0.00  0.00    +0.076 C 
ATOM      5  C   UNL     1      -0.480  -2.795   0.669  0.00  0.00    +0.029 C 
ATOM      6  C   UNL     1       0.727  -2.106   1.280  0.00  0.00    -0.033 C 
ATOM      7  C   UNL     1       0.726  -0.590   1.213  0.00  0.00    +0.014 C 
ATOM      8  C   UNL     1       0.765  -2.497   2.779  0.00  0.00    +0.011 C 
ATOM      9  C   UNL     1       2.014  -2.662   0.655  0.00  0.00    +0.011 C 
ATOM     10  N   UNL     1      -0.054  -1.854  -1.550  0.00  0.00    -0.313 N 
ATOM     11  C   UNL     1       0.625  -0.576  -1.291  0.00  0.00    +0.113 C 
ATOM     12  C   UNL     1       0.214  -2.700  -2.566  0.00  0.00    +0.133 C 
ATOM     13  N   UNL     1      -0.468  -3.820  -2.722  0.00  0.00    -0.204 NA
ATOM     14  C   UNL     1      -0.165  -4.741  -3.635  0.00  0.00    +0.226 C 
ATOM     15  N   UNL     1       1.013  -4.774  -4.243  0.00  0.00    -0.200 NA
ATOM     16  C   UNL     1       1.817  -3.737  -4.074  0.00  0.00    +0.165 C 
ATOM     17  N   UNL     1       3.102  -3.552  -4.181  0.00  0.00    -0.218 NA
ATOM     18  C   UNL     1       3.494  -2.477  -3.484  0.00  0.00    +0.218 C 
ATOM     19  N   UNL     1       2.495  -1.760  -3.041  0.00  0.00    -0.253 NA
ATOM     20  C   UNL     1       1.291  -2.398  -3.560  0.00  0.00    +0.237 C 
ATOM     21 CL   UNL     1      -1.353  -5.939  -4.042  0.00  0.00    -0.041 Cl
ENDROOT
TORSDOF 0
