REMARK  Name = ZINC49012059
REMARK  7 active torsions:
REMARK  status: ('A' for Active; 'I' for Inactive)
REMARK    1  A    between atoms: C_1  and  C_2
REMARK    2  A    between atoms: C_4  and  C_23
REMARK    3  A    between atoms: C_7  and  C_8
REMARK    4  A    between atoms: N_9  and  O_10
REMARK    5  A    between atoms: N_12  and  C_13
REMARK    6  A    between atoms: N_12  and  C_14
REMARK    7  A    between atoms: C_19  and  C_22
REMARK                            x       y       z     vdW  Elec       q    Type
REMARK                         _______ _______ _______ _____ _____    ______ ____
ROOT
ATOM      1  C   UNL     1       2.569  -0.708  -1.095  0.00  0.00    +0.044 C 
ATOM      2  C   UNL     1       1.223  -0.996  -0.482  0.00  0.00    -0.035 A 
ATOM      3  C   UNL     1       0.064  -0.490  -1.046  0.00  0.00    +0.025 A 
ATOM      4  C   UNL     1      -1.157  -0.771  -0.461  0.00  0.00    +0.015 A 
ATOM      5  N   UNL     1      -1.237  -1.514   0.626  0.00  0.00    -0.346 N 
ATOM      6  C   UNL     1      -0.161  -2.022   1.205  0.00  0.00    +0.110 A 
ATOM      7  C   UNL     1       1.113  -1.785   0.666  0.00  0.00    +0.059 A 
ATOM      8  N   UNL     1      -0.293  -2.796   2.346  0.00  0.00    -0.316 N 
ATOM      9  C   UNL     1      -0.123  -2.188   3.668  0.00  0.00    +0.131 C 
ATOM     10  C   UNL     1      -2.417  -0.220  -1.076  0.00  0.00    +0.063 C 
ATOM     11  H   UNL     1      -2.109  -1.693   1.012  0.00  0.00    +0.167 HD
ENDROOT
BRANCH   8  12
ATOM     12  C   UNL     1      -0.602  -4.223   2.232  0.00  0.00    +0.075 C 
ATOM     13  C   UNL     1      -1.877  -4.534   3.017  0.00  0.00    +0.022 C 
ATOM     14  C   UNL     1      -2.200  -6.025   2.897  0.00  0.00    +0.002 C 
ATOM     15  C   UNL     1      -1.040  -6.845   3.464  0.00  0.00    +0.003 C 
ATOM     16  C   UNL     1       0.236  -6.535   2.678  0.00  0.00    -0.012 C 
ATOM     17  C   UNL     1       0.559  -5.044   2.799  0.00  0.00    +0.025 C 
ATOM     18  C   UNL     1       1.397  -7.355   3.245  0.00  0.00    +0.007 C 
ENDBRANCH   8  12
BRANCH   7  19
ATOM     19  C   UNL     1       2.319  -2.355   1.304  0.00  0.00    +0.166 C 
ATOM     20  N   UNL     1       2.875  -1.741   2.308  0.00  0.00    -0.071 NA
ATOM     21  N   UNL     1       2.855  -3.542   0.835  0.00  0.00    -0.340 N 
ATOM     22  H   UNL     1       2.440  -3.999   0.086  0.00  0.00    +0.144 HD
ATOM     23  H   UNL     1       3.646  -3.916   1.254  0.00  0.00    +0.144 HD
BRANCH  20  24
ATOM     24  O   UNL     1       4.030  -2.287   2.920  0.00  0.00    -0.408 OA
ATOM     25  H   UNL     1       4.371  -1.762   3.656  0.00  0.00    +0.328 HD
ENDBRANCH  20  24
ENDBRANCH   7  19
TORSDOF 3
