REMARK  Name = ZINC56240446
REMARK  7 active torsions:
REMARK  status: ('A' for Active; 'I' for Inactive)
REMARK    1  A    between atoms: C_1  and  C_2
REMARK    2  A    between atoms: N_7  and  C_9
REMARK    3  A    between atoms: C_9  and  C_10
REMARK    4  A    between atoms: C_10  and  C_12
REMARK    5  A    between atoms: C_10  and  N_13
REMARK    6  A    between atoms: C_14  and  C_16
REMARK    7  A    between atoms: C_16  and  N_17
REMARK                            x       y       z     vdW  Elec       q    Type
REMARK                         _______ _______ _______ _____ _____    ______ ____
ROOT
ATOM      1  N   UNL     1       0.199  -4.504   2.224  0.00  0.00    -0.313 N 
ATOM      2  C   UNL     1      -0.001  -5.764   1.791  0.00  0.00    +0.233 C 
ATOM      3  O   UNL     1       0.948  -6.474   1.531  0.00  0.00    -0.274 OA
ATOM      4  H   UNL     1      -0.560  -3.937   2.433  0.00  0.00    +0.149 HD
ENDROOT
BRANCH   1   5
ATOM      5  C   UNL     1       1.562  -3.991   2.382  0.00  0.00    +0.053 C 
ATOM      6  C   UNL     1       2.089  -4.359   3.770  0.00  0.00    +0.026 C 
BRANCH   5   7
ATOM      7  C   UNL     1       1.555  -2.469   2.226  0.00  0.00    -0.057 C 
BRANCH   7  13
ATOM      8  C   UNL     1       2.049  -2.806  -2.633  0.00  0.00    +0.005 C 
ATOM      9  C   UNL     1       1.152  -2.300  -1.502  0.00  0.00    -0.031 C 
ATOM     10  C   UNL     1       0.953  -0.789  -1.644  0.00  0.00    -0.001 C 
ATOM     11  C   UNL     1       0.119  -0.281  -0.464  0.00  0.00    -0.018 C 
ATOM     12  C   UNL     1       0.818  -0.653   0.845  0.00  0.00    -0.079 C 
ATOM     13  N   UNL     1       0.955  -2.112   0.933  0.00  0.00    +0.381 N 
ATOM     14  C   UNL     1       1.812  -2.599  -0.154  0.00  0.00    -0.076 C 
ATOM     15  H   UNL     1       0.044  -2.539   0.859  0.00  0.00    -0.082 HD
ENDBRANCH   7  13
ENDBRANCH   5   7
ENDBRANCH   1   5
BRANCH   2  16
ATOM     16  C   UNL     1      -1.403  -6.292   1.629  0.00  0.00    +0.222 C 
BRANCH  16  17
ATOM     17  N   UNL     1      -1.351  -7.675   1.149  0.00  0.00    -0.287 N 
ATOM     18  C   UNL     1      -1.339  -7.925  -0.184  0.00  0.00    +0.203 A 
ATOM     19  N   UNL     1      -1.293  -9.140  -0.655  0.00  0.00    -0.233 NA
ATOM     20  C   UNL     1      -1.256 -10.202   0.166  0.00  0.00    +0.124 A 
ATOM     21  C   UNL     1      -1.202 -11.657  -0.040  0.00  0.00    +0.046 A 
ATOM     22  C   UNL     1      -1.169 -12.476  -1.167  0.00  0.00    +0.014 A 
ATOM     23  C   UNL     1      -1.119 -13.844  -1.016  0.00  0.00    +0.001 A 
ATOM     24  C   UNL     1      -1.102 -14.405   0.253  0.00  0.00    +0.004 A 
ATOM     25  C   UNL     1      -1.135 -13.606   1.375  0.00  0.00    +0.047 A 
ATOM     26  C   UNL     1      -1.185 -12.223   1.244  0.00  0.00    +0.138 A 
ATOM     27  O   UNL     1      -1.224 -11.221   2.149  0.00  0.00    -0.448 OA
ATOM     28  C   UNL     1      -1.267 -10.016   1.544  0.00  0.00    +0.219 A 
ATOM     29  C   UNL     1      -1.311  -8.692   2.037  0.00  0.00    +0.297 A 
ATOM     30  O   UNL     1      -1.317  -8.473   3.237  0.00  0.00    -0.264 OA
ENDBRANCH  16  17
ENDBRANCH   2  16
TORSDOF 5
