REMARK  Name = ZINC14560828
REMARK  9 active torsions:
REMARK  status: ('A' for Active; 'I' for Inactive)
REMARK    1  A    between atoms: C_1  and  C_2
REMARK    2  A    between atoms: C_2  and  C_4
REMARK    3  A    between atoms: C_2  and  S_14
REMARK    4  A    between atoms: N_9  and  C_10
REMARK    5  A    between atoms: C_10  and  C_11
REMARK    6  A    between atoms: C_11  and  C_12
REMARK    7  A    between atoms: C_11  and  C_13
REMARK    8  A    between atoms: S_14  and  C_15
REMARK    9  A    between atoms: N_27  and  C_28
REMARK                            x       y       z     vdW  Elec       q    Type
REMARK                         _______ _______ _______ _____ _____    ______ ____
ROOT
ATOM      1  S   UNL     1      -1.700  -0.632   0.015  0.00  0.00    -0.075 S 
ENDROOT
BRANCH   1   2
ATOM      2  C   UNL     1      -2.365  -0.093  -1.525  0.00  0.00    +0.173 A 
ATOM      3  N   UNL     1      -1.607   0.597  -2.354  0.00  0.00    -0.216 NA
ATOM      4  C   UNL     1      -2.084   1.015  -3.521  0.00  0.00    +0.117 A 
ATOM      5  C   UNL     1      -3.399   0.748  -3.928  0.00  0.00    +0.076 A 
ATOM      6  C   UNL     1      -3.787   1.275  -5.247  0.00  0.00    -0.023 A 
ATOM      7  C   UNL     1      -2.850   1.953  -5.929  0.00  0.00    -0.004 A 
ATOM      8  S   UNL     1      -1.415   1.940  -4.879  0.00  0.00    -0.073 S 
ATOM      9  C   UNL     1      -3.356   2.437  -7.261  0.00  0.00    +0.043 C 
ATOM     10  C   UNL     1      -4.628   1.600  -7.521  0.00  0.00    +0.010 C 
ATOM     11  C   UNL     1      -5.067   1.245  -6.086  0.00  0.00    +0.037 C 
ATOM     12  C   UNL     1      -4.199  -0.003  -3.011  0.00  0.00    +0.263 A 
ATOM     13  O   UNL     1      -5.355  -0.282  -3.282  0.00  0.00    -0.267 OA
ATOM     14  N   UNL     1      -3.655  -0.402  -1.846  0.00  0.00    -0.290 N 
ATOM     15  C   UNL     1      -4.464  -1.177  -0.902  0.00  0.00    +0.154 C 
ENDBRANCH   1   2
BRANCH   1  17
ATOM     16  C   UNL     1      -0.019   1.526   0.010  0.00  0.00    +0.029 C 
ATOM     17  C   UNL     1       0.002  -0.004   0.002  0.00  0.00    +0.137 C 
BRANCH  17  18
ATOM     18  C   UNL     1       0.731  -0.503   1.223  0.00  0.00    +0.233 C 
ATOM     19  O   UNL     1       0.105  -0.891   2.186  0.00  0.00    -0.274 OA
ATOM     20  N   UNL     1       2.079  -0.519   1.244  0.00  0.00    -0.239 N 
ATOM     21  C   UNL     1       2.730  -0.965   2.336  0.00  0.00    +0.306 C 
ATOM     22  O   UNL     1       2.103  -1.354   3.301  0.00  0.00    -0.252 OA
ATOM     23  N   UNL     1       4.078  -0.981   2.357  0.00  0.00    -0.299 N 
ATOM     24  H   UNL     1       2.579  -0.208   0.473  0.00  0.00    +0.159 HD
ATOM     25  H   UNL     1       4.579  -0.670   1.586  0.00  0.00    +0.150 HD
BRANCH  23  26
ATOM     26  C   UNL     1       4.786  -1.466   3.544  0.00  0.00    +0.108 C 
BRANCH  26  27
ATOM     27  C   UNL     1       6.296  -1.378   3.308  0.00  0.00    -0.000 C 
ATOM     28  C   UNL     1       6.705   0.089   3.164  0.00  0.00    +0.009 C 
ATOM     29  C   UNL     1       7.034  -1.999   4.495  0.00  0.00    +0.009 C 
ENDBRANCH  26  27
ENDBRANCH  23  26
ENDBRANCH  17  18
ENDBRANCH   1  17
TORSDOF 5
