REMARK  Name = ZINC58917696
REMARK  10 active torsions:
REMARK  status: ('A' for Active; 'I' for Inactive)
REMARK    1  A    between atoms: C_1  and  O_2
REMARK    2  A    between atoms: O_2  and  C_3
REMARK    3  A    between atoms: C_6  and  C_13
REMARK    4  A    between atoms: C_7  and  O_11
REMARK    5  A    between atoms: C_8  and  O_9
REMARK    6  A    between atoms: O_9  and  C_10
REMARK    7  A    between atoms: O_11  and  C_12
REMARK    8  A    between atoms: C_13  and  C_14
REMARK    9  A    between atoms: C_14  and  C_15
REMARK   10  A    between atoms: C_21  and  N_23
REMARK                            x       y       z     vdW  Elec       q    Type
REMARK                         _______ _______ _______ _____ _____    ______ ____
ROOT
ATOM      1  C   UNL     1       1.458  -2.837  -5.452  0.00  0.00    +0.101 C 
ENDROOT
BRANCH   1   2
ATOM      2  C   UNL     1       2.128  -3.500  -6.628  0.00  0.00    +0.216 C 
ATOM      3  O   UNL     1       3.328  -3.679  -6.621  0.00  0.00    -0.276 OA
ATOM      4  N   UNL     1       1.395  -3.893  -7.688  0.00  0.00    -0.303 N 
ATOM      5  C   UNL     1      -0.058  -3.676  -7.715  0.00  0.00    +0.107 C 
ATOM      6  C   UNL     1      -0.422  -2.928  -9.001  0.00  0.00    +0.017 C 
ATOM      7  C   UNL     1       0.120  -3.699 -10.206  0.00  0.00    -0.012 C 
ATOM      8  C   UNL     1       1.645  -3.787 -10.113  0.00  0.00    -0.051 C 
ATOM      9  C   UNL     1       2.034  -4.540  -8.842  0.00  0.00    +0.092 C 
BRANCH   8  10
ATOM     10  N   UNL     1       2.168  -4.500 -11.286  0.00  0.00    +0.383 N 
ATOM     11  C   UNL     1       1.873  -3.735 -12.524  0.00  0.00    -0.078 C 
ATOM     12  C   UNL     1       2.921  -4.271 -13.531  0.00  0.00    -0.020 C 
ATOM     13  C   UNL     1       4.176  -4.470 -12.651  0.00  0.00    -0.020 C 
ATOM     14  C   UNL     1       3.642  -4.593 -11.212  0.00  0.00    -0.078 C 
ATOM     15  H   UNL     1       1.763  -5.423 -11.342  0.00  0.00    -0.081 HD
ENDBRANCH   8  10
ENDBRANCH   1   2
BRANCH   1  16
ATOM     16  C   UNL     1       2.509  -2.494  -4.394  0.00  0.00    +0.048 C 
BRANCH  16  20
ATOM     17  C   UNL     1       0.606  -0.608  -1.056  0.00  0.00    +0.165 A 
ATOM     18  C   UNL     1       1.173   0.160  -2.063  0.00  0.00    +0.050 A 
ATOM     19  C   UNL     1       1.787  -0.452  -3.139  0.00  0.00    +0.011 A 
ATOM     20  C   UNL     1       1.838  -1.831  -3.217  0.00  0.00    -0.001 A 
ATOM     21  C   UNL     1       1.274  -2.606  -2.216  0.00  0.00    +0.168 A 
ATOM     22  C   UNL     1       0.661  -1.994  -1.128  0.00  0.00    +0.204 A 
BRANCH  17  24
ATOM     23  C   UNL     1      -0.017   1.425   0.010  0.00  0.00    +0.277 C 
ATOM     24  O   UNL     1       0.002  -0.004   0.002  0.00  0.00    -0.491 OA
ENDBRANCH  17  24
BRANCH  22  25
ATOM     25  O   UNL     1       0.111  -2.751  -0.140  0.00  0.00    -0.488 OA
ATOM     26  C   UNL     1      -1.260  -3.123  -0.295  0.00  0.00    +0.277 C 
ENDBRANCH  22  25
BRANCH  21  27
ATOM     27  O   UNL     1       1.325  -3.963  -2.294  0.00  0.00    -0.491 OA
ATOM     28  C   UNL     1       2.456  -4.605  -1.704  0.00  0.00    +0.277 C 
ENDBRANCH  21  27
ENDBRANCH  16  20
ENDBRANCH   1  16
TORSDOF 7
