REMARK  Name = ZINC56055431
REMARK  6 active torsions:
REMARK  status: ('A' for Active; 'I' for Inactive)
REMARK    1  A    between atoms: C_1  and  C_2
REMARK    2  A    between atoms: C_2  and  O_3
REMARK    3  A    between atoms: O_3  and  C_4
REMARK    4  A    between atoms: C_4  and  C_6
REMARK    5  A    between atoms: C_8  and  C_14
REMARK    6  A    between atoms: C_22  and  C_24
REMARK                            x       y       z     vdW  Elec       q    Type
REMARK                         _______ _______ _______ _____ _____    ______ ____
ROOT
ATOM      1  C   UNL     1       1.394  -2.602   2.274  0.00  0.00    +0.148 C 
ATOM      2  C   UNL     1       1.570  -3.971   2.592  0.00  0.00    +0.049 C 
ATOM      3  C   UNL     1       2.276  -4.288   3.897  0.00  0.00    +0.140 C 
ATOM      4  N   UNL     1       2.708  -3.133   4.703  0.00  0.00    -0.314 N 
ATOM      5  C   UNL     1       2.455  -1.895   4.240  0.00  0.00    +0.155 C 
ATOM      6  S   UNL     1       2.958  -0.554   5.178  0.00  0.00    -0.017 S 
ATOM      7  N   UNL     1       1.836  -1.664   3.084  0.00  0.00    -0.186 NA
ATOM      8  C   UNL     1       1.127  -4.950   1.770  0.00  0.00    +0.160 C 
ATOM      9  O   UNL     1       1.190  -6.237   2.162  0.00  0.00    -0.293 OA
ATOM     10  C   UNL     1       0.565  -4.600   0.417  0.00  0.00    +0.091 C 
ATOM     11  H   UNL     1       3.166  -3.262   5.549  0.00  0.00    +0.149 HD
ENDROOT
BRANCH   3  12
ATOM     12  C   UNL     1       1.347  -5.122   4.742  0.00  0.00    -0.003 A 
ATOM     13  C   UNL     1      -0.008  -5.139   4.468  0.00  0.00    +0.007 A 
ATOM     14  C   UNL     1      -0.861  -5.903   5.242  0.00  0.00    +0.002 A 
ATOM     15  C   UNL     1      -0.359  -6.652   6.291  0.00  0.00    +0.021 A 
ATOM     16  C   UNL     1       0.996  -6.637   6.566  0.00  0.00    +0.060 A 
ATOM     17  C   UNL     1       1.851  -5.875   5.786  0.00  0.00    +0.064 A 
ATOM     18 CL   UNL     1       3.554  -5.861   6.125  0.00  0.00    -0.082 Cl
ATOM     19 CL   UNL     1       1.626  -7.577   7.882  0.00  0.00    -0.082 Cl
ENDBRANCH   3  12
BRANCH   1  20
ATOM     20  C   UNL     1       0.710  -2.221   1.010  0.00  0.00    +0.356 C 
ATOM     21  O   UNL     1       1.353  -2.079  -0.009  0.00  0.00    -0.243 OA
BRANCH  20  22
ATOM     22  O   UNL     1      -0.623  -2.033   0.996  0.00  0.00    -0.461 OA
BRANCH  22  24
ATOM     23  C   UNL     1      -2.724  -1.499  -0.072  0.00  0.00    +0.048 C 
ATOM     24  C   UNL     1      -1.214  -1.668  -0.253  0.00  0.00    +0.229 C 
ENDBRANCH  22  24
ENDBRANCH  20  22
ENDBRANCH   1  20
TORSDOF 4
