REMARK  Name = ZINC41090668
REMARK  4 active torsions:
REMARK  status: ('A' for Active; 'I' for Inactive)
REMARK    1  A    between atoms: C_1  and  C_2
REMARK    2  A    between atoms: C_2  and  C_3
REMARK    3  A    between atoms: C_8  and  C_12
REMARK    4  A    between atoms: N_13  and  C_14
REMARK                            x       y       z     vdW  Elec       q    Type
REMARK                         _______ _______ _______ _____ _____    ______ ____
ROOT
ATOM      1  C   UNL     1      -1.412  -0.526   0.013  0.00  0.00    +0.132 A 
ATOM      2  N   UNL     1      -2.009  -0.750   1.170  0.00  0.00    -0.217 NA
ATOM      3  C   UNL     1      -3.248  -1.208   1.246  0.00  0.00    +0.131 A 
ATOM      4  C   UNL     1      -3.966  -1.468   0.046  0.00  0.00    +0.048 A 
ATOM      5  C   UNL     1      -5.318  -1.966  -0.138  0.00  0.00    +0.024 A 
ATOM      6  C   UNL     1      -5.790  -2.135  -1.382  0.00  0.00    -0.011 A 
ATOM      7  S   UNL     1      -4.429  -1.629  -2.416  0.00  0.00    -0.074 S 
ATOM      8  C   UNL     1      -3.263  -1.204  -1.149  0.00  0.00    +0.114 A 
ATOM      9  N   UNL     1      -2.028  -0.743  -1.133  0.00  0.00    -0.225 NA
ATOM     10  C   UNL     1      -7.148  -2.633  -1.804  0.00  0.00    +0.051 C 
ATOM     11  N   UNL     1      -3.837  -1.431   2.477  0.00  0.00    -0.326 N 
ATOM     12  H   UNL     1      -4.746  -1.766   2.526  0.00  0.00    +0.148 HD
ENDROOT
BRANCH  11  13
ATOM     13  C   UNL     1      -3.089  -1.160   3.707  0.00  0.00    +0.072 C 
ATOM     14  C   UNL     1      -2.275  -2.405   4.115  0.00  0.00    +0.022 C 
ATOM     15  C   UNL     1      -2.354  -2.421   5.662  0.00  0.00    +0.002 C 
ATOM     16  C   UNL     1      -3.806  -1.953   5.935  0.00  0.00    +0.002 C 
ATOM     17  C   UNL     1      -4.062  -0.873   4.864  0.00  0.00    +0.022 C 
ENDBRANCH  11  13
BRANCH   1  19
ATOM     18  C   UNL     1      -0.019   1.526   0.010  0.00  0.00    +0.012 C 
ATOM     19  C   UNL     1       0.002  -0.004   0.002  0.00  0.00    +0.073 C 
ENDBRANCH   1  19
TORSDOF 2
