REMARK  Name = ZINC19942313
REMARK  7 active torsions:
REMARK  status: ('A' for Active; 'I' for Inactive)
REMARK    1  A    between atoms: C_4  and  C_7
REMARK    2  A    between atoms: C_7  and  N_8
REMARK    3  A    between atoms: C_14  and  N_19
REMARK    4  A    between atoms: C_15  and  C_16
REMARK    5  A    between atoms: C_20  and  C_22
REMARK    6  A    between atoms: C_23  and  C_24
REMARK    7  A    between atoms: C_27  and  N_29
REMARK                            x       y       z     vdW  Elec       q    Type
REMARK                         _______ _______ _______ _____ _____    ______ ____
ROOT
ATOM      1  N   UNL     1       0.878  -0.503   1.071  0.00  0.00    -0.293 NA
ATOM      2  C   UNL     1       0.002  -0.004   0.002  0.00  0.00    +0.090 C 
ATOM      3  C   UNL     1      -0.019   1.527   0.010  0.00  0.00    +0.052 C 
ATOM      4  C   UNL     1       1.423   2.022  -0.001  0.00  0.00    -0.021 A 
ATOM      5  C   UNL     1       2.430   1.185   0.338  0.00  0.00    +0.010 A 
ATOM      6  S   UNL     1       3.898   2.160   0.185  0.00  0.00    -0.076 S 
ATOM      7  C   UNL     1       3.187   3.659  -0.319  0.00  0.00    +0.085 A 
ATOM      8  C   UNL     1       1.829   3.368  -0.357  0.00  0.00    +0.068 A 
ATOM      9  C   UNL     1       2.295  -0.248   0.747  0.00  0.00    +0.127 C 
ENDROOT
BRANCH   8  10
ATOM     10  C   UNL     1       0.844   4.383  -0.743  0.00  0.00    +0.244 C 
ATOM     11  O   UNL     1       0.344   5.099   0.105  0.00  0.00    -0.270 OA
ATOM     12  N   UNL     1       0.493   4.524  -2.037  0.00  0.00    -0.325 N 
ATOM     13  H   UNL     1      -0.246   5.285  -2.326  0.00  0.00    +0.145 HD
ATOM     14  H   UNL     1       0.945   3.877  -2.803  0.00  0.00    +0.145 HD
ENDBRANCH   8  10
BRANCH   7  15
ATOM     15  N   UNL     1       3.820   4.855  -0.611  0.00  0.00    -0.276 N 
ATOM     16  C   UNL     1       5.161   4.949  -0.516  0.00  0.00    +0.241 C 
ATOM     17  O   UNL     1       5.816   3.982  -0.174  0.00  0.00    -0.270 OA
ATOM     18  H   UNL     1       3.227   5.729  -0.920  0.00  0.00    +0.156 HD
BRANCH  16  19
ATOM     19  C   UNL     1       5.806   6.171  -0.815  0.00  0.00    +0.068 C 
ATOM     20  C   UNL     1       7.157   6.266  -0.720  0.00  0.00    +0.020 C 
BRANCH  20  21
ATOM     21  C   UNL     1       7.803   7.489  -1.018  0.00  0.00    +0.015 A 
ATOM     22  C   UNL     1       9.158   7.797  -0.979  0.00  0.00    +0.018 A 
ATOM     23  C   UNL     1       9.517   9.075  -1.325  0.00  0.00    +0.041 A 
ATOM     24  C   UNL     1       8.551   9.966  -1.673  0.00  0.00    +0.164 A 
ATOM     25  S   UNL     1       7.091   9.041  -1.536  0.00  0.00    -0.065 S 
BRANCH  24  26
ATOM     26  N   UNL     1       8.707  11.383  -2.071  0.00  0.00    +0.063 N 
ATOM     27  O   UNL     1       9.816  11.884  -2.116  0.00  0.00    -0.126 OA
ATOM     28  O   UNL     1       7.727  12.047  -2.354  0.00  0.00    -0.126 OA
ENDBRANCH  24  26
ENDBRANCH  20  21
ENDBRANCH  16  19
ENDBRANCH   7  15
BRANCH   1  29
ATOM     29  C   UNL     1       0.644  -1.932   1.319  0.00  0.00    +0.120 C 
BRANCH  29  33
ATOM     30  C   UNL     1       2.706  -3.118   4.868  0.00  0.00    +0.000 A 
ATOM     31  C   UNL     1       1.406  -2.654   4.946  0.00  0.00    +0.000 A 
ATOM     32  C   UNL     1       0.739  -2.270   3.798  0.00  0.00    +0.005 A 
ATOM     33  C   UNL     1       1.372  -2.350   2.571  0.00  0.00    -0.033 A 
ATOM     34  C   UNL     1       2.670  -2.819   2.492  0.00  0.00    +0.005 A 
ATOM     35  C   UNL     1       3.339  -3.198   3.641  0.00  0.00    +0.000 A 
ENDBRANCH  29  33
ENDBRANCH   1  29
TORSDOF 7
