REMARK  Name = ZINC13958629
REMARK  4 active torsions:
REMARK  status: ('A' for Active; 'I' for Inactive)
REMARK    1  A    between atoms: C_1  and  C_2
REMARK    2  A    between atoms: C_5  and  C_27
REMARK    3  A    between atoms: N_12  and  C_13
REMARK    4  A    between atoms: N_18  and  C_20
REMARK                            x       y       z     vdW  Elec       q    Type
REMARK                         _______ _______ _______ _____ _____    ______ ____
ROOT
ATOM      1  C   UNL     1      -4.759   4.298  -0.431  0.00  0.00    +0.101 C 
ATOM      2  C   UNL     1      -4.036   5.542   0.135  0.00  0.00    +0.120 C 
ATOM      3  C   UNL     1      -2.577   5.143   0.165  0.00  0.00    +0.222 C 
ATOM      4  O   UNL     1      -1.648   5.915   0.281  0.00  0.00    -0.275 OA
ATOM      5  N   UNL     1      -2.460   3.810   0.042  0.00  0.00    -0.270 N 
ATOM      6  C   UNL     1      -3.775   3.166  -0.063  0.00  0.00    +0.136 C 
ENDROOT
BRANCH   1  16
ATOM      7  C   UNL     1     -11.636   6.395   0.095  0.00  0.00    +0.009 C 
ATOM      8  C   UNL     1     -10.273   6.000   0.667  0.00  0.00    +0.004 C 
ATOM      9  C   UNL     1     -10.465   5.340   2.035  0.00  0.00    +0.009 C 
ATOM     10  C   UNL     1      -9.100   4.974   2.622  0.00  0.00    +0.004 C 
ATOM     11  C   UNL     1      -8.402   3.973   1.696  0.00  0.00    +0.112 C 
ATOM     12  N   UNL     1      -8.344   4.542   0.343  0.00  0.00    -0.285 N 
ATOM     13  C   UNL     1      -9.588   5.015  -0.279  0.00  0.00    +0.112 C 
ATOM     14  C   UNL     1      -7.170   4.632  -0.313  0.00  0.00    +0.302 C 
ATOM     15  O   UNL     1      -7.118   5.194  -1.390  0.00  0.00    -0.253 OA
ATOM     16  N   UNL     1      -6.054   4.101   0.225  0.00  0.00    -0.294 N 
ATOM     17  C   UNL     1      -9.291   4.345   4.004  0.00  0.00    +0.009 C 
ATOM     18  H   UNL     1      -6.116   3.519   1.156  0.00  0.00    +0.151 HD
ENDBRANCH   1  16
BRANCH   5  19
ATOM     19  C   UNL     1      -1.240   3.123   0.021  0.00  0.00    +0.036 A 
ATOM     20  C   UNL     1      -0.044   3.828   0.017  0.00  0.00    +0.026 A 
ATOM     21  C   UNL     1       1.158   3.149  -0.008  0.00  0.00    +0.040 A 
ATOM     22  C   UNL     1       1.171   1.764  -0.019  0.00  0.00    +0.124 A 
ATOM     23  C   UNL     1      -0.020   1.058  -0.009  0.00  0.00    +0.040 A 
ATOM     24  C   UNL     1      -1.224   1.734   0.011  0.00  0.00    +0.026 A 
ATOM     25  F   UNL     1       2.348   1.101  -0.038  0.00  0.00    -0.205 F 
ENDBRANCH   5  19
TORSDOF 2
