REMARK  Name = ZINC66599879
REMARK  8 active torsions:
REMARK  status: ('A' for Active; 'I' for Inactive)
REMARK    1  A    between atoms: C_1  and  C_2
REMARK    2  A    between atoms: C_2  and  C_3
REMARK    3  A    between atoms: C_3  and  C_4
REMARK    4  A    between atoms: C_4  and  N_5
REMARK    5  A    between atoms: C_10  and  C_12
REMARK    6  A    between atoms: C_12  and  N_13
REMARK    7  A    between atoms: C_19  and  C_22
REMARK    8  A    between atoms: C_22  and  C_23
REMARK                            x       y       z     vdW  Elec       q    Type
REMARK                         _______ _______ _______ _____ _____    ______ ____
ROOT
ATOM      1  N   UNL     1       1.873  -3.740   0.059  0.00  0.00    -0.301 N 
ATOM      2  C   UNL     1       2.372  -4.023  -1.161  0.00  0.00    +0.302 C 
ATOM      3  O   UNL     1       3.322  -4.773  -1.271  0.00  0.00    -0.253 OA
ATOM      4  N   UNL     1       1.817  -3.473  -2.260  0.00  0.00    -0.286 N 
ATOM      5  C   UNL     1       2.271  -3.862  -3.602  0.00  0.00    +0.109 C 
ATOM      6  C   UNL     1       2.653  -2.598  -4.379  0.00  0.00    +0.023 C 
ATOM      7  C   UNL     1       1.472  -1.624  -4.372  0.00  0.00    +0.001 C 
ATOM      8  C   UNL     1       1.145  -1.225  -2.932  0.00  0.00    +0.023 C 
ATOM      9  C   UNL     1       0.743  -2.478  -2.138  0.00  0.00    +0.109 C 
ATOM     10  H   UNL     1       1.163  -3.086   0.152  0.00  0.00    +0.150 HD
ENDROOT
BRANCH   1  11
ATOM     11  C   UNL     1       2.404  -4.420   1.242  0.00  0.00    +0.090 C 
BRANCH  11  17
ATOM     12  N   UNL     1       0.165  -4.267   2.220  0.00  0.00    +0.383 N 
ATOM     13  C   UNL     1      -0.617  -3.952   3.421  0.00  0.00    -0.078 C 
ATOM     14  C   UNL     1      -0.487  -2.462   3.743  0.00  0.00    -0.019 C 
ATOM     15  C   UNL     1       0.987  -2.126   3.989  0.00  0.00    -0.003 C 
ATOM     16  C   UNL     1       1.804  -2.527   2.758  0.00  0.00    -0.014 C 
ATOM     17  C   UNL     1       1.589  -4.015   2.472  0.00  0.00    -0.051 C 
ATOM     18  H   UNL     1      -0.148  -3.687   1.456  0.00  0.00    -0.081 HD
BRANCH  12  19
ATOM     19  C   UNL     1      -0.026  -5.681   1.869  0.00  0.00    -0.078 C 
BRANCH  19  20
ATOM     20  C   UNL     1      -1.489  -5.920   1.493  0.00  0.00    -0.019 C 
BRANCH  20  22
ATOM     21  C   UNL     1      -3.152  -7.632   0.752  0.00  0.00    +0.004 C 
ATOM     22  C   UNL     1      -1.688  -7.392   1.129  0.00  0.00    -0.005 C 
ENDBRANCH  20  22
ENDBRANCH  19  20
ENDBRANCH  12  19
ENDBRANCH  11  17
ENDBRANCH   1  11
BRANCH   7  23
ATOM     23  C   UNL     1       1.837  -0.375  -5.177  0.00  0.00    +0.099 C 
BRANCH  23  24
ATOM     24  C   UNL     1       0.634   0.529  -5.274  0.00  0.00    +0.211 C 
ATOM     25  O   UNL     1      -0.411   0.205  -4.752  0.00  0.00    -0.276 OA
ATOM     26  N   UNL     1       0.721   1.696  -5.942  0.00  0.00    -0.329 N 
ATOM     27  H   UNL     1       1.557   1.955  -6.360  0.00  0.00    +0.145 HD
ATOM     28  H   UNL     1      -0.053   2.278  -6.005  0.00  0.00    +0.145 HD
ENDBRANCH  23  24
ENDBRANCH   7  23
TORSDOF 7
