REMARK  Name = ZINC40034116
REMARK  6 active torsions:
REMARK  status: ('A' for Active; 'I' for Inactive)
REMARK    1  A    between atoms: C_4  and  C_7
REMARK    2  A    between atoms: C_7  and  C_9
REMARK    3  A    between atoms: C_9  and  S_10
REMARK    4  A    between atoms: S_10  and  C_11
REMARK    5  A    between atoms: C_15  and  C_23
REMARK    6  A    between atoms: N_16  and  C_17
REMARK                            x       y       z     vdW  Elec       q    Type
REMARK                         _______ _______ _______ _____ _____    ______ ____
ROOT
ATOM      1  C   UNL     1       4.945  -4.191  -0.002  0.00  0.00    +0.241 C 
ATOM      2  N   UNL     1       4.163  -4.682  -1.149  0.00  0.00    -0.237 N 
ATOM      3  N   UNL     1       3.523  -5.851  -0.722  0.00  0.00    -0.169 NA
ATOM      4  C   UNL     1       3.816  -6.126   0.522  0.00  0.00    +0.151 C 
ATOM      5  N   UNL     1       4.686  -5.172   1.065  0.00  0.00    -0.254 N 
ATOM      6  H   UNL     1       4.103  -4.275  -2.027  0.00  0.00    +0.171 HD
ENDROOT
BRANCH   4   7
ATOM      7  C   UNL     1       3.323  -7.237   1.224  0.00  0.00    +0.022 C 
ATOM      8  C   UNL     1       2.541  -8.275   0.719  0.00  0.00    +0.006 A 
ATOM      9  C   UNL     1       2.022  -8.539  -0.567  0.00  0.00    +0.010 A 
ATOM     10  C   UNL     1       1.275  -9.654  -0.777  0.00  0.00    +0.001 A 
ATOM     11  C   UNL     1       1.002 -10.556   0.254  0.00  0.00    +0.002 A 
ATOM     12  C   UNL     1       1.468 -10.365   1.513  0.00  0.00    +0.026 A 
ATOM     13  C   UNL     1       2.256  -9.223   1.808  0.00  0.00    +0.043 A 
ATOM     14  N   UNL     1       2.818  -8.817   2.931  0.00  0.00    -0.380 N 
ATOM     15  C   UNL     1       3.534  -7.561   2.687  0.00  0.00    +0.152 C 
ATOM     16  H   UNL     1       2.768  -9.279   3.782  0.00  0.00    +0.160 HD
ENDBRANCH   4   7
BRANCH   5  17
ATOM     17  C   UNL     1       5.204  -5.152   2.361  0.00  0.00    +0.038 A 
ATOM     18  C   UNL     1       6.433  -5.744   2.629  0.00  0.00    +0.023 A 
ATOM     19  C   UNL     1       6.943  -5.722   3.912  0.00  0.00    +0.002 A 
ATOM     20  C   UNL     1       6.232  -5.113   4.930  0.00  0.00    +0.000 A 
ATOM     21  C   UNL     1       5.009  -4.523   4.667  0.00  0.00    +0.002 A 
ATOM     22  C   UNL     1       4.496  -4.536   3.385  0.00  0.00    +0.023 A 
ENDBRANCH   5  17
BRANCH   1  23
ATOM     23  S   UNL     1       4.374  -2.544   0.498  0.00  0.00    -0.110 S 
BRANCH  23  24
ATOM     24  C   UNL     1       2.608  -2.777   0.840  0.00  0.00    +0.152 C 
BRANCH  24  25
ATOM     25  C   UNL     1       2.003  -1.466   1.272  0.00  0.00    +0.173 C 
ATOM     26  O   UNL     1       2.694  -0.473   1.341  0.00  0.00    -0.291 OA
BRANCH  25  30
ATOM     27  C   UNL     1      -2.121  -1.252   2.242  0.00  0.00    +0.000 A 
ATOM     28  C   UNL     1      -1.335  -0.116   2.324  0.00  0.00    +0.001 A 
ATOM     29  C   UNL     1       0.006  -0.177   2.010  0.00  0.00    +0.011 A 
ATOM     30  C   UNL     1       0.572  -1.392   1.609  0.00  0.00    +0.018 A 
ATOM     31  C   UNL     1      -0.229  -2.536   1.530  0.00  0.00    +0.011 A 
ATOM     32  C   UNL     1      -1.569  -2.458   1.846  0.00  0.00    +0.001 A 
ENDBRANCH  25  30
ENDBRANCH  24  25
ENDBRANCH  23  24
ENDBRANCH   1  23
TORSDOF 6
