REMARK  Name = ZINC62966547
REMARK  6 active torsions:
REMARK  status: ('A' for Active; 'I' for Inactive)
REMARK    1  A    between atoms: C_1  and  N_2
REMARK    2  A    between atoms: N_2  and  C_3
REMARK    3  A    between atoms: N_2  and  C_4
REMARK    4  A    between atoms: N_8  and  C_10
REMARK    5  A    between atoms: C_10  and  C_11
REMARK    6  A    between atoms: C_11  and  C_13
REMARK                            x       y       z     vdW  Elec       q    Type
REMARK                         _______ _______ _______ _____ _____    ______ ____
ROOT
ATOM      1  C   UNL     1      -4.166  -4.044  -1.637  0.00  0.00    +0.212 C 
ATOM      2  O   UNL     1      -5.059  -3.241  -1.457  0.00  0.00    -0.287 OA
ENDROOT
BRANCH   1   3
ATOM      3  C   UNL     1      -4.449  -5.298  -2.233  0.00  0.00    +0.173 A 
ATOM      4  C   UNL     1      -5.678  -5.712  -2.649  0.00  0.00    +0.061 A 
ATOM      5  C   UNL     1      -5.515  -7.016  -3.181  0.00  0.00    +0.021 A 
ATOM      6  C   UNL     1      -6.391  -7.945  -3.752  0.00  0.00    +0.011 A 
ATOM      7  C   UNL     1      -5.915  -9.151  -4.181  0.00  0.00    +0.001 A 
ATOM      8  C   UNL     1      -4.568  -9.462  -4.055  0.00  0.00    +0.004 A 
ATOM      9  C   UNL     1      -3.687  -8.562  -3.496  0.00  0.00    +0.047 A 
ATOM     10  C   UNL     1      -4.148  -7.327  -3.052  0.00  0.00    +0.136 A 
ATOM     11  O   UNL     1      -3.541  -6.267  -2.483  0.00  0.00    -0.452 OA
ENDBRANCH   1   3
BRANCH   1  12
ATOM     12  C   UNL     1      -2.756  -3.706  -1.226  0.00  0.00    +0.167 C 
BRANCH  12  16
ATOM     13  C   UNL     1      -1.376  -0.512   0.012  0.00  0.00    -0.054 C 
ATOM     14  C   UNL     1      -2.122  -0.097  -1.276  0.00  0.00    +0.001 C 
ATOM     15  C   UNL     1      -2.964  -1.326  -1.667  0.00  0.00    +0.083 C 
ATOM     16  N   UNL     1      -2.726  -2.360  -0.637  0.00  0.00    -0.297 NA
ATOM     17  C   UNL     1      -1.390  -2.060  -0.058  0.00  0.00    +0.069 C 
BRANCH  13  19
ATOM     18  C   UNL     1      -0.018   1.465   0.010  0.00  0.00    -0.096 C 
ATOM     19  N   UNL     1       0.002  -0.004   0.002  0.00  0.00    +0.379 N 
ATOM     20  C   UNL     1       0.713  -0.491   1.192  0.00  0.00    -0.096 C 
ATOM     21  H   UNL     1       0.474  -0.330  -0.828  0.00  0.00    -0.082 HD
ENDBRANCH  13  19
ENDBRANCH  12  16
ENDBRANCH   1  12
TORSDOF 4
