REMARK  Name = ZINC43942507
REMARK  6 active torsions:
REMARK  status: ('A' for Active; 'I' for Inactive)
REMARK    1  A    between atoms: C_8  and  C_10
REMARK    2  A    between atoms: C_15  and  C_18
REMARK    3  A    between atoms: C_18  and  N_19
REMARK    4  A    between atoms: C_20  and  C_22
REMARK    5  A    between atoms: N_24  and  C_25
REMARK    6  A    between atoms: C_30  and  C_31
REMARK                            x       y       z     vdW  Elec       q    Type
REMARK                         _______ _______ _______ _____ _____    ______ ____
ROOT
ATOM      1  C   UNL     1       9.081  -2.885   1.623  0.00  0.00    +0.108 C 
ENDROOT
BRANCH   1   7
ATOM      2  C   UNL     1       4.017  -2.905  -0.394  0.00  0.00    +0.282 C 
ATOM      3  O   UNL     1       3.453  -3.980  -0.312  0.00  0.00    -0.267 OA
ATOM      4  N   UNL     1       5.363  -2.853  -0.445  0.00  0.00    -0.295 N 
ATOM      5  C   UNL     1       6.065  -1.564  -0.373  0.00  0.00    +0.108 C 
ATOM      6  C   UNL     1       7.104  -1.631   0.750  0.00  0.00    +0.024 C 
ATOM      7  C   UNL     1       8.021  -2.835   0.521  0.00  0.00    +0.009 C 
ATOM      8  C   UNL     1       7.193  -4.122   0.551  0.00  0.00    +0.024 C 
ATOM      9  C   UNL     1       6.155  -4.083  -0.569  0.00  0.00    +0.108 C 
BRANCH   2  17
ATOM     10  C   UNL     1       0.376   1.915  -0.466  0.00  0.00    +0.001 A 
ATOM     11  C   UNL     1       1.570   2.574  -0.730  0.00  0.00    +0.004 A 
ATOM     12  C   UNL     1       2.754   1.876  -0.818  0.00  0.00    +0.047 A 
ATOM     13  C   UNL     1       2.760   0.497  -0.642  0.00  0.00    +0.136 A 
ATOM     14  C   UNL     1       1.547  -0.166  -0.375  0.00  0.00    +0.021 A 
ATOM     15  C   UNL     1       0.357   0.561  -0.289  0.00  0.00    +0.011 A 
ATOM     16  C   UNL     1       1.889  -1.581  -0.244  0.00  0.00    +0.063 A 
ATOM     17  C   UNL     1       3.231  -1.664  -0.435  0.00  0.00    +0.191 A 
ATOM     18  O   UNL     1       3.734  -0.433  -0.669  0.00  0.00    -0.450 OA
ENDBRANCH   2  17
ENDBRANCH   1   7
BRANCH   1  19
ATOM     19  N   UNL     1      10.030  -3.964   1.338  0.00  0.00    -0.307 N 
ATOM     20  C   UNL     1      11.057  -4.197   2.179  0.00  0.00    +0.299 C 
ATOM     21  O   UNL     1      11.197  -3.513   3.172  0.00  0.00    -0.265 OA
ATOM     22  H   UNL     1       9.919  -4.511   0.545  0.00  0.00    +0.149 HD
BRANCH  20  23
ATOM     23  C   UNL     1      12.025  -5.298   1.889  0.00  0.00    +0.303 C 
ATOM     24  O   UNL     1      11.886  -5.982   0.897  0.00  0.00    -0.265 OA
ATOM     25  N   UNL     1      13.052  -5.531   2.730  0.00  0.00    -0.277 N 
ATOM     26  H   UNL     1      13.109  -5.051   3.571  0.00  0.00    +0.155 HD
BRANCH  25  27
ATOM     27  C   UNL     1      14.035  -6.463   2.390  0.00  0.00    +0.045 A 
ATOM     28  C   UNL     1      14.218  -6.830   1.062  0.00  0.00    +0.024 A 
ATOM     29  C   UNL     1      15.191  -7.751   0.730  0.00  0.00    +0.002 A 
ATOM     30  C   UNL     1      15.983  -8.310   1.716  0.00  0.00    +0.001 A 
ATOM     31  C   UNL     1      15.803  -7.948   3.039  0.00  0.00    +0.014 A 
ATOM     32  C   UNL     1      14.836  -7.022   3.378  0.00  0.00    +0.076 A 
BRANCH  32  33
ATOM     33  C   UNL     1      14.646  -6.623   4.819  0.00  0.00    +0.419 C 
ATOM     34  F   UNL     1      15.562  -7.315   5.619  0.00  0.00    -0.166 F 
ATOM     35  F   UNL     1      14.856  -5.247   4.953  0.00  0.00    -0.166 F 
ATOM     36  F   UNL     1      13.344  -6.938   5.222  0.00  0.00    -0.166 F 
ENDBRANCH  32  33
ENDBRANCH  25  27
ENDBRANCH  20  23
ENDBRANCH   1  19
TORSDOF 6
