REMARK  Name = ZINC63834421
REMARK  11 active torsions:
REMARK  status: ('A' for Active; 'I' for Inactive)
REMARK    1  A    between atoms: C_1  and  C_2
REMARK    2  A    between atoms: C_3  and  C_8
REMARK    3  A    between atoms: C_4  and  C_7
REMARK    4  A    between atoms: C_8  and  O_9
REMARK    5  A    between atoms: O_9  and  C_10
REMARK    6  A    between atoms: C_15  and  C_16
REMARK    7  A    between atoms: N_18  and  C_19
REMARK    8  A    between atoms: C_19  and  C_20
REMARK    9  A    between atoms: N_23  and  C_25
REMARK   10  A    between atoms: C_25  and  C_26
REMARK   11  A    between atoms: C_25  and  C_27
REMARK                            x       y       z     vdW  Elec       q    Type
REMARK                         _______ _______ _______ _____ _____    ______ ____
ROOT
ATOM      1  C   UNL     1       1.503   0.248  -4.306  0.00  0.00    +0.133 A 
ATOM      2  C   UNL     1       0.398   0.506  -5.103  0.00  0.00    +0.046 A 
ATOM      3  C   UNL     1       0.568   0.941  -6.403  0.00  0.00    +0.004 A 
ATOM      4  C   UNL     1       1.841   1.122  -6.920  0.00  0.00    +0.001 A 
ATOM      5  C   UNL     1       2.950   0.871  -6.142  0.00  0.00    +0.017 A 
ATOM      6  C   UNL     1       2.792   0.437  -4.823  0.00  0.00    +0.078 A 
ENDROOT
BRANCH   6   7
ATOM      7  C   UNL     1       3.975   0.171  -3.983  0.00  0.00    +0.248 C 
ATOM      8  O   UNL     1       3.834  -0.212  -2.838  0.00  0.00    -0.270 OA
ATOM      9  N   UNL     1       5.213   0.354  -4.484  0.00  0.00    -0.311 N 
ATOM     10  H   UNL     1       5.325   0.659  -5.398  0.00  0.00    +0.149 HD
BRANCH   9  11
ATOM     11  C   UNL     1       6.388   0.090  -3.650  0.00  0.00    +0.106 C 
BRANCH  11  12
ATOM     12  C   UNL     1       7.658   0.373  -4.454  0.00  0.00    -0.012 C 
ATOM     13  C   UNL     1       7.834  -0.682  -5.569  0.00  0.00    -0.015 C 
ATOM     14  C   UNL     1       9.362  -0.940  -5.565  0.00  0.00    -0.078 C 
ATOM     15  N   UNL     1       9.713  -0.877  -4.123  0.00  0.00    +0.381 N 
ATOM     16  C   UNL     1       8.902   0.223  -3.558  0.00  0.00    -0.074 C 
ATOM     17  H   UNL     1       9.481  -1.748  -3.670  0.00  0.00    -0.081 HD
BRANCH  15  18
ATOM     18  C   UNL     1      11.144  -0.585  -3.963  0.00  0.00    -0.075 C 
ATOM     19  C   UNL     1      11.481  -0.489  -2.473  0.00  0.00    -0.014 C 
ATOM     20  C   UNL     1      11.967  -1.706  -4.601  0.00  0.00    -0.014 C 
ENDBRANCH  15  18
ENDBRANCH  11  12
ENDBRANCH   9  11
ENDBRANCH   6   7
BRANCH   1  21
ATOM     21  O   UNL     1       1.338  -0.179  -3.029  0.00  0.00    -0.486 OA
BRANCH  21  22
ATOM     22  C   UNL     1      -0.005  -0.348  -2.571  0.00  0.00    +0.269 C 
BRANCH  22  25
ATOM     23  C   UNL     1      -0.018   1.503   0.010  0.00  0.00    +0.069 C 
ATOM     24  C   UNL     1       0.002  -0.004   0.002  0.00  0.00    +0.087 A 
ATOM     25  C   UNL     1       0.008  -0.824  -1.141  0.00  0.00    +0.054 A 
ATOM     26  C   UNL     1       0.027  -2.108  -0.735  0.00  0.00    +0.141 A 
ATOM     27  O   UNL     1       0.034  -2.119   0.606  0.00  0.00    -0.359 OA
ATOM     28  N   UNL     1       0.023  -0.775   1.052  0.00  0.00    -0.083 NA
ATOM     29  C   UNL     1       0.039  -3.320  -1.631  0.00  0.00    +0.089 C 
ENDBRANCH  22  25
ENDBRANCH  21  22
ENDBRANCH   1  21
TORSDOF 7
