REMARK  Name = ZINC37423175
REMARK  4 active torsions:
REMARK  status: ('A' for Active; 'I' for Inactive)
REMARK    1  A    between atoms: C_1  and  C_2
REMARK    2  A    between atoms: C_2  and  C_3
REMARK    3  A    between atoms: C_2  and  N_4
REMARK    4  A    between atoms: C_15  and  C_17
REMARK                            x       y       z     vdW  Elec       q    Type
REMARK                         _______ _______ _______ _____ _____    ______ ____
ROOT
ATOM      1  N   UNL     1       2.892  -0.229  -0.046  0.00  0.00    -0.297 N 
ATOM      2  C   UNL     1       2.111  -0.566  -1.091  0.00  0.00    +0.303 C 
ATOM      3  O   UNL     1       0.900  -0.549  -0.976  0.00  0.00    -0.253 OA
ATOM      4  N   UNL     1       2.671  -0.924  -2.263  0.00  0.00    -0.271 N 
ATOM      5  C   UNL     1       1.843  -1.190  -3.448  0.00  0.00    +0.132 C 
ATOM      6  C   UNL     1       2.163  -0.156  -4.533  0.00  0.00    +0.140 C 
ATOM      7  N   UNL     1       3.618  -0.023  -4.658  0.00  0.00    -0.347 N 
ATOM      8  C   UNL     1       4.303   0.502  -5.711  0.00  0.00    +0.086 A 
ATOM      9  C   UNL     1       5.622   0.448  -5.426  0.00  0.00    +0.019 A 
ATOM     10  C   UNL     1       5.756  -0.135  -4.149  0.00  0.00    +0.025 A 
ATOM     11  C   UNL     1       4.520  -0.415  -3.707  0.00  0.00    +0.044 A 
ATOM     12  C   UNL     1       4.134  -1.053  -2.397  0.00  0.00    +0.158 C 
ATOM     13  H   UNL     1       3.856  -0.313  -0.113  0.00  0.00    +0.150 HD
ENDROOT
BRANCH  12  14
ATOM     14  C   UNL     1       4.523  -2.509  -2.405  0.00  0.00    +0.017 A 
ATOM     15  C   UNL     1       3.946  -3.531  -3.193  0.00  0.00    +0.047 A 
ATOM     16  C   UNL     1       4.592  -4.671  -2.887  0.00  0.00    +0.195 A 
ATOM     17  O   UNL     1       5.523  -4.395  -1.959  0.00  0.00    -0.471 OA
ATOM     18  C   UNL     1       5.490  -3.084  -1.667  0.00  0.00    +0.200 A 
ENDBRANCH  12  14
BRANCH   1  20
ATOM     19  C   UNL     1       1.876  -0.919   2.070  0.00  0.00    +0.027 C 
ATOM     20  C   UNL     1       2.285   0.267   1.192  0.00  0.00    +0.068 C 
ATOM     21  C   UNL     1       3.296   1.133   1.945  0.00  0.00    +0.027 C 
ENDBRANCH   1  20
TORSDOF 2
