REMARK  Name = ZINC17857774
REMARK  3 active torsions:
REMARK  status: ('A' for Active; 'I' for Inactive)
REMARK    1  A    between atoms: C_1  and  C_2
REMARK    2  A    between atoms: N_13  and  C_16
REMARK    3  A    between atoms: C_21  and  O_22
REMARK                            x       y       z     vdW  Elec       q    Type
REMARK                         _______ _______ _______ _____ _____    ______ ____
ROOT
ATOM      1  C   UNL     1      -0.019   1.526   0.010  0.00  0.00    +0.012 C 
ATOM      2  C   UNL     1       0.002  -0.004   0.002  0.00  0.00    +0.021 C 
ATOM      3  C   UNL     1      -1.406  -0.502   0.087  0.00  0.00    -0.027 C 
ATOM      4  C   UNL     1      -1.783  -1.427   0.906  0.00  0.00    -0.030 C 
ATOM      5  C   UNL     1      -0.901  -2.091   1.905  0.00  0.00    +0.040 C 
ATOM      6  C   UNL     1       0.591  -1.902   1.619  0.00  0.00    +0.092 C 
ATOM      7  C   UNL     1       0.871  -0.476   1.121  0.00  0.00    +0.095 C 
ATOM      8  C   UNL     1       0.847   0.333   2.387  0.00  0.00    +0.231 C 
ATOM      9  O   UNL     1       0.573   1.509   2.493  0.00  0.00    -0.274 OA
ATOM     10  N   UNL     1       1.192  -0.512   3.383  0.00  0.00    -0.206 N 
ATOM     11  C   UNL     1       1.248  -1.806   3.006  0.00  0.00    +0.230 C 
ATOM     12  O   UNL     1       1.721  -2.722   3.643  0.00  0.00    -0.274 OA
ENDROOT
BRANCH  10  13
ATOM     13  C   UNL     1       1.475  -0.082   4.689  0.00  0.00    +0.085 A 
ATOM     14  C   UNL     1       0.459  -0.002   5.630  0.00  0.00    +0.029 A 
ATOM     15  C   UNL     1       0.738   0.421   6.915  0.00  0.00    +0.022 A 
ATOM     16  C   UNL     1       2.031   0.768   7.267  0.00  0.00    +0.045 A 
ATOM     17  C   UNL     1       3.049   0.691   6.334  0.00  0.00    +0.067 A 
ATOM     18  C   UNL     1       2.777   0.261   5.045  0.00  0.00    +0.140 A 
ATOM     19 CL   UNL     1       2.375   1.301   8.883  0.00  0.00    -0.083 Cl
BRANCH  18  20
ATOM     20  O   UNL     1       3.778   0.179   4.129  0.00  0.00    -0.505 OA
ATOM     21  H   UNL     1       3.914   0.990   3.621  0.00  0.00    +0.292 HD
ENDBRANCH  18  20
ENDBRANCH  10  13
TORSDOF 2
