REMARK  Name = ZINC39589859
REMARK  3 active torsions:
REMARK  status: ('A' for Active; 'I' for Inactive)
REMARK    1  A    between atoms: C_4  and  N_7
REMARK    2  A    between atoms: C_13  and  S_17
REMARK    3  A    between atoms: S_17  and  C_18
REMARK                            x       y       z     vdW  Elec       q    Type
REMARK                         _______ _______ _______ _____ _____    ______ ____
ROOT
ATOM      1  N   UNL     1       3.622  -0.650  -0.037  0.00  0.00    -0.194 N 
ATOM      2  C   UNL     1       3.755  -1.994  -0.051  0.00  0.00    +0.284 A 
ATOM      3  O   UNL     1       2.857  -2.821  -0.052  0.00  0.00    -0.265 OA
ATOM      4  C   UNL     1       5.190  -2.258  -0.066  0.00  0.00    +0.106 A 
ATOM      5  C   UNL     1       5.980  -3.388  -0.091  0.00  0.00    +0.037 A 
ATOM      6  N   UNL     1       7.315  -3.248  -0.078  0.00  0.00    -0.323 N 
ATOM      7  C   UNL     1       7.882  -1.992  -0.089  0.00  0.00    +0.172 A 
ATOM      8  N   UNL     1       7.190  -0.883  -0.077  0.00  0.00    -0.202 NA
ATOM      9  C   UNL     1       5.834  -0.928  -0.060  0.00  0.00    +0.190 A 
ATOM     10  N   UNL     1       4.877  -0.037  -0.047  0.00  0.00    -0.143 NA
ATOM     11  C   UNL     1       8.254  -4.378  -0.033  0.00  0.00    +0.124 C 
ATOM     12  C   UNL     1       7.685  -5.619  -0.717  0.00  0.00    +0.022 C 
ATOM     13  C   UNL     1       6.969  -6.472   0.336  0.00  0.00    +0.002 C 
ATOM     14  C   UNL     1       5.836  -5.655   0.951  0.00  0.00    +0.006 C 
ATOM     15  C   UNL     1       5.295  -4.726  -0.140  0.00  0.00    +0.054 C 
ENDROOT
BRANCH   1  19
ATOM     16  C   UNL     1      -0.017   1.379   0.010  0.00  0.00    +0.000 A 
ATOM     17  C   UNL     1       1.170   2.090   0.002  0.00  0.00    +0.002 A 
ATOM     18  C   UNL     1       2.377   1.420  -0.013  0.00  0.00    +0.028 A 
ATOM     19  C   UNL     1       2.400   0.031  -0.021  0.00  0.00    +0.069 A 
ATOM     20  C   UNL     1       1.206  -0.680  -0.013  0.00  0.00    +0.028 A 
ATOM     21  C   UNL     1       0.002  -0.004   0.002  0.00  0.00    +0.002 A 
ENDBRANCH   1  19
BRANCH   7  22
ATOM     22  S   UNL     1       9.640  -1.874  -0.121  0.00  0.00    -0.077 S 
BRANCH  22  23
ATOM     23  C   UNL     1       9.960  -0.088  -0.128  0.00  0.00    +0.120 C 
ATOM     24  C   UNL     1      11.469   0.165  -0.039  0.00  0.00    +0.022 C 
ATOM     25  C   UNL     1      11.742   1.662  -0.188  0.00  0.00    +0.002 C 
ATOM     26  C   UNL     1      11.307   2.134  -1.576  0.00  0.00    +0.008 C 
ATOM     27  C   UNL     1       9.792   1.955  -1.723  0.00  0.00    +0.075 C 
ATOM     28  C   UNL     1       9.442   0.516  -1.415  0.00  0.00    +0.147 C 
ATOM     29  O   UNL     1       8.771  -0.136  -2.178  0.00  0.00    -0.296 OA
ENDBRANCH  22  23
ENDBRANCH   7  22
TORSDOF 3
