REMARK  Name = ZINC65265795
REMARK  5 active torsions:
REMARK  status: ('A' for Active; 'I' for Inactive)
REMARK    1  A    between atoms: C_1  and  O_2
REMARK    2  A    between atoms: O_2  and  C_3
REMARK    3  A    between atoms: C_3  and  C_4
REMARK    4  A    between atoms: C_4  and  N_5
REMARK    5  A    between atoms: C_21  and  C_23
REMARK                            x       y       z     vdW  Elec       q    Type
REMARK                         _______ _______ _______ _____ _____    ______ ____
ROOT
ATOM      1  N   UNL     1       1.386  -2.585  -0.158  0.00  0.00    -0.373 N 
ATOM      2  C   UNL     1       1.495  -3.838  -0.458  0.00  0.00    +0.095 C 
ATOM      3  N   UNL     1       0.894  -4.815   0.298  0.00  0.00    -0.303 N 
ATOM      4  C   UNL     1      -0.394  -5.225  -0.034  0.00  0.00    +0.037 A 
ATOM      5  C   UNL     1      -1.350  -5.381   0.959  0.00  0.00    +0.023 A 
ATOM      6  C   UNL     1      -2.625  -5.801   0.635  0.00  0.00    +0.002 A 
ATOM      7  C   UNL     1      -2.938  -6.066  -0.686  0.00  0.00    +0.000 A 
ATOM      8  C   UNL     1      -1.989  -5.906  -1.673  0.00  0.00    +0.007 A 
ATOM      9  C   UNL     1      -0.702  -5.475  -1.365  0.00  0.00    -0.012 A 
ATOM     10  C   UNL     1       0.249  -5.295  -2.520  0.00  0.00    +0.119 C 
ATOM     11  N   UNL     1       1.649  -5.536  -2.147  0.00  0.00    -0.299 NA
ATOM     12  C   UNL     1       2.273  -4.294  -1.645  0.00  0.00    +0.091 C 
ATOM     13  C   UNL     1       2.294  -3.226  -2.754  0.00  0.00    +0.050 C 
ATOM     14  C   UNL     1       3.586  -3.607  -3.524  0.00  0.00    +0.110 C 
ATOM     15  N   UNL     1       4.526  -4.069  -2.484  0.00  0.00    -0.295 N 
ATOM     16  C   UNL     1       3.750  -4.528  -1.319  0.00  0.00    +0.137 C 
ATOM     17  C   UNL     1       5.870  -4.071  -2.584  0.00  0.00    +0.247 C 
ATOM     18  O   UNL     1       6.550  -4.376  -1.625  0.00  0.00    -0.270 OA
ATOM     19  H   UNL     1       1.817  -1.914  -0.711  0.00  0.00    +0.161 HD
ATOM     20  H   UNL     1       1.720  -6.279  -1.469  0.00  0.00    +0.123 HD
ATOM     21  H   UNL     1       1.359  -5.212   1.051  0.00  0.00    +0.153 HD
ENDROOT
BRANCH  17  22
ATOM     22  C   UNL     1       6.516  -3.701  -3.861  0.00  0.00    +0.038 A 
ATOM     23  C   UNL     1       7.824  -3.212  -3.869  0.00  0.00    +0.013 A 
ATOM     24  C   UNL     1       8.422  -2.869  -5.064  0.00  0.00    +0.002 A 
ATOM     25  C   UNL     1       7.730  -3.009  -6.253  0.00  0.00    +0.020 A 
ATOM     26  C   UNL     1       6.433  -3.493  -6.253  0.00  0.00    +0.042 A 
ATOM     27  C   UNL     1       5.824  -3.845  -5.065  0.00  0.00    +0.033 A 
ATOM     28 CL   UNL     1       5.572  -3.664  -7.751  0.00  0.00    -0.084 Cl
ENDBRANCH  17  22
BRANCH   1  29
ATOM     29  C   UNL     1       0.612  -2.177   1.018  0.00  0.00    +0.141 C 
BRANCH  29  30
ATOM     30  C   UNL     1       0.642  -0.653   1.145  0.00  0.00    +0.180 C 
BRANCH  30  32
ATOM     31  C   UNL     1      -0.059   1.360   0.050  0.00  0.00    +0.194 C 
ATOM     32  O   UNL     1      -0.030  -0.068   0.028  0.00  0.00    -0.381 OA
ENDBRANCH  30  32
ENDBRANCH  29  30
ENDBRANCH   1  29
TORSDOF 4
