REMARK  Name = ZINC37140054
REMARK  6 active torsions:
REMARK  status: ('A' for Active; 'I' for Inactive)
REMARK    1  A    between atoms: C_1  and  C_2
REMARK    2  A    between atoms: C_5  and  C_8
REMARK    3  A    between atoms: C_8  and  C_10
REMARK    4  A    between atoms: C_8  and  N_11
REMARK    5  A    between atoms: N_11  and  C_12
REMARK    6  A    between atoms: C_17  and  N_18
REMARK                            x       y       z     vdW  Elec       q    Type
REMARK                         _______ _______ _______ _____ _____    ______ ____
ROOT
ATOM      1  N   UNL     1      -1.277  -4.615   0.859  0.00  0.00    -0.336 N 
ATOM      2  H   UNL     1      -1.485  -4.075   1.637  0.00  0.00    +0.147 HD
ENDROOT
BRANCH   1   3
ATOM      3  C   UNL     1      -1.610  -5.972   0.841  0.00  0.00    +0.058 A 
ATOM      4  C   UNL     1      -1.421  -6.720  -0.314  0.00  0.00    +0.026 A 
ATOM      5  C   UNL     1      -1.751  -8.061  -0.329  0.00  0.00    +0.017 A 
ATOM      6  C   UNL     1      -2.270  -8.659   0.806  0.00  0.00    +0.020 A 
ATOM      7  C   UNL     1      -2.460  -7.917   1.958  0.00  0.00    +0.050 A 
ATOM      8  C   UNL     1      -2.126  -6.577   1.980  0.00  0.00    +0.148 A 
ATOM      9 BR   UNL     1      -2.722 -10.495   0.782  0.00  0.00    -0.050 Br
BRANCH   8  10
ATOM     10  N   UNL     1      -2.323  -5.784   3.215  0.00  0.00    +0.058 N 
ATOM     11  O   UNL     1      -1.519  -4.936   3.524  0.00  0.00    -0.126 OA
ATOM     12  O   UNL     1      -3.288  -5.985   3.914  0.00  0.00    -0.126 OA
ENDBRANCH   8  10
ENDBRANCH   1   3
BRANCH   1  13
ATOM     13  C   UNL     1      -0.613  -4.009  -0.298  0.00  0.00    +0.098 C 
ATOM     14  C   UNL     1       0.897  -4.230  -0.194  0.00  0.00    +0.033 C 
BRANCH  13  19
ATOM     15  C   UNL     1      -1.728   1.661  -0.403  0.00  0.00    +0.044 C 
ATOM     16  C   UNL     1      -1.437   0.182  -0.376  0.00  0.00    -0.050 A 
ATOM     17  C   UNL     1      -1.426  -0.542  -1.553  0.00  0.00    +0.004 A 
ATOM     18  C   UNL     1      -1.159  -1.898  -1.528  0.00  0.00    +0.006 A 
ATOM     19  C   UNL     1      -0.903  -2.530  -0.326  0.00  0.00    -0.028 A 
ATOM     20  C   UNL     1      -0.913  -1.806   0.852  0.00  0.00    +0.006 A 
ATOM     21  C   UNL     1      -1.176  -0.449   0.826  0.00  0.00    +0.004 A 
ENDBRANCH  13  19
ENDBRANCH   1  13
TORSDOF 4
