REMARK  Name = ZINC39678613
REMARK  8 active torsions:
REMARK  status: ('A' for Active; 'I' for Inactive)
REMARK    1  A    between atoms: C_1  and  C_2
REMARK    2  A    between atoms: C_2  and  C_3
REMARK    3  A    between atoms: C_2  and  O_4
REMARK    4  A    between atoms: O_4  and  C_5
REMARK    5  A    between atoms: C_5  and  C_7
REMARK    6  A    between atoms: C_7  and  N_8
REMARK    7  A    between atoms: C_9  and  C_11
REMARK    8  A    between atoms: C_22  and  C_24
REMARK                            x       y       z     vdW  Elec       q    Type
REMARK                         _______ _______ _______ _____ _____    ______ ____
ROOT
ATOM      1  C   UNL     1      -4.026  -5.569  -2.209  0.00  0.00    +0.100 C 
ATOM      2  C   UNL     1      -3.044  -6.549  -1.530  0.00  0.00    +0.121 C 
ATOM      3  N   UNL     1      -3.888  -7.350  -0.612  0.00  0.00    -0.296 N 
ATOM      4  C   UNL     1      -5.140  -7.582  -1.371  0.00  0.00    +0.115 C 
ATOM      5  C   UNL     1      -5.400  -6.252  -2.106  0.00  0.00    -0.004 C 
ATOM      6  C   UNL     1      -6.362  -5.385  -1.299  0.00  0.00    -0.010 C 
ATOM      7  C   UNL     1      -7.737  -6.058  -1.259  0.00  0.00    -0.082 C 
ATOM      8  N   UNL     1      -8.237  -6.236  -2.627  0.00  0.00    +0.379 N 
ATOM      9  C   UNL     1      -7.355  -7.146  -3.369  0.00  0.00    -0.082 C 
ATOM     10  C   UNL     1      -5.964  -6.519  -3.498  0.00  0.00    -0.010 C 
ATOM     11  C   UNL     1      -3.586  -7.772   0.632  0.00  0.00    +0.248 C 
ATOM     12  O   UNL     1      -2.550  -7.417   1.159  0.00  0.00    -0.270 OA
ATOM     13  H   UNL     1      -9.168  -6.624  -2.596  0.00  0.00    -0.086 HD
ATOM     14  H   UNL     1      -8.263  -5.342  -3.093  0.00  0.00    -0.086 HD
ENDROOT
BRANCH  11  15
ATOM     15  C   UNL     1      -4.514  -8.666   1.354  0.00  0.00    +0.055 A 
ATOM     16  C   UNL     1      -5.243  -9.632   0.656  0.00  0.00    +0.016 A 
ATOM     17  C   UNL     1      -6.107 -10.463   1.336  0.00  0.00    +0.021 A 
ATOM     18  C   UNL     1      -6.255 -10.342   2.709  0.00  0.00    +0.042 A 
ATOM     19  C   UNL     1      -5.535  -9.388   3.407  0.00  0.00    +0.040 A 
ATOM     20  C   UNL     1      -4.661  -8.553   2.739  0.00  0.00    +0.054 A 
ATOM     21 CL   UNL     1      -3.754  -7.361   3.616  0.00  0.00    -0.083 Cl
ATOM     22 CL   UNL     1      -7.346 -11.393   3.556  0.00  0.00    -0.083 Cl
ENDBRANCH  11  15
BRANCH   1  24
ATOM     23  N   UNL     1      -4.289  -3.110  -2.152  0.00  0.00    -0.305 N 
ATOM     24  C   UNL     1      -4.040  -4.250  -1.479  0.00  0.00    +0.219 C 
ATOM     25  O   UNL     1      -3.826  -4.215  -0.286  0.00  0.00    -0.275 OA
ATOM     26  H   UNL     1      -4.460  -3.138  -3.107  0.00  0.00    +0.149 HD
BRANCH  23  27
ATOM     27  C   UNL     1      -4.303  -1.828  -1.443  0.00  0.00    +0.224 C 
BRANCH  27  28
ATOM     28  C   UNL     1      -4.604  -0.718  -2.417  0.00  0.00    +0.325 C 
ATOM     29  O   UNL     1      -4.788  -0.972  -3.584  0.00  0.00    -0.249 OA
BRANCH  28  30
ATOM     30  O   UNL     1      -4.667   0.552  -1.988  0.00  0.00    -0.461 OA
BRANCH  30  32
ATOM     31  C   UNL     1      -5.702   2.713  -2.302  0.00  0.00    +0.052 C 
ATOM     32  C   UNL     1      -4.957   1.553  -2.966  0.00  0.00    +0.170 C 
ATOM     33  C   UNL     1      -3.649   2.067  -3.572  0.00  0.00    +0.052 C 
ENDBRANCH  30  32
ENDBRANCH  28  30
ENDBRANCH  27  28
ENDBRANCH  23  27
ENDBRANCH   1  24
TORSDOF 6
