REMARK  Name = ZINC09723936
REMARK  5 active torsions:
REMARK  status: ('A' for Active; 'I' for Inactive)
REMARK    1  A    between atoms: C_4  and  N_7
REMARK    2  A    between atoms: C_8  and  C_15
REMARK    3  A    between atoms: C_10  and  C_12
REMARK    4  A    between atoms: N_20  and  S_23
REMARK    5  A    between atoms: S_23  and  C_26
REMARK                            x       y       z     vdW  Elec       q    Type
REMARK                         _______ _______ _______ _____ _____    ______ ____
ROOT
ATOM      1  C   UNL     1       2.901  -2.745   1.204  0.00  0.00    +0.265 C 
ATOM      2  O   UNL     1       3.272  -3.780   1.725  0.00  0.00    -0.268 OA
ATOM      3  N   UNL     1       1.596  -2.409   1.229  0.00  0.00    -0.294 N 
ATOM      4  C   UNL     1       1.107  -1.254   0.463  0.00  0.00    +0.125 C 
ATOM      5  C   UNL     1      -0.025  -1.721  -0.460  0.00  0.00    +0.128 C 
ATOM      6  N   UNL     1      -0.985  -2.504   0.332  0.00  0.00    -0.174 NA
ATOM      7  C   UNL     1      -0.495  -3.659   1.098  0.00  0.00    +0.128 C 
ATOM      8  C   UNL     1       0.636  -3.194   2.017  0.00  0.00    +0.125 C 
ENDROOT
BRANCH   1  10
ATOM      9  N   UNL     1       5.089  -2.228   0.030  0.00  0.00    -0.227 N 
ATOM     10  C   UNL     1       3.876  -1.861   0.547  0.00  0.00    +0.129 A 
ATOM     11  C   UNL     1       3.741  -0.503   0.336  0.00  0.00    +0.058 A 
ATOM     12  C   UNL     1       4.889  -0.060  -0.316  0.00  0.00    +0.067 A 
ATOM     13  N   UNL     1       5.694  -1.079  -0.493  0.00  0.00    -0.170 NA
BRANCH   9  17
ATOM     14  C   UNL     1       6.702  -6.071   0.031  0.00  0.00    +0.000 A 
ATOM     15  C   UNL     1       6.680  -5.332  -1.138  0.00  0.00    +0.002 A 
ATOM     16  C   UNL     1       6.146  -4.058  -1.141  0.00  0.00    +0.028 A 
ATOM     17  C   UNL     1       5.631  -3.520   0.030  0.00  0.00    +0.066 A 
ATOM     18  C   UNL     1       5.653  -4.265   1.202  0.00  0.00    +0.028 A 
ATOM     19  C   UNL     1       6.189  -5.538   1.199  0.00  0.00    +0.002 A 
ENDBRANCH   9  17
BRANCH  12  20
ATOM     20  C   UNL     1       5.163   1.359  -0.742  0.00  0.00    +0.040 C 
ATOM     21  C   UNL     1       3.977   2.323  -0.793  0.00  0.00    +0.010 C 
ATOM     22  C   UNL     1       4.605   1.812  -2.092  0.00  0.00    +0.010 C 
ENDBRANCH  12  20
ENDBRANCH   1  10
BRANCH   6  23
ATOM     23  S   UNL     1      -2.588  -2.091   0.362  0.00  0.00    +0.061 S 
ATOM     24  O   UNL     1      -3.120  -2.616   1.570  0.00  0.00    -0.153 OA
ATOM     25  O   UNL     1      -2.658  -0.709   0.037  0.00  0.00    -0.153 OA
BRANCH  23  26
ATOM     26  C   UNL     1      -3.374  -2.958  -0.954  0.00  0.00    +0.105 A 
ATOM     27  C   UNL     1      -3.455  -2.384  -2.209  0.00  0.00    +0.028 A 
ATOM     28  C   UNL     1      -4.072  -3.065  -3.242  0.00  0.00    +0.002 A 
ATOM     29  C   UNL     1      -4.608  -4.320  -3.020  0.00  0.00    +0.000 A 
ATOM     30  C   UNL     1      -4.526  -4.894  -1.766  0.00  0.00    +0.002 A 
ATOM     31  C   UNL     1      -3.905  -4.215  -0.734  0.00  0.00    +0.028 A 
ENDBRANCH  23  26
ENDBRANCH   6  23
TORSDOF 5
