REMARK  Name = ZINC19845917
REMARK  3 active torsions:
REMARK  status: ('A' for Active; 'I' for Inactive)
REMARK    1  A    between atoms: C_6  and  O_7
REMARK    2  A    between atoms: O_7  and  C_8
REMARK    3  A    between atoms: C_13  and  N_14
REMARK                            x       y       z     vdW  Elec       q    Type
REMARK                         _______ _______ _______ _____ _____    ______ ____
ROOT
ATOM      1  O   UNL     1       2.365   1.122  -0.015  0.00  0.00    -0.454 OA
ENDROOT
BRANCH   1   7
ATOM      2  C   UNL     1       1.120  -0.896   0.088  0.00  0.00    +0.047 A 
ATOM      3  C   UNL     1       1.104  -2.277   0.188  0.00  0.00    +0.022 A 
ATOM      4  C   UNL     1       2.288  -2.964   0.279  0.00  0.00    +0.061 A 
ATOM      5  C   UNL     1       3.537  -2.326   0.277  0.00  0.00    +0.150 A 
ATOM      6  C   UNL     1       3.530  -0.929   0.170  0.00  0.00    +0.093 A 
ATOM      7  C   UNL     1       2.341  -0.234   0.083  0.00  0.00    +0.132 A 
ATOM      8  O   UNL     1       4.601  -3.148   0.375  0.00  0.00    -0.416 OA
ATOM      9  C   UNL     1       4.449  -4.480   0.467  0.00  0.00    +0.379 A 
ATOM     10  O   UNL     1       5.309  -5.335   0.560  0.00  0.00    -0.237 OA
ATOM     11  S   UNL     1       2.726  -4.680   0.420  0.00  0.00    -0.004 S 
ENDBRANCH   1   7
BRANCH   1  12
ATOM     12  C   UNL     1       1.179   1.785   0.014  0.00  0.00    +0.149 A 
ATOM     13  C   UNL     1       0.588   2.202  -1.168  0.00  0.00    +0.049 A 
ATOM     14  C   UNL     1      -0.616   2.882  -1.138  0.00  0.00    +0.019 A 
ATOM     15  C   UNL     1      -1.239   3.138   0.070  0.00  0.00    +0.020 A 
ATOM     16  C   UNL     1      -0.656   2.726   1.254  0.00  0.00    +0.041 A 
ATOM     17  C   UNL     1       0.554   2.048   1.231  0.00  0.00    +0.068 A 
ATOM     18 BR   UNL     1      -2.889   4.062   0.102  0.00  0.00    -0.050 Br
BRANCH  17  19
ATOM     19  N   UNL     1       1.146   1.629   2.428  0.00  0.00    -0.355 N 
ATOM     20  H   UNL     1       0.652   1.837   3.388  0.00  0.00    +0.142 HD
ATOM     21  H   UNL     1       2.105   1.091   2.408  0.00  0.00    +0.142 HD
ENDBRANCH  17  19
ENDBRANCH   1  12
TORSDOF 3
