REMARK  Name = ZINC04954397
REMARK  5 active torsions:
REMARK  status: ('A' for Active; 'I' for Inactive)
REMARK    1  A    between atoms: C_1  and  C_2
REMARK    2  A    between atoms: C_2  and  C_14
REMARK    3  A    between atoms: N_3  and  N_4
REMARK    4  A    between atoms: C_5  and  C_7
REMARK    5  A    between atoms: C_12  and  O_13
REMARK                            x       y       z     vdW  Elec       q    Type
REMARK                         _______ _______ _______ _____ _____    ______ ____
ROOT
ATOM      1  N   UNL     1       0.024   0.033   2.342  0.00  0.00    -0.203 N 
ATOM      2  C   UNL     1       0.044  -0.647   3.506  0.00  0.00    +0.267 C 
ATOM      3  O   UNL     1       0.060  -1.863   3.499  0.00  0.00    -0.268 OA
ATOM      4  H   UNL     1       0.011   1.003   2.348  0.00  0.00    +0.178 HD
ENDROOT
BRANCH   2   5
ATOM      5  C   UNL     1       0.046   0.084   4.787  0.00  0.00    +0.080 A 
ATOM      6  C   UNL     1       0.021   1.481   4.799  0.00  0.00    +0.017 A 
ATOM      7  C   UNL     1       0.024   2.157   6.000  0.00  0.00    +0.001 A 
ATOM      8  C   UNL     1       0.050   1.458   7.196  0.00  0.00    +0.004 A 
ATOM      9  C   UNL     1       0.075   0.078   7.198  0.00  0.00    +0.046 A 
ATOM     10  C   UNL     1       0.067  -0.619   5.999  0.00  0.00    +0.129 A 
BRANCH  10  11
ATOM     11  O   UNL     1       0.085  -1.976   6.000  0.00  0.00    -0.506 OA
ATOM     12  H   UNL     1       0.974  -2.357   5.992  0.00  0.00    +0.292 HD
ENDBRANCH  10  11
ENDBRANCH   2   5
BRANCH   1  15
ATOM     13  C   UNL     1      -0.018   1.503   0.010  0.00  0.00    +0.068 C 
ATOM     14  C   UNL     1       0.002  -0.004   0.002  0.00  0.00    +0.070 C 
ATOM     15  N   UNL     1       0.022  -0.661   1.125  0.00  0.00    -0.184 NA
BRANCH  14  16
ATOM     16  C   UNL     1      -0.000  -0.730  -1.272  0.00  0.00    +0.036 A 
ATOM     17  C   UNL     1       0.011  -2.096  -1.497  0.00  0.00    +0.018 A 
ATOM     18  C   UNL     1       0.005  -2.543  -2.798  0.00  0.00    +0.023 A 
ATOM     19  C   UNL     1      -0.011  -1.638  -3.813  0.00  0.00    +0.055 A 
ATOM     20  S   UNL     1      -0.025  -0.084  -2.936  0.00  0.00    -0.080 S 
ATOM     21 BR   UNL     1      -0.022  -1.948  -5.678  0.00  0.00    -0.043 Br
ENDBRANCH  14  16
ENDBRANCH   1  15
TORSDOF 4
