REMARK  Name = ZINC43426850
REMARK  1 active torsions:
REMARK  status: ('A' for Active; 'I' for Inactive)
REMARK    1  A    between atoms: N_17  and  C_18
REMARK                            x       y       z     vdW  Elec       q    Type
REMARK                         _______ _______ _______ _____ _____    ______ ____
ROOT
ATOM      1  C   UNL     1       0.592   1.430   0.125  0.00  0.00    +0.002 C 
ATOM      2  C   UNL     1       2.078   1.790   0.150  0.00  0.00    +0.003 C 
ATOM      3  C   UNL     1       2.776   1.219  -1.089  0.00  0.00    +0.033 C 
ATOM      4  C   UNL     1       2.607  -0.298  -1.096  0.00  0.00    +0.139 C 
ATOM      5  C   UNL     1       1.112  -0.632  -1.168  0.00  0.00    +0.105 C 
ATOM      6  C   UNL     1       0.423  -0.092   0.084  0.00  0.00    +0.025 C 
ATOM      7  N   UNL     1       0.977  -2.092  -1.252  0.00  0.00    -0.292 N 
ATOM      8  C   UNL     1       1.754  -2.783  -2.296  0.00  0.00    +0.136 C 
ATOM      9  C   UNL     1       3.212  -2.321  -2.216  0.00  0.00    +0.179 C 
ATOM     10  O   UNL     1       3.257  -0.889  -2.219  0.00  0.00    -0.373 OA
ATOM     11  C   UNL     1       0.152  -2.792  -0.384  0.00  0.00    +0.219 A 
ATOM     12  N   UNL     1      -0.026  -2.522   0.877  0.00  0.00    -0.137 NA
ATOM     13  N   UNL     1      -0.930  -3.458   1.398  0.00  0.00    -0.253 N 
ATOM     14  C   UNL     1      -1.275  -4.288   0.392  0.00  0.00    +0.177 A 
ATOM     15  N   UNL     1      -0.619  -3.882  -0.714  0.00  0.00    -0.288 N 
ATOM     16  S   UNL     1      -2.357  -5.611   0.497  0.00  0.00    -0.011 S 
ATOM     17  H   UNL     1      -1.248  -3.502   2.313  0.00  0.00    +0.191 HD
ENDROOT
BRANCH  15  18
ATOM     18  C   UNL     1      -0.708  -4.500  -2.039  0.00  0.00    +0.092 C 
ATOM     19  C   UNL     1      -2.177  -4.534  -2.508  0.00  0.00    +0.025 C 
ATOM     20  C   UNL     1      -2.305  -5.883  -3.259  0.00  0.00    +0.002 C 
ATOM     21  C   UNL     1      -1.431  -6.834  -2.404  0.00  0.00    +0.002 C 
ATOM     22  C   UNL     1      -0.234  -5.962  -1.972  0.00  0.00    +0.025 C 
ENDBRANCH  15  18
TORSDOF 1
