REMARK  Name = ZINC34797307
REMARK  5 active torsions:
REMARK  status: ('A' for Active; 'I' for Inactive)
REMARK    1  A    between atoms: C_6  and  C_7
REMARK    2  A    between atoms: C_7  and  N_8
REMARK    3  A    between atoms: C_9  and  C_11
REMARK    4  A    between atoms: C_21  and  C_23
REMARK    5  A    between atoms: C_23  and  C_24
REMARK                            x       y       z     vdW  Elec       q    Type
REMARK                         _______ _______ _______ _____ _____    ______ ____
ROOT
ATOM      1  C   UNL     1      -3.303  -1.938  -2.997  0.00  0.00    +0.152 A 
ATOM      2  C   UNL     1      -4.463  -2.616  -3.405  0.00  0.00    +0.023 A 
ATOM      3  C   UNL     1      -4.453  -2.594  -4.761  0.00  0.00    +0.043 A 
ATOM      4  N   UNL     1      -3.341  -1.940  -5.137  0.00  0.00    -0.280 N 
ATOM      5  H   UNL     1      -3.076  -1.777  -6.056  0.00  0.00    +0.189 HD
ATOM      6  N   UNL     1      -2.682  -1.555  -4.099  0.00  0.00    -0.169 NA
ATOM      7  C   UNL     1      -5.524  -3.205  -5.627  0.00  0.00    +0.074 C 
ATOM      8  C   UNL     1      -6.330  -4.202  -4.785  0.00  0.00    +0.114 C 
ATOM      9  N   UNL     1      -6.650  -3.595  -3.485  0.00  0.00    -0.296 N 
ATOM     10  C   UNL     1      -5.538  -3.264  -2.574  0.00  0.00    +0.147 C 
ATOM     11  C   UNL     1      -7.928  -3.347  -3.134  0.00  0.00    +0.220 C 
ATOM     12  O   UNL     1      -8.174  -2.845  -2.058  0.00  0.00    -0.275 OA
ENDROOT
BRANCH   1  14
ATOM     13  N   UNL     1      -1.726  -1.017  -1.368  0.00  0.00    -0.306 N 
ATOM     14  C   UNL     1      -2.867  -1.693  -1.607  0.00  0.00    +0.265 C 
ATOM     15  O   UNL     1      -3.537  -2.102  -0.679  0.00  0.00    -0.268 OA
ATOM     16  H   UNL     1      -1.191  -0.691  -2.109  0.00  0.00    +0.149 HD
BRANCH  13  17
ATOM     17  C   UNL     1      -1.293  -0.775   0.010  0.00  0.00    +0.140 C 
BRANCH  17  23
ATOM     18  C   UNL     1      -0.017   1.378   0.010  0.00  0.00    +0.008 A 
ATOM     19  C   UNL     1       1.170   2.086   0.002  0.00  0.00    +0.038 A 
ATOM     20  C   UNL     1       2.379   1.410  -0.013  0.00  0.00    +0.123 A 
ATOM     21  C   UNL     1       2.396   0.026  -0.021  0.00  0.00    +0.038 A 
ATOM     22  C   UNL     1       1.208  -0.680  -0.013  0.00  0.00    +0.008 A 
ATOM     23  C   UNL     1       0.002  -0.004   0.002  0.00  0.00    -0.030 A 
ATOM     24  F   UNL     1       3.540   2.101  -0.021  0.00  0.00    -0.205 F 
ENDBRANCH  17  23
ENDBRANCH  13  17
ENDBRANCH   1  14
BRANCH  11  25
ATOM     25  C   UNL     1      -9.049  -3.693  -4.079  0.00  0.00    +0.134 C 
BRANCH  25  26
ATOM     26  C   UNL     1     -10.367  -3.318  -3.453  0.00  0.00    -0.003 A 
ATOM     27  C   UNL     1     -11.096  -4.264  -2.757  0.00  0.00    +0.010 A 
ATOM     28  C   UNL     1     -12.305  -3.922  -2.182  0.00  0.00    +0.039 A 
ATOM     29  C   UNL     1     -12.788  -2.630  -2.302  0.00  0.00    +0.126 A 
ATOM     30  C   UNL     1     -12.059  -1.681  -2.998  0.00  0.00    +0.077 A 
ATOM     31  C   UNL     1     -10.846  -2.024  -3.569  0.00  0.00    +0.130 A 
ATOM     32  F   UNL     1     -10.131  -1.097  -4.244  0.00  0.00    -0.205 F 
ATOM     33  F   UNL     1     -13.970  -2.295  -1.740  0.00  0.00    -0.205 F 
ENDBRANCH  25  26
ENDBRANCH  11  25
TORSDOF 5
