REMARK  Name = ZINC05902442
REMARK  5 active torsions:
REMARK  status: ('A' for Active; 'I' for Inactive)
REMARK    1  A    between atoms: C_1  and  C_2
REMARK    2  A    between atoms: C_2  and  C_3
REMARK    3  A    between atoms: C_2  and  N_4
REMARK    4  A    between atoms: C_7  and  O_9
REMARK    5  A    between atoms: C_10  and  C_17
REMARK                            x       y       z     vdW  Elec       q    Type
REMARK                         _______ _______ _______ _____ _____    ______ ____
ROOT
ATOM      1  N   UNL     1      -1.372  -0.511   0.012  0.00  0.00    -0.244 N 
ATOM      2  C   UNL     1      -1.942  -1.312  -0.949  0.00  0.00    +0.132 A 
ATOM      3  C   UNL     1      -3.214  -1.553  -0.562  0.00  0.00    +0.072 A 
ATOM      4  C   UNL     1      -3.426  -0.881   0.665  0.00  0.00    +0.238 A 
ATOM      5  N   UNL     1      -2.324  -0.269   1.002  0.00  0.00    -0.131 NA
ATOM      6  C   UNL     1      -4.288  -2.360  -1.221  0.00  0.00    +0.115 C 
ATOM      7  S   UNL     1      -3.660  -3.796  -2.097  0.00  0.00    -0.138 S 
ATOM      8  C   UNL     1      -2.716  -3.156  -3.487  0.00  0.00    +0.166 C 
ATOM      9  C   UNL     1      -1.469  -2.478  -3.074  0.00  0.00    +0.228 C 
ATOM     10  O   UNL     1      -0.519  -2.669  -3.804  0.00  0.00    -0.275 OA
ATOM     11  N   UNL     1      -1.228  -1.711  -2.054  0.00  0.00    -0.270 N 
ATOM     12  H   UNL     1      -0.336  -1.331  -2.077  0.00  0.00    +0.156 HD
ENDROOT
BRANCH   6  13
ATOM     13  C   UNL     1      -5.258  -2.826  -0.167  0.00  0.00    -0.030 A 
ATOM     14  C   UNL     1      -4.817  -3.617   0.878  0.00  0.00    +0.005 A 
ATOM     15  C   UNL     1      -5.707  -4.045   1.845  0.00  0.00    +0.000 A 
ATOM     16  C   UNL     1      -7.038  -3.681   1.768  0.00  0.00    +0.000 A 
ATOM     17  C   UNL     1      -7.480  -2.889   0.724  0.00  0.00    +0.000 A 
ATOM     18  C   UNL     1      -6.588  -2.458  -0.241  0.00  0.00    +0.005 A 
ENDBRANCH   6  13
BRANCH   1  20
ATOM     19  C   UNL     1      -0.019   1.526   0.010  0.00  0.00    +0.032 C 
ATOM     20  C   UNL     1       0.002  -0.004   0.002  0.00  0.00    +0.103 C 
ATOM     21  C   UNL     1       0.742  -0.511   1.242  0.00  0.00    +0.032 C 
ENDBRANCH   1  20
BRANCH   4  22
ATOM     22  O   UNL     1      -4.585  -0.879   1.377  0.00  0.00    -0.491 OA
ATOM     23  H   UNL     1      -4.652  -1.596   2.022  0.00  0.00    +0.294 HD
ENDBRANCH   4  22
TORSDOF 3
