REMARK  Name = ZINC38936986
REMARK  7 active torsions:
REMARK  status: ('A' for Active; 'I' for Inactive)
REMARK    1  A    between atoms: C_1  and  O_2
REMARK    2  A    between atoms: O_2  and  C_3
REMARK    3  A    between atoms: C_6  and  C_11
REMARK    4  A    between atoms: C_8  and  O_9
REMARK    5  A    between atoms: O_9  and  C_10
REMARK    6  A    between atoms: N_17  and  N_18
REMARK    7  A    between atoms: C_19  and  C_20
REMARK                            x       y       z     vdW  Elec       q    Type
REMARK                         _______ _______ _______ _____ _____    ______ ____
ROOT
ATOM      1  C   UNL     1       2.588  -2.554   4.331  0.00  0.00    +0.264 C 
ATOM      2  N   UNL     1       3.234  -3.796   3.880  0.00  0.00    -0.189 NA
ATOM      3  N   UNL     1       4.449  -3.683   4.061  0.00  0.00    -0.219 N 
ATOM      4  C   UNL     1       4.806  -2.488   4.602  0.00  0.00    +0.174 C 
ATOM      5  S   UNL     1       6.410  -2.020   4.974  0.00  0.00    -0.015 S 
ATOM      6  N   UNL     1       3.708  -1.721   4.806  0.00  0.00    -0.172 N 
ATOM      7  H   UNL     1       5.088  -4.379   3.838  0.00  0.00    +0.176 HD
ENDROOT
BRANCH   1  11
ATOM      8  C   UNL     1       0.572  -0.639   1.082  0.00  0.00    +0.162 A 
ATOM      9  C   UNL     1       1.157   0.120   2.082  0.00  0.00    +0.050 A 
ATOM     10  C   UNL     1       1.808  -0.502   3.131  0.00  0.00    +0.011 A 
ATOM     11  C   UNL     1       1.877  -1.881   3.185  0.00  0.00    +0.001 A 
ATOM     12  C   UNL     1       1.296  -2.645   2.190  0.00  0.00    +0.056 A 
ATOM     13  C   UNL     1       0.637  -2.028   1.139  0.00  0.00    +0.162 A 
BRANCH   8  15
ATOM     14  C   UNL     1      -0.095   1.400   0.056  0.00  0.00    +0.277 C 
ATOM     15  O   UNL     1      -0.068  -0.029   0.049  0.00  0.00    -0.491 OA
ENDBRANCH   8  15
BRANCH  13  16
ATOM     16  O   UNL     1       0.060  -2.778   0.162  0.00  0.00    -0.491 OA
ATOM     17  C   UNL     1       0.166  -4.198   0.286  0.00  0.00    +0.277 C 
ENDBRANCH  13  16
ENDBRANCH   1  11
BRANCH   6  18
ATOM     18  N   UNL     1       3.648  -0.429   5.345  0.00  0.00    -0.183 NA
ATOM     19  C   UNL     1       4.724   0.127   5.823  0.00  0.00    +0.145 C 
BRANCH  19  20
ATOM     20  C   UNL     1       4.642   1.431   6.485  0.00  0.00    +0.033 A 
ATOM     21  C   UNL     1       5.654   2.189   7.050  0.00  0.00    +0.018 A 
ATOM     22  C   UNL     1       5.326   3.397   7.621  0.00  0.00    +0.023 A 
ATOM     23  C   UNL     1       4.028   3.805   7.613  0.00  0.00    +0.055 A 
ATOM     24  S   UNL     1       3.211   2.462   6.768  0.00  0.00    -0.080 S 
ATOM     25 BR   UNL     1       3.282   5.396   8.312  0.00  0.00    -0.043 Br
ENDBRANCH  19  20
ENDBRANCH   6  18
TORSDOF 5
