REMARK  Name = ZINC22556120
REMARK  5 active torsions:
REMARK  status: ('A' for Active; 'I' for Inactive)
REMARK    1  A    between atoms: C_1  and  C_2
REMARK    2  A    between atoms: C_3  and  C_7
REMARK    3  A    between atoms: C_10  and  S_12
REMARK    4  A    between atoms: S_12  and  C_13
REMARK    5  A    between atoms: C_13  and  C_14
REMARK                            x       y       z     vdW  Elec       q    Type
REMARK                         _______ _______ _______ _____ _____    ______ ____
ROOT
ATOM      1  C   UNL     1       5.885   1.395   4.154  0.00  0.00    +0.115 C 
ENDROOT
BRANCH   1   2
ATOM      2  C   UNL     1       7.098   1.470   5.043  0.00  0.00    -0.020 A 
ATOM      3  C   UNL     1       7.485   0.403   5.788  0.00  0.00    +0.097 A 
ATOM      4  C   UNL     1       8.626   0.499   6.613  0.00  0.00    +0.338 A 
ATOM      5  O   UNL     1       8.962  -0.466   7.276  0.00  0.00    -0.245 OA
ATOM      6  O   UNL     1       9.350   1.626   6.686  0.00  0.00    -0.422 OA
ATOM      7  C   UNL     1       9.020   2.724   5.972  0.00  0.00    +0.140 A 
ATOM      8  C   UNL     1       7.898   2.696   5.124  0.00  0.00    +0.022 A 
ATOM      9  C   UNL     1       7.551   3.833   4.388  0.00  0.00    +0.013 A 
ATOM     10  C   UNL     1       8.312   4.964   4.488  0.00  0.00    +0.016 A 
ATOM     11  C   UNL     1       9.423   4.993   5.320  0.00  0.00    +0.021 A 
ATOM     12  C   UNL     1       9.779   3.883   6.059  0.00  0.00    +0.062 A 
ATOM     13 BR   UNL     1      10.459   6.570   5.442  0.00  0.00    -0.050 Br
ENDBRANCH   1   2
BRANCH   1  14
ATOM     14  S   UNL     1       4.420   1.909   5.086  0.00  0.00    -0.061 S 
BRANCH  14  18
ATOM     15  C   UNL     1       1.304   1.711   2.784  0.00  0.00    +0.253 A 
ATOM     16  N   UNL     1       2.259   1.316   1.978  0.00  0.00    -0.106 NA
ATOM     17  N   UNL     1       3.381   1.327   2.608  0.00  0.00    -0.101 NA
ATOM     18  C   UNL     1       3.187   1.730   3.841  0.00  0.00    +0.278 A 
ATOM     19  O   UNL     1       1.871   1.986   3.979  0.00  0.00    -0.411 OA
BRANCH  15  22
ATOM     20  C   UNL     1      -0.013   1.086   0.008  0.00  0.00    +0.087 C 
ATOM     21  C   UNL     1      -0.718   1.572   1.248  0.00  0.00    +0.114 A 
ATOM     22  C   UNL     1      -0.130   1.839   2.446  0.00  0.00    +0.079 A 
ATOM     23  C   UNL     1      -1.214   2.279   3.333  0.00  0.00    +0.054 A 
ATOM     24  C   UNL     1      -2.336   2.236   2.595  0.00  0.00    +0.196 A 
ATOM     25  O   UNL     1      -2.031   1.820   1.357  0.00  0.00    -0.467 OA
ENDBRANCH  15  22
ENDBRANCH  14  18
ENDBRANCH   1  14
TORSDOF 4
