REMARK  Name = ZINC12913538
REMARK  6 active torsions:
REMARK  status: ('A' for Active; 'I' for Inactive)
REMARK    1  A    between atoms: C_1  and  C_2
REMARK    2  A    between atoms: C_2  and  C_4
REMARK    3  A    between atoms: C_2  and  N_15
REMARK    4  A    between atoms: C_7  and  N_10
REMARK    5  A    between atoms: C_16  and  C_18
REMARK    6  A    between atoms: N_23  and  C_25
REMARK                            x       y       z     vdW  Elec       q    Type
REMARK                         _______ _______ _______ _____ _____    ______ ____
ROOT
ATOM      1  N   UNL     1      -4.372   5.880   0.944  0.00  0.00    -0.308 N 
ATOM      2  C   UNL     1      -5.416   6.515   1.513  0.00  0.00    +0.219 C 
ATOM      3  O   UNL     1      -6.548   6.144   1.286  0.00  0.00    -0.275 OA
ATOM      4  H   UNL     1      -3.466   6.176   1.126  0.00  0.00    +0.149 HD
ENDROOT
BRANCH   2   5
ATOM      5  C   UNL     1      -5.176   7.686   2.431  0.00  0.00    +0.101 C 
ATOM      6  C   UNL     1      -4.609   8.894   1.650  0.00  0.00    +0.110 C 
ATOM      7  C   UNL     1      -5.831   9.705   1.283  0.00  0.00    +0.221 C 
ATOM      8  O   UNL     1      -5.859  10.575   0.438  0.00  0.00    -0.275 OA
ATOM      9  N   UNL     1      -6.882   9.322   2.029  0.00  0.00    -0.270 N 
ATOM     10  C   UNL     1      -6.510   8.253   2.963  0.00  0.00    +0.127 C 
BRANCH   9  11
ATOM     11  C   UNL     1      -8.161   9.871   1.928  0.00  0.00    +0.044 A 
ATOM     12  C   UNL     1      -8.514  10.960   2.697  0.00  0.00    +0.024 A 
ATOM     13  C   UNL     1      -9.786  11.514   2.605  0.00  0.00    +0.002 A 
ATOM     14  C   UNL     1     -10.717  11.000   1.754  0.00  0.00    +0.008 A 
ATOM     15  C   UNL     1     -10.398   9.891   0.952  0.00  0.00    -0.016 A 
ATOM     16  C   UNL     1      -9.104   9.321   1.034  0.00  0.00    +0.004 A 
ATOM     17  C   UNL     1      -8.788   8.210   0.236  0.00  0.00    +0.010 A 
ATOM     18  C   UNL     1      -9.725   7.700  -0.611  0.00  0.00    +0.001 A 
ATOM     19  C   UNL     1     -10.996   8.264  -0.696  0.00  0.00    +0.001 A 
ATOM     20  C   UNL     1     -11.339   9.338   0.066  0.00  0.00    +0.008 A 
ENDBRANCH   9  11
ENDBRANCH   2   5
BRANCH   1  22
ATOM     21  C   UNL     1      -4.878   5.251  -1.365  0.00  0.00    +0.033 C 
ATOM     22  C   UNL     1      -4.605   4.741   0.052  0.00  0.00    +0.100 C 
BRANCH  22  23
ATOM     23  C   UNL     1      -3.387   3.854   0.040  0.00  0.00    -0.027 A 
ATOM     24  C   UNL     1      -3.534   2.479   0.034  0.00  0.00    +0.007 A 
ATOM     25  C   UNL     1      -2.420   1.664   0.024  0.00  0.00    +0.028 A 
ATOM     26  C   UNL     1      -1.150   2.226   0.020  0.00  0.00    +0.067 A 
ATOM     27  C   UNL     1      -1.005   3.606   0.032  0.00  0.00    +0.028 A 
ATOM     28  C   UNL     1      -2.124   4.417   0.037  0.00  0.00    +0.007 A 
BRANCH  26  29
ATOM     29  N   UNL     1      -0.017   1.400   0.010  0.00  0.00    -0.220 N 
ATOM     30  C   UNL     1       1.271   1.796  -0.000  0.00  0.00    +0.225 A 
ATOM     31  N   UNL     1       2.023   0.726  -0.013  0.00  0.00    -0.222 NA
ATOM     32  C   UNL     1       1.259  -0.365  -0.012  0.00  0.00    +0.245 A 
ATOM     33  N   UNL     1       0.002  -0.004   0.002  0.00  0.00    -0.154 NA
ENDBRANCH  26  29
ENDBRANCH  22  23
ENDBRANCH   1  22
TORSDOF 5
