REMARK  Name = ZINC13768445
REMARK  5 active torsions:
REMARK  status: ('A' for Active; 'I' for Inactive)
REMARK    1  A    between atoms: C_1  and  C_2
REMARK    2  A    between atoms: C_9  and  N_22
REMARK    3  A    between atoms: C_10  and  C_11
REMARK    4  A    between atoms: N_13  and  C_14
REMARK    5  A    between atoms: C_23  and  C_25
REMARK                            x       y       z     vdW  Elec       q    Type
REMARK                         _______ _______ _______ _____ _____    ______ ____
ROOT
ATOM      1  C   UNL     1      -7.010   4.795   3.058  0.00  0.00    +0.008 C 
ATOM      2  C   UNL     1      -6.003   3.650   2.939  0.00  0.00    -0.009 C 
ATOM      3  C   UNL     1      -4.984   3.974   1.842  0.00  0.00    +0.008 C 
ATOM      4  C   UNL     1      -4.129   2.741   1.546  0.00  0.00    +0.037 C 
ATOM      5  C   UNL     1      -3.546   2.224   2.855  0.00  0.00    -0.023 A 
ATOM      6  C   UNL     1      -4.084   2.576   4.043  0.00  0.00    -0.004 A 
ATOM      7  S   UNL     1      -3.096   1.743   5.253  0.00  0.00    -0.077 S 
ATOM      8  C   UNL     1      -1.987   0.931   4.197  0.00  0.00    +0.085 A 
ATOM      9  C   UNL     1      -2.408   1.324   2.934  0.00  0.00    +0.069 A 
ATOM     10  C   UNL     1      -5.257   3.479   4.271  0.00  0.00    +0.046 C 
ENDROOT
BRANCH   9  11
ATOM     11  C   UNL     1      -1.726   0.853   1.725  0.00  0.00    +0.247 C 
ATOM     12  O   UNL     1      -2.091  -0.172   1.180  0.00  0.00    -0.270 OA
ATOM     13  N   UNL     1      -0.695   1.556   1.216  0.00  0.00    -0.307 N 
ATOM     14  H   UNL     1      -0.404   2.373   1.650  0.00  0.00    +0.149 HD
BRANCH  13  15
ATOM     15  C   UNL     1      -0.013   1.086   0.008  0.00  0.00    +0.096 C 
ATOM     16  C   UNL     1      -0.767   1.593  -1.232  0.00  0.00    +0.046 C 
ATOM     17  C   UNL     1       0.134   1.355  -2.478  0.00  0.00    +0.168 C 
ATOM     18  S   UNL     1       1.780   1.828  -1.798  0.00  0.00    -0.029 S 
ATOM     19  O   UNL     1       2.014   3.204  -2.068  0.00  0.00    -0.174 OA
ATOM     20  O   UNL     1       2.742   0.864  -2.202  0.00  0.00    -0.174 OA
ATOM     21  C   UNL     1       1.440   1.619  -0.003  0.00  0.00    +0.188 C 
ENDBRANCH  13  15
ENDBRANCH   9  11
BRANCH   8  22
ATOM     22  N   UNL     1      -0.936   0.094   4.533  0.00  0.00    -0.275 N 
ATOM     23  C   UNL     1      -0.676  -0.175   5.827  0.00  0.00    +0.255 C 
ATOM     24  O   UNL     1      -1.364   0.317   6.702  0.00  0.00    -0.269 OA
ATOM     25  H   UNL     1      -0.387  -0.299   3.836  0.00  0.00    +0.156 HD
BRANCH  23  26
ATOM     26  C   UNL     1       0.436  -1.061   6.182  0.00  0.00    +0.074 A 
ATOM     27  C   UNL     1       0.872  -1.458   7.437  0.00  0.00    +0.021 A 
ATOM     28  C   UNL     1       1.949  -2.307   7.486  0.00  0.00    +0.008 A 
ATOM     29  C   UNL     1       2.534  -2.704   6.325  0.00  0.00    +0.046 A 
ATOM     30  S   UNL     1       1.588  -1.904   5.112  0.00  0.00    -0.092 S 
ENDBRANCH  23  26
ENDBRANCH   8  22
TORSDOF 4
