REMARK  Name = ZINC12979725
REMARK  8 active torsions:
REMARK  status: ('A' for Active; 'I' for Inactive)
REMARK    1  A    between atoms: C_1  and  C_2
REMARK    2  A    between atoms: C_6  and  N_8
REMARK    3  A    between atoms: C_9  and  C_11
REMARK    4  A    between atoms: C_11  and  C_13
REMARK    5  A    between atoms: C_11  and  N_52
REMARK    6  A    between atoms: C_16  and  N_19
REMARK    7  A    between atoms: N_19  and  S_20
REMARK    8  A    between atoms: S_20  and  C_23
REMARK                            x       y       z     vdW  Elec       q    Type
REMARK                         _______ _______ _______ _____ _____    ______ ____
ROOT
ATOM      1  C   UNL     1       3.115   7.551  -1.216  0.00  0.00    -0.076 C 
ATOM      2  C   UNL     1       4.587   7.958  -1.115  0.00  0.00    +0.002 C 
ATOM      3  C   UNL     1       4.690   9.485  -1.106  0.00  0.00    +0.073 C 
ATOM      4  C   UNL     1       3.871  10.037   0.065  0.00  0.00    +0.002 C 
ATOM      5  C   UNL     1       2.420   9.569  -0.070  0.00  0.00    -0.076 C 
ATOM      6  N   UNL     1       2.387   8.092  -0.049  0.00  0.00    +0.387 N 
ATOM      7  H   UNL     1       2.843   7.761   0.810  0.00  0.00    -0.081 HD
ENDROOT
BRANCH   6   8
ATOM      8  C   UNL     1       0.988   7.617  -0.063  0.00  0.00    +0.016 C 
ATOM      9  C   UNL     1       0.981   6.088  -0.126  0.00  0.00    -0.004 C 
BRANCH   8  11
ATOM     10  N   UNL     1      -1.030   8.234   1.228  0.00  0.00    -0.287 N 
ATOM     11  C   UNL     1       0.308   8.071   1.203  0.00  0.00    +0.203 C 
ATOM     12  O   UNL     1       0.964   8.289   2.200  0.00  0.00    -0.277 OA
ATOM     13  H   UNL     1      -1.562   7.993   0.454  0.00  0.00    +0.155 HD
BRANCH  10  19
ATOM     14  C   UNL     1      -4.930   8.404   4.216  0.00  0.00    +0.044 C 
ATOM     15  C   UNL     1      -3.541   8.852   3.842  0.00  0.00    -0.049 A 
ATOM     16  C   UNL     1      -2.877   9.775   4.630  0.00  0.00    +0.003 A 
ATOM     17  C   UNL     1      -1.600  10.184   4.293  0.00  0.00    +0.002 A 
ATOM     18  C   UNL     1      -0.985   9.675   3.165  0.00  0.00    +0.023 A 
ATOM     19  C   UNL     1      -1.650   8.752   2.370  0.00  0.00    +0.034 A 
ATOM     20  C   UNL     1      -2.933   8.344   2.711  0.00  0.00    +0.026 A 
ENDBRANCH  10  19
ENDBRANCH   8  11
ENDBRANCH   6   8
BRANCH   3  21
ATOM     21  N   UNL     1       6.092   9.881  -0.951  0.00  0.00    -0.187 NA
ATOM     22  H   UNL     1       6.485   9.938  -0.066  0.00  0.00    +0.148 HD
BRANCH  21  23
ATOM     23  S   UNL     1       7.006  10.231  -2.287  0.00  0.00    +0.065 S 
ATOM     24  O   UNL     1       8.293  10.601  -1.812  0.00  0.00    -0.153 OA
ATOM     25  O   UNL     1       6.810   9.163  -3.204  0.00  0.00    -0.153 OA
BRANCH  23  26
ATOM     26  C   UNL     1       6.311  11.669  -3.031  0.00  0.00    +0.142 A 
ATOM     27  C   UNL     1       6.601  12.973  -2.804  0.00  0.00    +0.036 A 
ATOM     28  C   UNL     1       5.922  13.945  -3.514  0.00  0.00    +0.010 A 
ATOM     29  C   UNL     1       4.985  13.565  -4.417  0.00  0.00    +0.047 A 
ATOM     30  S   UNL     1       5.047  11.786  -4.287  0.00  0.00    -0.077 S 
ENDBRANCH  23  26
ENDBRANCH  21  23
ENDBRANCH   3  21
TORSDOF 6
