REMARK  Name = ZINC38702530
REMARK  3 active torsions:
REMARK  status: ('A' for Active; 'I' for Inactive)
REMARK    1  A    between atoms: C_1  and  O_2
REMARK    2  A    between atoms: O_2  and  C_3
REMARK    3  A    between atoms: C_6  and  C_9
REMARK                            x       y       z     vdW  Elec       q    Type
REMARK                         _______ _______ _______ _____ _____    ______ ____
ROOT
ATOM      1  C   UNL     1       2.587  -2.550   4.310  0.00  0.00    +0.141 C 
ATOM      2  C   UNL     1       3.952  -2.997   3.901  0.00  0.00    +0.072 A 
ATOM      3  C   UNL     1       5.112  -2.240   3.419  0.00  0.00    +0.199 A 
ATOM      4  O   UNL     1       5.172  -1.024   3.443  0.00  0.00    -0.287 OA
ATOM      5  C   UNL     1       6.207  -3.098   2.899  0.00  0.00    +0.066 A 
ATOM      6  C   UNL     1       7.288  -2.531   2.226  0.00  0.00    +0.035 A 
ATOM      7  C   UNL     1       8.293  -3.343   1.745  0.00  0.00    +0.042 A 
ATOM      8  C   UNL     1       8.225  -4.718   1.932  0.00  0.00    +0.023 A 
ATOM      9  C   UNL     1       7.163  -5.288   2.596  0.00  0.00    +0.048 A 
ATOM     10  C   UNL     1       6.135  -4.487   3.094  0.00  0.00    +0.140 A 
ATOM     11  O   UNL     1       5.108  -5.072   3.752  0.00  0.00    -0.450 OA
ATOM     12  C   UNL     1       4.003  -4.355   4.037  0.00  0.00    +0.199 A 
ATOM     13  C   UNL     1       2.693  -4.821   4.524  0.00  0.00    +0.281 C 
ATOM     14  O   UNL     1       2.406  -5.981   4.746  0.00  0.00    -0.267 OA
ATOM     15  N   UNL     1       1.859  -3.772   4.689  0.00  0.00    -0.298 N 
ATOM     16 CL   UNL     1       9.644  -2.647   0.906  0.00  0.00    -0.084 Cl
ATOM     17  H   UNL     1       0.942  -3.816   5.001  0.00  0.00    +0.150 HD
ENDROOT
BRANCH   1  21
ATOM     18  C   UNL     1       0.626  -0.618   1.042  0.00  0.00    +0.120 A 
ATOM     19  C   UNL     1       1.202   0.138   2.051  0.00  0.00    +0.046 A 
ATOM     20  C   UNL     1       1.835  -0.488   3.107  0.00  0.00    +0.009 A 
ATOM     21  C   UNL     1       1.895  -1.869   3.158  0.00  0.00    -0.022 A 
ATOM     22  C   UNL     1       1.322  -2.625   2.152  0.00  0.00    +0.009 A 
ATOM     23  C   UNL     1       0.682  -2.003   1.098  0.00  0.00    +0.046 A 
BRANCH  18  25
ATOM     24  C   UNL     1      -0.017   1.425   0.010  0.00  0.00    +0.277 C 
ATOM     25  O   UNL     1       0.002  -0.004   0.002  0.00  0.00    -0.495 OA
ENDBRANCH  18  25
ENDBRANCH   1  21
TORSDOF 2
