REMARK  Name = ZINC40024796
REMARK  3 active torsions:
REMARK  status: ('A' for Active; 'I' for Inactive)
REMARK    1  A    between atoms: C_1  and  C_2
REMARK    2  A    between atoms: C_8  and  N_10
REMARK    3  A    between atoms: C_17  and  C_20
REMARK                            x       y       z     vdW  Elec       q    Type
REMARK                         _______ _______ _______ _____ _____    ______ ____
ROOT
ATOM      1  N   UNL     1       2.116  -0.004   1.231  0.00  0.00    -0.325 N 
ATOM      2  C   UNL     1       2.817   0.132   2.425  0.00  0.00    +0.140 A 
ATOM      3  C   UNL     1       4.136   0.626   2.406  0.00  0.00    +0.049 A 
ATOM      4  C   UNL     1       4.830   0.762   3.566  0.00  0.00    +0.053 A 
ATOM      5  C   UNL     1       4.212   0.405   4.780  0.00  0.00    +0.178 A 
ATOM      6  N   UNL     1       4.603   0.417   6.045  0.00  0.00    -0.128 NA
ATOM      7  N   UNL     1       3.646  -0.017   6.789  0.00  0.00    -0.123 NA
ATOM      8  C   UNL     1       2.607  -0.327   6.053  0.00  0.00    +0.258 A 
ATOM      9  N   UNL     1       2.925  -0.073   4.766  0.00  0.00    -0.187 N 
ATOM     10  N   UNL     1       2.238  -0.197   3.557  0.00  0.00    -0.148 NA
ATOM     11  H   UNL     1       2.538   0.237   0.392  0.00  0.00    +0.148 HD
ENDROOT
BRANCH   1  18
ATOM     12  C   UNL     1      -0.019   1.526   0.010  0.00  0.00    +0.009 C 
ATOM     13  C   UNL     1       0.002  -0.004   0.002  0.00  0.00    +0.006 C 
ATOM     14  C   UNL     1       0.718  -0.497  -1.257  0.00  0.00    +0.005 C 
ATOM     15  C   UNL     1       0.739  -2.027  -1.265  0.00  0.00    +0.000 C 
ATOM     16  C   UNL     1       1.479  -2.534  -0.026  0.00  0.00    +0.002 C 
ATOM     17  C   UNL     1       0.763  -2.041   1.233  0.00  0.00    +0.022 C 
ATOM     18  C   UNL     1       0.742  -0.511   1.242  0.00  0.00    +0.075 C 
ENDBRANCH   1  18
BRANCH   8  19
ATOM     19  C   UNL     1       1.293  -0.870   6.553  0.00  0.00    +0.454 C 
ATOM     20  F   UNL     1       1.208  -0.681   7.937  0.00  0.00    -0.163 F 
ATOM     21  F   UNL     1       0.241  -0.196   5.925  0.00  0.00    -0.163 F 
ATOM     22  F   UNL     1       1.212  -2.236   6.263  0.00  0.00    -0.163 F 
ENDBRANCH   8  19
TORSDOF 2
