REMARK  Name = ZINC02413051
REMARK  9 active torsions:
REMARK  status: ('A' for Active; 'I' for Inactive)
REMARK    1  A    between atoms: C_1  and  C_2
REMARK    2  A    between atoms: C_2  and  N_52
REMARK    3  A    between atoms: C_3  and  C_4
REMARK    4  A    between atoms: C_3  and  N_52
REMARK    5  A    between atoms: C_5  and  C_6
REMARK    6  A    between atoms: C_5  and  N_52
REMARK    7  A    between atoms: C_6  and  N_7
REMARK    8  A    between atoms: C_8  and  C_23
REMARK    9  A    between atoms: C_26  and  C_28
REMARK                            x       y       z     vdW  Elec       q    Type
REMARK                         _______ _______ _______ _____ _____    ______ ____
ROOT
ATOM      1  N   UNL     1      -0.859   1.474  -4.093  0.00  0.00    -0.282 N 
ATOM      2  C   UNL     1      -2.286   1.803  -4.197  0.00  0.00    +0.180 C 
ATOM      3  C   UNL     1      -2.572   1.949  -5.669  0.00  0.00    +0.075 A 
ATOM      4  C   UNL     1      -3.792   2.267  -6.416  0.00  0.00    +0.199 A 
ATOM      5  O   UNL     1      -4.852   2.474  -5.852  0.00  0.00    -0.287 OA
ATOM      6  C   UNL     1      -3.673   2.322  -7.886  0.00  0.00    +0.064 A 
ATOM      7  C   UNL     1      -4.769   2.616  -8.695  0.00  0.00    +0.015 A 
ATOM      8  C   UNL     1      -4.616   2.658 -10.053  0.00  0.00    +0.001 A 
ATOM      9  C   UNL     1      -3.377   2.410 -10.627  0.00  0.00    +0.004 A 
ATOM     10  C   UNL     1      -2.282   2.118  -9.843  0.00  0.00    +0.047 A 
ATOM     11  C   UNL     1      -2.414   2.070  -8.458  0.00  0.00    +0.139 A 
ATOM     12  O   UNL     1      -1.355   1.786  -7.679  0.00  0.00    -0.450 OA
ATOM     13  C   UNL     1      -1.413   1.724  -6.334  0.00  0.00    +0.199 A 
ATOM     14  C   UNL     1      -0.351   1.435  -5.337  0.00  0.00    +0.283 C 
ATOM     15  O   UNL     1       0.808   1.194  -5.607  0.00  0.00    -0.267 OA
ENDROOT
BRANCH   2  16
ATOM     16  C   UNL     1      -2.575   3.097  -3.481  0.00  0.00    +0.130 A 
ATOM     17  C   UNL     1      -3.659   3.355  -2.728  0.00  0.00    +0.047 A 
ATOM     18  C   UNL     1      -3.521   4.678  -2.250  0.00  0.00    +0.045 A 
ATOM     19  C   UNL     1      -2.364   5.153  -2.746  0.00  0.00    +0.102 A 
ATOM     20  O   UNL     1      -1.795   4.191  -3.490  0.00  0.00    -0.463 OA
ATOM     21  C   UNL     1      -1.801   6.530  -2.506  0.00  0.00    +0.086 C 
ENDBRANCH   2  16
BRANCH   1  22
ATOM     22  C   UNL     1      -0.117   1.238  -2.852  0.00  0.00    +0.091 C 
BRANCH  22  23
ATOM     23  C   UNL     1      -0.177  -0.249  -2.498  0.00  0.00    -0.060 C 
BRANCH  23  24
ATOM     24  N   UNL     1       0.536  -0.462  -1.221  0.00  0.00    +0.380 N 
ATOM     25  H   UNL     1       0.242   0.258  -0.550  0.00  0.00    -0.082 HD
BRANCH  24  27
ATOM     26  C   UNL     1      -1.222  -1.756  -0.119  0.00  0.00    -0.017 C 
ATOM     27  C   UNL     1       0.204  -1.794  -0.672  0.00  0.00    -0.082 C 
ENDBRANCH  24  27
BRANCH  24  28
ATOM     28  C   UNL     1       1.995  -0.353  -1.433  0.00  0.00    -0.082 C 
ATOM     29  C   UNL     1       2.693  -0.353  -0.071  0.00  0.00    -0.017 C 
ENDBRANCH  24  28
ENDBRANCH  23  24
ENDBRANCH  22  23
ENDBRANCH   1  22
TORSDOF 6
