REMARK  Name = ZINC45249500
REMARK  7 active torsions:
REMARK  status: ('A' for Active; 'I' for Inactive)
REMARK    1  A    between atoms: C_1  and  C_2
REMARK    2  A    between atoms: C_2  and  C_3
REMARK    3  A    between atoms: C_2  and  C_4
REMARK    4  A    between atoms: C_2  and  O_5
REMARK    5  A    between atoms: O_5  and  C_6
REMARK    6  A    between atoms: C_12  and  C_15
REMARK    7  A    between atoms: C_25  and  C_27
REMARK                            x       y       z     vdW  Elec       q    Type
REMARK                         _______ _______ _______ _____ _____    ______ ____
ROOT
ATOM      1  C   UNL     1       5.659   1.647  -5.108  0.00  0.00    +0.221 C 
ATOM      2  O   UNL     1       6.351   1.067  -5.918  0.00  0.00    -0.275 OA
ATOM      3  N   UNL     1       6.218   2.181  -4.004  0.00  0.00    -0.287 N 
ATOM      4  C   UNL     1       5.388   2.796  -2.957  0.00  0.00    +0.130 C 
ATOM      5  C   UNL     1       5.530   1.992  -1.661  0.00  0.00    +0.140 C 
ATOM      6  N   UNL     1       6.950   1.715  -1.416  0.00  0.00    -0.347 N 
ATOM      7  C   UNL     1       7.522   1.353  -0.235  0.00  0.00    +0.086 A 
ATOM      8  C   UNL     1       8.845   1.185  -0.440  0.00  0.00    +0.019 A 
ATOM      9  C   UNL     1       9.101   1.457  -1.800  0.00  0.00    +0.025 A 
ATOM     10  C   UNL     1       7.930   1.780  -2.369  0.00  0.00    +0.044 A 
ATOM     11  C   UNL     1       7.680   2.160  -3.807  0.00  0.00    +0.153 C 
ENDROOT
BRANCH   1  18
ATOM     12  C   UNL     1       1.087   0.695  -4.008  0.00  0.00    +0.403 C 
ATOM     13  O   UNL     1       1.421   0.662  -2.840  0.00  0.00    -0.226 OA
ATOM     14  N   UNL     1       2.023   0.679  -4.977  0.00  0.00    -0.267 N 
ATOM     15  C   UNL     1       1.635   0.724  -6.393  0.00  0.00    +0.111 C 
ATOM     16  C   UNL     1       2.379   1.878  -7.072  0.00  0.00    +0.020 C 
ATOM     17  C   UNL     1       3.883   1.718  -6.837  0.00  0.00    +0.016 C 
ATOM     18  C   UNL     1       4.175   1.772  -5.336  0.00  0.00    +0.093 C 
ATOM     19  C   UNL     1       3.451   0.622  -4.638  0.00  0.00    +0.123 C 
BRANCH  12  20
ATOM     20  O   UNL     1      -0.219   0.746  -4.333  0.00  0.00    -0.445 OA
BRANCH  20  22
ATOM     21  C   UNL     1      -0.903   1.986  -2.375  0.00  0.00    +0.055 C 
ATOM     22  C   UNL     1      -1.156   0.760  -3.255  0.00  0.00    +0.107 C 
ATOM     23  C   UNL     1      -0.991  -0.511  -2.419  0.00  0.00    +0.055 C 
ATOM     24  C   UNL     1      -2.578   0.821  -3.816  0.00  0.00    +0.055 C 
ENDBRANCH  20  22
ENDBRANCH  12  20
ENDBRANCH   1  18
BRANCH  11  25
ATOM     25  C   UNL     1       8.308   1.142  -4.723  0.00  0.00    -0.021 A 
ATOM     26  C   UNL     1       7.978  -0.195  -4.601  0.00  0.00    +0.006 A 
ATOM     27  C   UNL     1       8.554  -1.129  -5.442  0.00  0.00    +0.000 A 
ATOM     28  C   UNL     1       9.459  -0.725  -6.406  0.00  0.00    +0.000 A 
ATOM     29  C   UNL     1       9.788   0.612  -6.529  0.00  0.00    +0.000 A 
ATOM     30  C   UNL     1       9.209   1.546  -5.691  0.00  0.00    +0.006 A 
ENDBRANCH  11  25
TORSDOF 4
