REMARK  Name = ZINC63399524
REMARK  5 active torsions:
REMARK  status: ('A' for Active; 'I' for Inactive)
REMARK    1  A    between atoms: C_7  and  C_10
REMARK    2  A    between atoms: C_10  and  C_11
REMARK    3  A    between atoms: C_11  and  C_12
REMARK    4  A    between atoms: C_21  and  S_23
REMARK    5  A    between atoms: S_23  and  N_26
REMARK                            x       y       z     vdW  Elec       q    Type
REMARK                         _______ _______ _______ _____ _____    ______ ____
ROOT
ATOM      1  C   UNL     1      -0.484  -4.830  -1.460  0.00  0.00    +0.220 C 
ATOM      2  O   UNL     1      -0.925  -5.254  -0.412  0.00  0.00    -0.275 OA
ATOM      3  N   UNL     1      -0.837  -5.413  -2.623  0.00  0.00    -0.271 N 
ATOM      4  C   UNL     1      -0.367  -4.997  -3.947  0.00  0.00    +0.118 C 
ATOM      5  C   UNL     1      -1.044  -5.960  -4.936  0.00  0.00    +0.056 C 
ATOM      6  C   UNL     1      -1.873  -6.878  -4.067  0.00  0.00    -0.023 A 
ATOM      7  C   UNL     1      -1.700  -6.507  -2.743  0.00  0.00    +0.040 A 
ATOM      8  C   UNL     1      -2.367  -7.220  -1.746  0.00  0.00    +0.026 A 
ATOM      9  C   UNL     1      -3.183  -8.281  -2.078  0.00  0.00    +0.030 A 
ATOM     10  C   UNL     1      -3.346  -8.646  -3.401  0.00  0.00    +0.106 A 
ATOM     11  C   UNL     1      -2.695  -7.939  -4.395  0.00  0.00    +0.034 A 
ENDROOT
BRANCH  10  12
ATOM     12  S   UNL     1      -4.390 -10.002  -3.822  0.00  0.00    +0.061 S 
ATOM     13  O   UNL     1      -3.943 -10.482  -5.083  0.00  0.00    -0.153 OA
ATOM     14  O   UNL     1      -4.458 -10.834  -2.671  0.00  0.00    -0.153 OA
BRANCH  12  15
ATOM     15  N   UNL     1      -5.912  -9.395  -4.058  0.00  0.00    -0.177 NA
ATOM     16  C   UNL     1      -6.859  -9.292  -2.940  0.00  0.00    +0.109 C 
ATOM     17  C   UNL     1      -7.375  -7.852  -2.861  0.00  0.00    +0.017 C 
ATOM     18  C   UNL     1      -7.958  -7.448  -4.217  0.00  0.00    +0.003 C 
ATOM     19  C   UNL     1      -6.862  -7.511  -5.284  0.00  0.00    +0.017 C 
ATOM     20  C   UNL     1      -6.338  -8.942  -5.389  0.00  0.00    +0.109 C 
ENDBRANCH  12  15
ENDBRANCH  10  12
BRANCH   1  21
ATOM     21  C   UNL     1       0.457  -3.653  -1.462  0.00  0.00    +0.101 C 
BRANCH  21  22
ATOM     22  C   UNL     1       0.691  -3.186  -0.024  0.00  0.00    +0.042 C 
BRANCH  22  29
ATOM     23  C   UNL     1      -0.016   1.348   0.009  0.00  0.00    +0.001 A 
ATOM     24  C   UNL     1       1.166   2.101   0.002  0.00  0.00    +0.002 A 
ATOM     25  C   UNL     1       2.391   1.535  -0.013  0.00  0.00    +0.026 A 
ATOM     26  C   UNL     1       2.529   0.120  -0.022  0.00  0.00    +0.043 A 
ATOM     27  N   UNL     1       3.587  -0.654  -0.037  0.00  0.00    -0.380 N 
ATOM     28  C   UNL     1       3.143  -2.053  -0.041  0.00  0.00    +0.144 C 
ATOM     29  C   UNL     1       1.631  -2.008  -0.025  0.00  0.00    -0.041 C 
ATOM     30  C   UNL     1       1.295  -0.698  -0.014  0.00  0.00    -0.001 A 
ATOM     31  C   UNL     1       0.002  -0.004   0.002  0.00  0.00    +0.010 A 
ATOM     32  H   UNL     1       4.509  -0.353  -0.045  0.00  0.00    +0.160 HD
ENDBRANCH  22  29
ENDBRANCH  21  22
ENDBRANCH   1  21
TORSDOF 5
