REMARK  Name = ZINC67302105
REMARK  5 active torsions:
REMARK  status: ('A' for Active; 'I' for Inactive)
REMARK    1  A    between atoms: C_1  and  C_2
REMARK    2  A    between atoms: C_2  and  C_3
REMARK    3  A    between atoms: C_2  and  N_4
REMARK    4  A    between atoms: C_13  and  C_15
REMARK    5  A    between atoms: N_19  and  C_22
REMARK                            x       y       z     vdW  Elec       q    Type
REMARK                         _______ _______ _______ _____ _____    ______ ____
ROOT
ATOM      1  N   UNL     1      -1.371  -0.513   0.016  0.00  0.00    -0.297 N 
ATOM      2  C   UNL     1      -1.643  -1.734  -0.485  0.00  0.00    +0.302 C 
ATOM      3  O   UNL     1      -0.766  -2.378  -1.028  0.00  0.00    -0.253 OA
ATOM      4  N   UNL     1      -2.888  -2.242  -0.385  0.00  0.00    -0.283 N 
ATOM      5  C   UNL     1      -3.985  -1.430   0.160  0.00  0.00    +0.128 C 
ATOM      6  C   UNL     1      -5.125  -1.396  -0.866  0.00  0.00    +0.127 C 
ATOM      7  N   UNL     1      -5.408  -2.771  -1.300  0.00  0.00    -0.298 N 
ATOM      8  C   UNL     1      -4.311  -3.583  -1.844  0.00  0.00    +0.127 C 
ATOM      9  C   UNL     1      -3.172  -3.616  -0.823  0.00  0.00    +0.128 C 
ATOM     10  C   UNL     1      -6.653  -3.279  -1.199  0.00  0.00    +0.228 C 
ATOM     11  O   UNL     1      -7.550  -2.599  -0.748  0.00  0.00    -0.275 OA
ATOM     12  H   UNL     1      -2.086   0.030   0.384  0.00  0.00    +0.150 HD
ENDROOT
BRANCH  10  13
ATOM     13  C   UNL     1      -6.928  -4.691  -1.647  0.00  0.00    +0.163 C 
ATOM     14  C   UNL     1      -8.428  -5.029  -1.478  0.00  0.00    +0.041 C 
ATOM     15  C   UNL     1      -8.692  -5.918  -2.714  0.00  0.00    +0.115 C 
ATOM     16  N   UNL     1      -7.686  -5.519  -3.705  0.00  0.00    -0.271 N 
ATOM     17  C   UNL     1      -6.678  -4.833  -3.133  0.00  0.00    +0.232 C 
ATOM     18  O   UNL     1      -5.713  -4.393  -3.720  0.00  0.00    -0.274 OA
BRANCH  16  19
ATOM     19  C   UNL     1      -7.764  -5.814  -5.072  0.00  0.00    +0.039 A 
ATOM     20  C   UNL     1      -8.848  -6.525  -5.569  0.00  0.00    +0.026 A 
ATOM     21  C   UNL     1      -8.923  -6.816  -6.917  0.00  0.00    +0.043 A 
ATOM     22  C   UNL     1      -7.919  -6.399  -7.774  0.00  0.00    +0.159 A 
ATOM     23  C   UNL     1      -6.835  -5.689  -7.281  0.00  0.00    +0.160 A 
ATOM     24  C   UNL     1      -6.760  -5.391  -5.932  0.00  0.00    +0.064 A 
ATOM     25  F   UNL     1      -5.856  -5.283  -8.118  0.00  0.00    -0.202 F 
ATOM     26  F   UNL     1      -7.995  -6.686  -9.092  0.00  0.00    -0.202 F 
ENDBRANCH  16  19
ENDBRANCH  10  13
BRANCH   1  28
ATOM     27  C   UNL     1      -0.017   1.524   0.020  0.00  0.00    +0.027 C 
ATOM     28  C   UNL     1       0.003  -0.006   0.006  0.00  0.00    +0.068 C 
ATOM     29  C   UNL     1       0.745  -0.518   1.242  0.00  0.00    +0.027 C 
ENDBRANCH   1  28
TORSDOF 3
