REMARK  Name = ZINC05065258
REMARK  8 active torsions:
REMARK  status: ('A' for Active; 'I' for Inactive)
REMARK    1  A    between atoms: C_1  and  C_2
REMARK    2  A    between atoms: C_2  and  O_3
REMARK    3  A    between atoms: O_3  and  C_4
REMARK    4  A    between atoms: C_4  and  C_6
REMARK    5  A    between atoms: C_9  and  N_12
REMARK    6  A    between atoms: C_13  and  C_23
REMARK    7  A    between atoms: N_25  and  C_26
REMARK    8  A    between atoms: C_29  and  C_32
REMARK                            x       y       z     vdW  Elec       q    Type
REMARK                         _______ _______ _______ _____ _____    ______ ____
ROOT
ATOM      1  N   UNL     1      -0.241  -1.140   5.950  0.00  0.00    -0.252 N 
ATOM      2  C   UNL     1      -0.486  -0.256   4.816  0.00  0.00    +0.213 C 
ATOM      3  C   UNL     1      -0.016   1.136   5.147  0.00  0.00    +0.049 A 
ATOM      4  C   UNL     1      -0.304   2.280   4.505  0.00  0.00    +0.025 A 
ATOM      5  C   UNL     1       0.363   3.322   5.181  0.00  0.00    +0.019 A 
ATOM      6  C   UNL     1       1.035   2.771   6.214  0.00  0.00    +0.086 A 
ATOM      7  N   UNL     1       0.808   1.431   6.200  0.00  0.00    -0.340 N 
ATOM      8  C   UNL     1       1.329   0.424   7.128  0.00  0.00    +0.217 C 
ATOM      9  C   UNL     1       0.557  -0.854   6.977  0.00  0.00    +0.241 C 
ATOM     10  O   UNL     1       0.667  -1.685   7.853  0.00  0.00    -0.273 OA
ENDROOT
BRANCH   1  14
ATOM     11  C   UNL     1      -2.180  -4.827   5.979  0.00  0.00    +0.059 A 
ATOM     12  C   UNL     1      -0.790  -4.767   5.838  0.00  0.00    +0.017 A 
ATOM     13  C   UNL     1      -0.153  -3.547   5.829  0.00  0.00    +0.024 A 
ATOM     14  C   UNL     1      -0.890  -2.374   5.960  0.00  0.00    +0.038 A 
ATOM     15  C   UNL     1      -2.273  -2.430   6.105  0.00  0.00    +0.024 A 
ATOM     16  C   UNL     1      -2.917  -3.646   6.109  0.00  0.00    +0.017 A 
BRANCH  11  17
ATOM     17  C   UNL     1      -2.866  -6.132   5.989  0.00  0.00    +0.339 C 
ATOM     18  O   UNL     1      -2.224  -7.157   5.875  0.00  0.00    -0.245 OA
BRANCH  17  19
ATOM     19  O   UNL     1      -4.206  -6.188   6.124  0.00  0.00    -0.461 OA
BRANCH  19  21
ATOM     20  C   UNL     1      -6.329  -7.369   6.287  0.00  0.00    +0.048 C 
ATOM     21  C   UNL     1      -4.814  -7.506   6.125  0.00  0.00    +0.229 C 
ENDBRANCH  19  21
ENDBRANCH  17  19
ENDBRANCH  11  17
ENDBRANCH   1  14
BRANCH   2  22
ATOM     22  C   UNL     1       0.264  -0.765   3.612  0.00  0.00    +0.240 C 
ATOM     23  O   UNL     1       0.941  -1.768   3.699  0.00  0.00    -0.273 OA
ATOM     24  N   UNL     1       0.183  -0.105   2.440  0.00  0.00    -0.311 N 
ATOM     25  H   UNL     1      -0.358   0.697   2.370  0.00  0.00    +0.149 HD
BRANCH  24  26
ATOM     26  C   UNL     1       0.912  -0.600   1.269  0.00  0.00    +0.073 C 
ATOM     27  C   UNL     1       0.218  -0.117  -0.006  0.00  0.00    +0.022 C 
ATOM     28  C   UNL     1       0.197   1.412  -0.027  0.00  0.00    +0.005 C 
ATOM     29  C   UNL     1       1.632   1.942   0.004  0.00  0.00    -0.014 C 
ATOM     30  C   UNL     1       2.326   1.460   1.279  0.00  0.00    +0.005 C 
ATOM     31  C   UNL     1       2.347  -0.070   1.300  0.00  0.00    +0.022 C 
ATOM     32  C   UNL     1       1.611   3.472  -0.018  0.00  0.00    +0.007 C 
ENDBRANCH  24  26
ENDBRANCH   2  22
TORSDOF 6
