REMARK  Name = ZINC60516918
REMARK  3 active torsions:
REMARK  status: ('A' for Active; 'I' for Inactive)
REMARK    1  A    between atoms: C_6  and  C_10
REMARK    2  A    between atoms: N_12  and  C_13
REMARK    3  A    between atoms: C_15  and  N_20
REMARK                            x       y       z     vdW  Elec       q    Type
REMARK                         _______ _______ _______ _____ _____    ______ ____
ROOT
ATOM      1  C   UNL     1       4.498  -3.195  -0.050  0.00  0.00    +0.255 C 
ATOM      2  O   UNL     1       5.670  -2.869  -0.063  0.00  0.00    -0.269 OA
ATOM      3  N   UNL     1       4.161  -4.500  -0.060  0.00  0.00    -0.279 N 
ATOM      4  H   UNL     1       3.230  -4.761   0.015  0.00  0.00    +0.155 HD
ENDROOT
BRANCH   1  10
ATOM      5  C   UNL     1      -0.013   1.377   0.069  0.00  0.00    +0.004 A 
ATOM      6  C   UNL     1       1.186   2.078   0.060  0.00  0.00    +0.039 A 
ATOM      7  C   UNL     1       2.393   1.430   0.034  0.00  0.00    +0.132 A 
ATOM      8  C   UNL     1       2.451   0.010   0.017  0.00  0.00    +0.025 A 
ATOM      9  C   UNL     1       3.590  -0.813  -0.009  0.00  0.00    +0.032 A 
ATOM     10  C   UNL     1       3.450  -2.166  -0.023  0.00  0.00    +0.075 A 
ATOM     11  S   UNL     1       1.679  -2.383  -0.000  0.00  0.00    -0.084 S 
ATOM     12  C   UNL     1       1.211  -0.670   0.026  0.00  0.00    +0.023 A 
ATOM     13  C   UNL     1       0.005  -0.003   0.052  0.00  0.00    +0.016 A 
ATOM     14  F   UNL     1       3.538   2.147   0.026  0.00  0.00    -0.205 F 
ENDBRANCH   1  10
BRANCH   3  15
ATOM     15  C   UNL     1       5.154  -5.478  -0.180  0.00  0.00    +0.071 A 
ATOM     16  C   UNL     1       6.400  -5.280   0.401  0.00  0.00    +0.059 A 
ATOM     17  C   UNL     1       7.379  -6.247   0.280  0.00  0.00    +0.128 A 
ATOM     18  C   UNL     1       7.120  -7.413  -0.417  0.00  0.00    +0.035 A 
ATOM     19  C   UNL     1       5.882  -7.615  -0.997  0.00  0.00    +0.042 A 
ATOM     20  C   UNL     1       4.895  -6.654  -0.876  0.00  0.00    +0.145 A 
ATOM     21  F   UNL     1       3.682  -6.854  -1.438  0.00  0.00    -0.204 F 
BRANCH  17  22
ATOM     22  N   UNL     1       8.707  -6.036   0.899  0.00  0.00    +0.056 N 
ATOM     23  O   UNL     1       8.934  -5.017   1.509  0.00  0.00    -0.126 OA
ATOM     24  O   UNL     1       9.564  -6.882   0.795  0.00  0.00    -0.126 OA
ENDBRANCH  17  22
ENDBRANCH   3  15
TORSDOF 3
