REMARK  Name = ZINC27076311
REMARK  10 active torsions:
REMARK  status: ('A' for Active; 'I' for Inactive)
REMARK    1  A    between atoms: C_1  and  C_2
REMARK    2  A    between atoms: C_3  and  C_28
REMARK    3  A    between atoms: C_4  and  C_27
REMARK    4  A    between atoms: C_7  and  C_8
REMARK    5  A    between atoms: N_13  and  S_16
REMARK    6  A    between atoms: S_16  and  C_19
REMARK    7  A    between atoms: C_22  and  O_25
REMARK    8  A    between atoms: O_25  and  C_26
REMARK    9  A    between atoms: C_28  and  O_30
REMARK   10  A    between atoms: O_30  and  C_31
REMARK                            x       y       z     vdW  Elec       q    Type
REMARK                         _______ _______ _______ _____ _____    ______ ____
ROOT
ATOM      1  C   UNL     1      -3.762   3.410  -3.633  0.00  0.00    +0.263 C 
ATOM      2  O   UNL     1      -4.083   4.578  -3.524  0.00  0.00    -0.268 OA
ATOM      3  N   UNL     1      -2.574   2.990  -3.154  0.00  0.00    -0.294 N 
ATOM      4  C   UNL     1      -1.619   3.946  -2.579  0.00  0.00    +0.125 C 
ATOM      5  C   UNL     1      -0.280   3.804  -3.314  0.00  0.00    +0.128 C 
ATOM      6  N   UNL     1       0.083   2.381  -3.357  0.00  0.00    -0.174 NA
ATOM      7  C   UNL     1      -0.871   1.424  -3.938  0.00  0.00    +0.128 C 
ATOM      8  C   UNL     1      -2.212   1.566  -3.198  0.00  0.00    +0.125 C 
ENDROOT
BRANCH   1  15
ATOM      9  C   UNL     1      -5.375   3.950  -6.248  0.00  0.00    +0.047 C 
ATOM     10  C   UNL     1      -5.378   2.685  -5.429  0.00  0.00    -0.006 A 
ATOM     11  C   UNL     1      -6.113   1.509  -5.700  0.00  0.00    +0.083 A 
ATOM     12  C   UNL     1      -5.822   0.607  -4.693  0.00  0.00    +0.028 A 
ATOM     13  N   UNL     1      -4.953   1.183  -3.847  0.00  0.00    -0.354 N 
ATOM     14  H   UNL     1      -4.591   0.628  -2.969  0.00  0.00    +0.166 HD
ATOM     15  C   UNL     1      -4.669   2.458  -4.287  0.00  0.00    +0.106 A 
ATOM     16  C   UNL     1      -6.384  -0.785  -4.567  0.00  0.00    +0.064 C 
BRANCH  11  17
ATOM     17  C   UNL     1      -7.021   1.288  -6.838  0.00  0.00    +0.341 C 
ATOM     18  O   UNL     1      -8.199   1.571  -6.739  0.00  0.00    -0.245 OA
BRANCH  17  19
ATOM     19  O   UNL     1      -6.547   0.771  -7.988  0.00  0.00    -0.464 OA
ATOM     20  C   UNL     1      -7.500   0.580  -9.067  0.00  0.00    +0.280 C 
ENDBRANCH  17  19
ENDBRANCH  11  17
ENDBRANCH   1  15
BRANCH   6  21
ATOM     21  S   UNL     1       1.542   1.864  -2.769  0.00  0.00    +0.061 S 
ATOM     22  O   UNL     1       1.834   0.638  -3.426  0.00  0.00    -0.153 OA
ATOM     23  O   UNL     1       2.418   2.982  -2.817  0.00  0.00    -0.153 OA
BRANCH  21  24
ATOM     24  C   UNL     1       1.310   1.479  -1.065  0.00  0.00    +0.106 A 
ATOM     25  C   UNL     1       1.506   2.454  -0.105  0.00  0.00    +0.032 A 
ATOM     26  C   UNL     1       1.319   2.156   1.231  0.00  0.00    +0.047 A 
ATOM     27  C   UNL     1       0.946   0.875   1.610  0.00  0.00    +0.120 A 
ATOM     28  C   UNL     1       0.756  -0.103   0.644  0.00  0.00    +0.047 A 
ATOM     29  C   UNL     1       0.939   0.201  -0.691  0.00  0.00    +0.032 A 
BRANCH  27  30
ATOM     30  O   UNL     1       0.767   0.578   2.924  0.00  0.00    -0.495 OA
ATOM     31  C   UNL     1       0.980   1.634   3.862  0.00  0.00    +0.277 C 
ENDBRANCH  27  30
ENDBRANCH  21  24
ENDBRANCH   6  21
TORSDOF 6
