REMARK  Name = ZINC04948827
REMARK  2 active torsions:
REMARK  status: ('A' for Active; 'I' for Inactive)
REMARK    1  A    between atoms: C_6  and  S_11
REMARK    2  A    between atoms: S_11  and  N_14
REMARK                            x       y       z     vdW  Elec       q    Type
REMARK                         _______ _______ _______ _____ _____    ______ ____
ROOT
ATOM      1  S   UNL     1       5.231  -2.823  -0.063  0.00  0.00    +0.100 S 
ATOM      2  O   UNL     1       4.984  -4.107  -0.618  0.00  0.00    -0.146 OA
ATOM      3  O   UNL     1       6.181  -1.923  -0.619  0.00  0.00    -0.146 OA
ENDROOT
BRANCH   1   9
ATOM      4  C   UNL     1      -0.016   1.357   0.009  0.00  0.00    +0.001 A 
ATOM      5  C   UNL     1       1.169   2.091   0.002  0.00  0.00    +0.001 A 
ATOM      6  C   UNL     1       2.378   1.468  -0.013  0.00  0.00    +0.008 A 
ATOM      7  C   UNL     1       2.438   0.063  -0.021  0.00  0.00    -0.016 A 
ATOM      8  C   UNL     1       3.668  -0.615  -0.036  0.00  0.00    +0.037 A 
ATOM      9  C   UNL     1       3.687  -1.976  -0.043  0.00  0.00    +0.113 A 
ATOM     10  C   UNL     1       2.502  -2.710  -0.036  0.00  0.00    +0.029 A 
ATOM     11  C   UNL     1       1.292  -2.087  -0.021  0.00  0.00    +0.010 A 
ATOM     12  C   UNL     1       1.233  -0.683  -0.013  0.00  0.00    -0.018 A 
ATOM     13  C   UNL     1       0.002  -0.004   0.002  0.00  0.00    +0.008 A 
ENDBRANCH   1   9
BRANCH   1  14
ATOM     14  N   UNL     1       5.677  -3.066   1.513  0.00  0.00    -0.118 NA
ATOM     15  C   UNL     1       6.785  -3.674   1.786  0.00  0.00    +0.117 C 
ATOM     16  C   UNL     1       7.688  -4.162   0.656  0.00  0.00    +0.073 C 
ATOM     17  C   UNL     1       8.932  -3.299   0.669  0.00  0.00    +0.008 C 
ATOM     18  C   UNL     1      10.033  -3.832   1.589  0.00  0.00    +0.002 C 
ATOM     19  C   UNL     1       9.502  -4.329   2.934  0.00  0.00    +0.019 C 
ATOM     20  C   UNL     1       8.457  -3.416   3.538  0.00  0.00    +0.102 C 
ATOM     21  N   UNL     1       7.141  -3.868   3.040  0.00  0.00    -0.331 N 
ATOM     22  H   UNL     1       6.532  -4.317   3.647  0.00  0.00    +0.147 HD
ENDBRANCH   1  14
TORSDOF 2
