REMARK  Name = ZINC60241520
REMARK  8 active torsions:
REMARK  status: ('A' for Active; 'I' for Inactive)
REMARK    1  A    between atoms: C_1  and  C_2
REMARK    2  A    between atoms: C_3  and  S_27
REMARK    3  A    between atoms: C_8  and  C_10
REMARK    4  A    between atoms: C_10  and  N_11
REMARK    5  A    between atoms: C_16  and  C_23
REMARK    6  A    between atoms: C_19  and  C_21
REMARK    7  A    between atoms: C_19  and  C_22
REMARK    8  A    between atoms: S_27  and  C_28
REMARK                            x       y       z     vdW  Elec       q    Type
REMARK                         _______ _______ _______ _____ _____    ______ ____
ROOT
ATOM      1  N   UNL     1       0.106  -6.526   2.126  0.00  0.00    -0.215 N 
ATOM      2  C   UNL     1      -1.001  -7.284   1.978  0.00  0.00    +0.247 C 
ATOM      3  O   UNL     1      -2.155  -6.920   2.052  0.00  0.00    -0.273 OA
ATOM      4  C   UNL     1      -0.499  -8.682   1.702  0.00  0.00    +0.113 C 
ATOM      5  C   UNL     1      -0.969  -9.155   0.331  0.00  0.00    +0.038 C 
ATOM      6  C   UNL     1      -0.425 -10.560   0.059  0.00  0.00    -0.011 C 
ATOM      7  C   UNL     1      -0.920 -11.517   1.144  0.00  0.00    +0.009 C 
ATOM      8  C   UNL     1      -0.421 -11.043   2.511  0.00  0.00    -0.032 C 
ATOM      9  C   UNL     1      -0.966  -9.640   2.793  0.00  0.00    +0.041 C 
ATOM     10  C   UNL     1       1.108 -11.006   2.510  0.00  0.00    +0.011 C 
ATOM     11  C   UNL     1      -0.908 -12.007   3.595  0.00  0.00    +0.011 C 
ATOM     12  C   UNL     1      -0.915 -11.041  -1.308  0.00  0.00    +0.007 C 
ATOM     13  N   UNL     1       0.963  -8.548   1.727  0.00  0.00    -0.285 N 
ATOM     14  C   UNL     1       1.222  -7.250   1.977  0.00  0.00    +0.310 C 
ATOM     15  O   UNL     1       2.343  -6.788   2.061  0.00  0.00    -0.252 OA
ATOM     16  H   UNL     1       1.614  -9.253   1.587  0.00  0.00    +0.151 HD
ENDROOT
BRANCH   1  17
ATOM     17  C   UNL     1       0.088  -5.089   2.409  0.00  0.00    +0.214 C 
BRANCH  17  25
ATOM     18  C   UNL     1      -0.008   1.040  -1.690  0.00  0.00    +0.067 C 
ATOM     19  C   UNL     1       0.013  -0.454  -1.491  0.00  0.00    +0.061 A 
ATOM     20  C   UNL     1       0.020  -1.289  -2.567  0.00  0.00    +0.069 A 
ATOM     21  S   UNL     1       0.044  -2.880  -1.751  0.00  0.00    -0.046 S 
ATOM     22  C   UNL     1       0.042  -2.266  -0.072  0.00  0.00    +0.166 A 
ATOM     23  N   UNL     1       0.029  -0.961  -0.272  0.00  0.00    -0.229 NA
ATOM     24  N   UNL     1       0.056  -2.974   1.126  0.00  0.00    -0.263 N 
ATOM     25  C   UNL     1       0.073  -4.322   1.112  0.00  0.00    +0.237 C 
ATOM     26  O   UNL     1       0.077  -4.917   0.055  0.00  0.00    -0.274 OA
ATOM     27  H   UNL     1       0.052  -2.498   1.971  0.00  0.00    +0.157 HD
BRANCH  20  28
ATOM     28  S   UNL     1       0.007  -0.907  -4.287  0.00  0.00    -0.120 S 
ATOM     29  C   UNL     1       0.026  -2.530  -5.098  0.00  0.00    +0.090 C 
ENDBRANCH  20  28
ENDBRANCH  17  25
ENDBRANCH   1  17
TORSDOF 3
