REMARK  Name = ZINC11634883
REMARK  4 active torsions:
REMARK  status: ('A' for Active; 'I' for Inactive)
REMARK    1  A    between atoms: C_6  and  C_7
REMARK    2  A    between atoms: C_13  and  C_15
REMARK    3  A    between atoms: C_15  and  O_16
REMARK    4  A    between atoms: O_16  and  C_17
REMARK                            x       y       z     vdW  Elec       q    Type
REMARK                         _______ _______ _______ _____ _____    ______ ____
ROOT
ATOM      1  C   UNL     1      -6.375   0.398   1.158  0.00  0.00    +0.250 A 
ATOM      2  N   UNL     1      -7.095   0.086   0.107  0.00  0.00    -0.106 NA
ATOM      3  N   UNL     1      -8.315  -0.109   0.467  0.00  0.00    -0.092 NA
ATOM      4  C   UNL     1      -8.423   0.079   1.760  0.00  0.00    +0.315 A 
ATOM      5  O   UNL     1      -7.202   0.403   2.225  0.00  0.00    -0.405 OA
ATOM      6  N   UNL     1      -9.583  -0.035   2.511  0.00  0.00    -0.236 N 
ATOM      7  C   UNL     1     -10.743  -0.368   1.911  0.00  0.00    +0.258 C 
ATOM      8  O   UNL     1     -10.773  -0.569   0.716  0.00  0.00    -0.272 OA
ATOM      9  H   UNL     1      -9.559   0.125   3.467  0.00  0.00    +0.159 HD
ENDROOT
BRANCH   1  15
ATOM     10  C   UNL     1      -4.287   1.020   2.367  0.00  0.00    +0.013 A 
ATOM     11  C   UNL     1      -2.938   1.297   2.363  0.00  0.00    +0.004 A 
ATOM     12  C   UNL     1      -2.208   1.256   1.181  0.00  0.00    -0.044 A 
ATOM     13  C   UNL     1      -2.834   0.931  -0.004  0.00  0.00    -0.043 A 
ATOM     14  C   UNL     1      -4.192   0.653  -0.012  0.00  0.00    +0.017 A 
ATOM     15  C   UNL     1      -4.928   0.695   1.171  0.00  0.00    +0.039 A 
ATOM     16  C   UNL     1      -2.099   0.862  -1.317  0.00  0.00    +0.035 C 
ATOM     17  C   UNL     1      -0.765   1.599  -1.226  0.00  0.00    +0.005 C 
ATOM     18  C   UNL     1      -0.013   1.086   0.008  0.00  0.00    +0.005 C 
ATOM     19  C   UNL     1      -0.738   1.584   1.256  0.00  0.00    +0.035 C 
ENDBRANCH   1  15
BRANCH   7  20
ATOM     20  C   UNL     1     -12.004  -0.492   2.727  0.00  0.00    +0.325 C 
BRANCH  20  21
ATOM     21  O   UNL     1     -13.091  -0.852   1.873  0.00  0.00    -0.481 OA
BRANCH  21  22
ATOM     22  C   UNL     1     -14.310  -1.005   2.455  0.00  0.00    +0.140 A 
ATOM     23  C   UNL     1     -14.456  -0.813   3.821  0.00  0.00    +0.048 A 
ATOM     24  C   UNL     1     -15.695  -0.969   4.411  0.00  0.00    +0.023 A 
ATOM     25  C   UNL     1     -16.791  -1.317   3.641  0.00  0.00    +0.043 A 
ATOM     26  C   UNL     1     -16.648  -1.509   2.279  0.00  0.00    +0.043 A 
ATOM     27  C   UNL     1     -15.411  -1.348   1.683  0.00  0.00    +0.084 A 
ATOM     28 CL   UNL     1     -15.234  -1.582  -0.028  0.00  0.00    -0.080 Cl
ATOM     29 CL   UNL     1     -18.347  -1.512   4.386  0.00  0.00    -0.083 Cl
ENDBRANCH  21  22
ENDBRANCH  20  21
ENDBRANCH   7  20
TORSDOF 4
