REMARK  Name = ZINC10386844
REMARK  4 active torsions:
REMARK  status: ('A' for Active; 'I' for Inactive)
REMARK    1  A    between atoms: C_1  and  C_2
REMARK    2  A    between atoms: C_5  and  N_8
REMARK    3  A    between atoms: C_13  and  N_17
REMARK    4  A    between atoms: N_17  and  C_18
REMARK                            x       y       z     vdW  Elec       q    Type
REMARK                         _______ _______ _______ _____ _____    ______ ____
ROOT
ATOM      1  N   UNL     1       1.503  -1.989  -0.023  0.00  0.00    -0.214 N 
ATOM      2  C   UNL     1       1.156  -0.668  -0.013  0.00  0.00    +0.168 A 
ATOM      3  C   UNL     1       2.361   0.063  -0.020  0.00  0.00    +0.079 A 
ATOM      4  C   UNL     1       3.414  -0.876  -0.035  0.00  0.00    +0.148 A 
ATOM      5  N   UNL     1       2.901  -2.074  -0.037  0.00  0.00    -0.172 NA
ATOM      6  C   UNL     1       2.287   1.469  -0.012  0.00  0.00    +0.133 A 
ATOM      7  N   UNL     1       1.087   2.039   0.003  0.00  0.00    -0.220 NA
ATOM      8  C   UNL     1      -0.016   1.311   0.009  0.00  0.00    +0.225 A 
ATOM      9  N   UNL     1       0.002  -0.004   0.002  0.00  0.00    -0.216 NA
ENDROOT
BRANCH   1  14
ATOM     10  C   UNL     1      -2.097  -6.375  -0.014  0.00  0.00    +0.044 C 
ATOM     11  C   UNL     1      -1.141  -5.210  -0.016  0.00  0.00    -0.050 A 
ATOM     12  C   UNL     1       0.049  -5.296  -0.715  0.00  0.00    +0.005 A 
ATOM     13  C   UNL     1       0.928  -4.230  -0.719  0.00  0.00    +0.028 A 
ATOM     14  C   UNL     1       0.615  -3.071  -0.021  0.00  0.00    +0.068 A 
ATOM     15  C   UNL     1      -0.579  -2.991   0.685  0.00  0.00    +0.028 A 
ATOM     16  C   UNL     1      -1.455  -4.058   0.681  0.00  0.00    +0.005 A 
ENDBRANCH   1  14
BRANCH   6  17
ATOM     17  N   UNL     1       3.435   2.237  -0.020  0.00  0.00    -0.323 N 
ATOM     18  H   UNL     1       4.305   1.809  -0.030  0.00  0.00    +0.148 HD
BRANCH  17  19
ATOM     19  C   UNL     1       3.338   3.699  -0.011  0.00  0.00    +0.034 C 
ATOM     20  C   UNL     1       2.597   4.154   1.248  0.00  0.00    +0.029 C 
ATOM     21  C   UNL     1       2.495   5.680   1.256  0.00  0.00    -0.008 C 
ATOM     22  C   UNL     1       3.901   6.285   1.246  0.00  0.00    +0.007 C 
ATOM     23  C   UNL     1       4.642   5.830  -0.013  0.00  0.00    -0.008 C 
ATOM     24  C   UNL     1       4.744   4.303  -0.022  0.00  0.00    +0.029 C 
ATOM     25  C   UNL     1       3.877   6.298  -1.253  0.00  0.00    +0.007 C 
ATOM     26  C   UNL     1       2.471   5.693  -1.242  0.00  0.00    -0.008 C 
ATOM     27  C   UNL     1       1.730   6.148   0.017  0.00  0.00    +0.007 C 
ATOM     28  C   UNL     1       2.572   4.167  -1.251  0.00  0.00    +0.029 C 
ENDBRANCH  17  19
ENDBRANCH   6  17
TORSDOF 3
