REMARK  Name = ZINC39631660
REMARK  12 active torsions:
REMARK  status: ('A' for Active; 'I' for Inactive)
REMARK    1  A    between atoms: C_1  and  C_2
REMARK    2  A    between atoms: C_4  and  C_9
REMARK    3  A    between atoms: C_13  and  C_22
REMARK    4  A    between atoms: N_24  and  C_25
REMARK    5  A    between atoms: C_25  and  C_27
REMARK    6  A    between atoms: C_25  and  C_28
REMARK    7  A    between atoms: C_28  and  C_29
REMARK    8  A    between atoms: C_29  and  C_30
REMARK    9  A    between atoms: C_30  and  C_31
REMARK   10  A    between atoms: C_31  and  C_32
REMARK   11  A    between atoms: C_31  and  C_33
REMARK   12  A    between atoms: C_31  and  O_34
REMARK                            x       y       z     vdW  Elec       q    Type
REMARK                         _______ _______ _______ _____ _____    ______ ____
ROOT
ATOM      1  C   UNL     1      -1.885  -1.600  -2.003  0.00  0.00    +0.247 C 
ATOM      2  O   UNL     1      -2.099  -1.063  -3.072  0.00  0.00    -0.270 OA
ATOM      3  N   UNL     1      -1.360  -2.841  -1.965  0.00  0.00    -0.296 N 
ATOM      4  C   UNL     1      -1.139  -3.697  -0.776  0.00  0.00    +0.121 C 
ATOM      5  C   UNL     1      -1.511  -5.121  -1.247  0.00  0.00    +0.100 C 
ATOM      6  C   UNL     1      -1.333  -5.089  -2.774  0.00  0.00    -0.004 C 
ATOM      7  C   UNL     1      -0.879  -3.659  -3.104  0.00  0.00    +0.115 C 
ATOM      8  C   UNL     1      -2.658  -5.388  -3.467  0.00  0.00    -0.010 C 
ATOM      9  C   UNL     1      -2.443  -5.407  -4.983  0.00  0.00    -0.082 C 
ATOM     10  N   UNL     1      -1.447  -6.429  -5.326  0.00  0.00    +0.379 N 
ATOM     11  C   UNL     1      -0.150  -6.084  -4.731  0.00  0.00    -0.082 C 
ATOM     12  C   UNL     1      -0.268  -6.094  -3.204  0.00  0.00    -0.010 C 
ATOM     13  H   UNL     1      -1.750  -7.324  -4.972  0.00  0.00    -0.086 HD
ATOM     14  H   UNL     1      -1.352  -6.481  -6.329  0.00  0.00    -0.086 HD
ENDROOT
BRANCH   1  18
ATOM     15  C   UNL     1      -4.310   2.027   0.416  0.00  0.00    +0.047 C 
ATOM     16  C   UNL     1      -3.366   0.852   0.423  0.00  0.00    -0.015 A 
ATOM     17  C   UNL     1      -3.075   0.196  -0.753  0.00  0.00    +0.019 A 
ATOM     18  C   UNL     1      -2.200  -0.892  -0.745  0.00  0.00    +0.037 A 
ATOM     19  C   UNL     1      -1.625  -1.310   0.457  0.00  0.00    +0.016 A 
ATOM     20  C   UNL     1      -1.922  -0.646   1.628  0.00  0.00    +0.039 A 
ATOM     21  C   UNL     1      -2.788   0.437   1.613  0.00  0.00    +0.126 A 
ATOM     22  F   UNL     1      -3.072   1.087   2.763  0.00  0.00    -0.205 F 
ENDBRANCH   1  18
BRANCH   5  23
ATOM     23  C   UNL     1      -2.941  -5.436  -0.890  0.00  0.00    +0.218 C 
ATOM     24  O   UNL     1      -3.769  -4.551  -0.869  0.00  0.00    -0.275 OA
ATOM     25  N   UNL     1      -3.299  -6.701  -0.594  0.00  0.00    -0.312 N 
ATOM     26  H   UNL     1      -2.655  -7.421  -0.685  0.00  0.00    +0.149 HD
BRANCH  25  27
ATOM     27  C   UNL     1      -4.660  -6.989  -0.134  0.00  0.00    +0.070 C 
ATOM     28  C   UNL     1      -5.571  -7.209  -1.343  0.00  0.00    +0.028 C 
BRANCH  27  29
ATOM     29  C   UNL     1      -4.649  -8.249   0.733  0.00  0.00    +0.022 C 
BRANCH  29  30
ATOM     30  C   UNL     1      -3.792  -8.006   1.977  0.00  0.00    +0.005 C 
BRANCH  30  31
ATOM     31  C   UNL     1      -3.686  -9.301   2.785  0.00  0.00    +0.034 C 
BRANCH  31  32
ATOM     32  C   UNL     1      -2.939  -9.027   4.092  0.00  0.00    +0.061 C 
ATOM     33  C   UNL     1      -2.898 -10.305   4.933  0.00  0.00    +0.041 C 
ATOM     34  C   UNL     1      -1.512  -8.576   3.778  0.00  0.00    +0.041 C 
BRANCH  32  35
ATOM     35  O   UNL     1      -3.615  -7.999   4.820  0.00  0.00    -0.389 OA
ATOM     36  H   UNL     1      -3.195  -7.774   5.662  0.00  0.00    +0.210 HD
ENDBRANCH  32  35
ENDBRANCH  31  32
ENDBRANCH  30  31
ENDBRANCH  29  30
ENDBRANCH  27  29
ENDBRANCH  25  27
ENDBRANCH   5  23
TORSDOF 8
