REMARK  Name = ZINC04194091
REMARK  4 active torsions:
REMARK  status: ('A' for Active; 'I' for Inactive)
REMARK    1  A    between atoms: C_1  and  C_2
REMARK    2  A    between atoms: C_5  and  C_8
REMARK    3  A    between atoms: C_13  and  S_17
REMARK    4  A    between atoms: S_17  and  C_18
REMARK                            x       y       z     vdW  Elec       q    Type
REMARK                         _______ _______ _______ _____ _____    ______ ____
ROOT
ATOM      1  C   UNL     1       0.059  -4.275  -0.021  0.00  0.00    +0.092 C 
ATOM      2  C   UNL     1      -1.168  -4.786   0.672  0.00  0.00    +0.069 A 
ATOM      3  C   UNL     1      -1.104  -5.269   1.942  0.00  0.00    +0.111 A 
ATOM      4  N   UNL     1      -2.248  -5.721   2.547  0.00  0.00    -0.322 N 
ATOM      5  C   UNL     1      -3.434  -5.685   1.877  0.00  0.00    +0.171 A 
ATOM      6  N   UNL     1      -3.508  -5.223   0.646  0.00  0.00    -0.185 NA
ATOM      7  C   UNL     1      -2.416  -4.771   0.012  0.00  0.00    +0.280 A 
ATOM      8  O   UNL     1      -2.501  -4.346  -1.132  0.00  0.00    -0.265 OA
ATOM      9  N   UNL     1       0.098  -5.306   2.609  0.00  0.00    -0.304 N 
ATOM     10  C   UNL     1       1.280  -5.234   1.923  0.00  0.00    +0.017 C 
ATOM     11  C   UNL     1       1.314  -4.757   0.662  0.00  0.00    +0.024 C 
ATOM     12  C   UNL     1       2.522  -4.693  -0.053  0.00  0.00    +0.162 C 
ATOM     13  C   UNL     1       3.816  -5.160   0.556  0.00  0.00    +0.080 C 
ATOM     14  C   UNL     1       3.516  -6.257   1.583  0.00  0.00    +0.014 C 
ATOM     15  C   UNL     1       2.539  -5.697   2.614  0.00  0.00    +0.051 C 
ATOM     16  O   UNL     1       2.522  -4.252  -1.186  0.00  0.00    -0.292 OA
ATOM     17  H   UNL     1       0.108  -5.384   3.576  0.00  0.00    +0.153 HD
ATOM     18  H   UNL     1      -2.213  -6.066   3.453  0.00  0.00    +0.169 HD
ENDROOT
BRANCH   1  23
ATOM     19  C   UNL     1      -0.018   1.503   0.010  0.00  0.00    +0.044 C 
ATOM     20  C   UNL     1       0.002  -0.004   0.002  0.00  0.00    -0.050 A 
ATOM     21  C   UNL     1       0.006  -0.689  -1.199  0.00  0.00    +0.003 A 
ATOM     22  C   UNL     1       0.025  -2.071  -1.206  0.00  0.00    +0.005 A 
ATOM     23  C   UNL     1       0.040  -2.768  -0.013  0.00  0.00    -0.035 A 
ATOM     24  C   UNL     1       0.037  -2.084   1.188  0.00  0.00    +0.005 A 
ATOM     25  C   UNL     1       0.023  -0.702   1.195  0.00  0.00    +0.003 A 
ENDBRANCH   1  23
BRANCH   5  26
ATOM     26  S   UNL     1      -4.895  -6.268   2.672  0.00  0.00    -0.091 S 
ATOM     27  C   UNL     1      -6.195  -6.032   1.429  0.00  0.00    +0.093 C 
ENDBRANCH   5  26
TORSDOF 2
