REMARK  Name = ZINC66976734
REMARK  10 active torsions:
REMARK  status: ('A' for Active; 'I' for Inactive)
REMARK    1  A    between atoms: C_1  and  C_2
REMARK    2  A    between atoms: C_2  and  N_3
REMARK    3  A    between atoms: N_3  and  C_4
REMARK    4  A    between atoms: N_3  and  S_26
REMARK    5  A    between atoms: N_12  and  C_13
REMARK    6  A    between atoms: C_16  and  C_25
REMARK    7  A    between atoms: C_20  and  C_22
REMARK    8  A    between atoms: C_22  and  C_23
REMARK    9  A    between atoms: C_22  and  C_24
REMARK   10  A    between atoms: S_26  and  C_29
REMARK                            x       y       z     vdW  Elec       q    Type
REMARK                         _______ _______ _______ _____ _____    ______ ____
ROOT
ATOM      1  C   UNL     1      -0.284  -1.022   2.139  0.00  0.00    +0.082 C 
ATOM      2  C   UNL     1      -1.035   0.293   2.365  0.00  0.00    +0.039 C 
ATOM      3  C   UNL     1      -1.857   0.191   3.654  0.00  0.00    +0.111 C 
ATOM      4  N   UNL     1      -2.724  -0.992   3.571  0.00  0.00    -0.286 N 
ATOM      5  C   UNL     1      -2.114  -2.294   3.267  0.00  0.00    +0.111 C 
ATOM      6  C   UNL     1      -1.289  -2.165   1.982  0.00  0.00    +0.039 C 
ATOM      7  C   UNL     1      -4.053  -0.886   3.769  0.00  0.00    +0.302 C 
ATOM      8  O   UNL     1      -4.533   0.178   4.110  0.00  0.00    -0.253 OA
ATOM      9  N   UNL     1      -4.849  -1.958   3.589  0.00  0.00    -0.296 N 
ATOM     10  H   UNL     1      -4.459  -2.825   3.394  0.00  0.00    +0.151 HD
ENDROOT
BRANCH   9  11
ATOM     11  C   UNL     1      -6.303  -1.816   3.689  0.00  0.00    +0.078 C 
ATOM     12  C   UNL     1      -6.705  -1.701   5.162  0.00  0.00    +0.026 C 
ATOM     13  C   UNL     1      -6.263  -2.961   5.910  0.00  0.00    -0.012 C 
ATOM     14  C   UNL     1      -6.939  -4.186   5.290  0.00  0.00    +0.004 C 
ATOM     15  C   UNL     1      -6.538  -4.300   3.818  0.00  0.00    +0.006 C 
ATOM     16  C   UNL     1      -6.980  -3.040   3.070  0.00  0.00    +0.012 C 
ATOM     17  C   UNL     1      -4.744  -3.110   5.805  0.00  0.00    +0.007 C 
BRANCH  16  18
ATOM     18  C   UNL     1      -6.579  -3.155   1.598  0.00  0.00    -0.012 C 
ATOM     19  C   UNL     1      -7.255  -4.379   0.979  0.00  0.00    +0.007 C 
ATOM     20  C   UNL     1      -7.020  -1.895   0.850  0.00  0.00    +0.007 C 
ENDBRANCH  16  18
ENDBRANCH   9  11
BRANCH   1  21
ATOM     21  N   UNL     1       0.529  -0.916   0.925  0.00  0.00    -0.179 NA
BRANCH  21  22
ATOM     22  S   UNL     1       2.162  -1.177   0.997  0.00  0.00    +0.029 S 
ATOM     23  O   UNL     1       2.344  -2.035   2.115  0.00  0.00    -0.158 OA
ATOM     24  O   UNL     1       2.519  -1.606  -0.310  0.00  0.00    -0.158 OA
ATOM     25  C   UNL     1       2.880   0.453   1.338  0.00  0.00    +0.215 C 
ENDBRANCH  21  22
BRANCH  21  27
ATOM     26  C   UNL     1      -0.605  -1.860  -1.026  0.00  0.00    +0.022 C 
ATOM     27  C   UNL     1      -0.104  -0.581  -0.353  0.00  0.00    +0.106 C 
ENDBRANCH  21  27
ENDBRANCH   1  21
TORSDOF 5
