REMARK  Name = ZINC67425059
REMARK  8 active torsions:
REMARK  status: ('A' for Active; 'I' for Inactive)
REMARK    1  A    between atoms: C_1  and  C_2
REMARK    2  A    between atoms: C_2  and  C_4
REMARK    3  A    between atoms: C_2  and  N_13
REMARK    4  A    between atoms: C_4  and  O_5
REMARK    5  A    between atoms: O_5  and  C_6
REMARK    6  A    between atoms: C_14  and  C_16
REMARK    7  A    between atoms: N_18  and  C_19
REMARK    8  A    between atoms: C_23  and  C_25
REMARK                            x       y       z     vdW  Elec       q    Type
REMARK                         _______ _______ _______ _____ _____    ______ ____
ROOT
ATOM      1  C   UNL     1       0.773  -1.130   3.565  0.00  0.00    +0.303 C 
ATOM      2  O   UNL     1       1.952  -1.410   3.495  0.00  0.00    -0.265 OA
ATOM      3  N   UNL     1       0.114  -1.272   4.732  0.00  0.00    -0.278 N 
ATOM      4  H   UNL     1      -0.810  -0.986   4.806  0.00  0.00    +0.155 HD
ENDROOT
BRANCH   3   5
ATOM      5  C   UNL     1       0.762  -1.833   5.836  0.00  0.00    +0.035 A 
ATOM      6  C   UNL     1       2.114  -1.586   6.049  0.00  0.00    +0.025 A 
ATOM      7  C   UNL     1       2.760  -2.138   7.138  0.00  0.00    +0.022 A 
ATOM      8  C   UNL     1       2.066  -2.940   8.025  0.00  0.00    +0.053 A 
ATOM      9  C   UNL     1       0.708  -3.194   7.820  0.00  0.00    +0.057 A 
ATOM     10  C   UNL     1       0.055  -2.631   6.723  0.00  0.00    +0.037 A 
ATOM     11 CL   UNL     1       2.883  -3.632   9.391  0.00  0.00    -0.083 Cl
BRANCH   9  12
ATOM     12  C   UNL     1      -0.037  -4.051   8.766  0.00  0.00    +0.243 C 
ATOM     13  O   UNL     1       0.532  -4.536   9.724  0.00  0.00    -0.270 OA
ATOM     14  N   UNL     1      -1.348  -4.294   8.566  0.00  0.00    -0.325 N 
ATOM     15  H   UNL     1      -1.802  -3.907   7.802  0.00  0.00    +0.145 HD
ATOM     16  H   UNL     1      -1.837  -4.857   9.187  0.00  0.00    +0.145 HD
ENDBRANCH   9  12
ENDBRANCH   3   5
BRANCH   1  18
ATOM     17  N   UNL     1       0.711  -0.485   1.190  0.00  0.00    -0.302 N 
ATOM     18  C   UNL     1       0.052  -0.627   2.357  0.00  0.00    +0.300 C 
ATOM     19  O   UNL     1      -1.126  -0.347   2.427  0.00  0.00    -0.265 OA
ATOM     20  H   UNL     1       1.653  -0.709   1.135  0.00  0.00    +0.150 HD
BRANCH  17  22
ATOM     21  C   UNL     1      -0.005   1.538   0.018  0.00  0.00    +0.031 C 
ATOM     22  C   UNL     1       0.005   0.008   0.005  0.00  0.00    +0.108 C 
BRANCH  22  23
ATOM     23  C   UNL     1       0.716  -0.487  -1.256  0.00  0.00    +0.251 C 
BRANCH  23  24
ATOM     24  O   UNL     1       2.020   0.092  -1.325  0.00  0.00    -0.487 OA
BRANCH  24  25
ATOM     25  C   UNL     1       2.790  -0.247  -2.394  0.00  0.00    +0.156 A 
ATOM     26  C   UNL     1       2.297  -1.115  -3.357  0.00  0.00    +0.048 A 
ATOM     27  C   UNL     1       3.081  -1.458  -4.442  0.00  0.00    +0.004 A 
ATOM     28  C   UNL     1       4.356  -0.939  -4.568  0.00  0.00    +0.003 A 
ATOM     29  C   UNL     1       4.851  -0.074  -3.610  0.00  0.00    +0.042 A 
ATOM     30  C   UNL     1       4.069   0.279  -2.525  0.00  0.00    +0.165 A 
ATOM     31  F   UNL     1       4.550   1.128  -1.591  0.00  0.00    -0.202 F 
ENDBRANCH  24  25
ENDBRANCH  23  24
ENDBRANCH  22  23
ENDBRANCH  17  22
ENDBRANCH   1  18
TORSDOF 7
