REMARK  Name = ZINC36827294
REMARK  2 active torsions:
REMARK  status: ('A' for Active; 'I' for Inactive)
REMARK    1  A    between atoms: C_6  and  C_21
REMARK    2  A    between atoms: C_7  and  N_9
REMARK                            x       y       z     vdW  Elec       q    Type
REMARK                         _______ _______ _______ _____ _____    ______ ____
ROOT
ATOM      1  C   UNL     1      -0.017   1.370   0.010  0.00  0.00    +0.101 A 
ATOM      2  C   UNL     1       1.121   2.068   0.003  0.00  0.00    +0.067 A 
ATOM      3  S   UNL     1       2.344   0.766  -0.016  0.00  0.00    -0.058 S 
ATOM      4  C   UNL     1       1.219  -0.611  -0.013  0.00  0.00    +0.180 A 
ATOM      5  N   UNL     1       0.002  -0.004   0.002  0.00  0.00    -0.286 N 
ATOM      6  C   UNL     1      -0.926  -1.062   0.005  0.00  0.00    +0.176 A 
ATOM      7  C   UNL     1      -0.196  -2.236  -0.008  0.00  0.00    +0.140 A 
ATOM      8  N   UNL     1       1.091  -1.916  -0.019  0.00  0.00    -0.207 NA
ENDROOT
BRANCH   7   9
ATOM      9  N   UNL     1      -0.721  -3.532  -0.010  0.00  0.00    -0.375 NA
ATOM     10  C   UNL     1      -0.281  -4.235  -1.222  0.00  0.00    +0.086 C 
ATOM     11  C   UNL     1      -0.918  -5.625  -1.269  0.00  0.00    +0.018 C 
ATOM     12  C   UNL     1      -0.489  -6.420  -0.032  0.00  0.00    +0.007 C 
ATOM     13  C   UNL     1      -0.887  -5.641   1.225  0.00  0.00    +0.008 C 
ATOM     14  C   UNL     1      -0.251  -4.250   1.181  0.00  0.00    +0.060 C 
ATOM     15  C   UNL     1      -0.643  -3.470   2.437  0.00  0.00    +0.021 C 
ATOM     16  C   UNL     1      -0.149  -4.218   3.677  0.00  0.00    +0.002 C 
ATOM     17  C   UNL     1      -0.784  -5.609   3.721  0.00  0.00    +0.000 C 
ATOM     18  C   UNL     1      -0.395  -6.391   2.465  0.00  0.00    +0.005 C 
ATOM     19  H   UNL     1      -1.729  -3.485   0.002  0.00  0.00    +0.128 HD
ENDBRANCH   7   9
BRANCH   6  20
ATOM     20  C   UNL     1      -2.331  -0.947   0.020  0.00  0.00    +0.406 C 
ATOM     21  O   UNL     1      -2.901   0.258   0.032  0.00  0.00    -0.239 OA
ATOM     22  O   UNL     1      -3.090  -2.042   0.022  0.00  0.00    -0.239 OA
ENDBRANCH   6  20
TORSDOF 2
