REMARK  Name = ZINC24239715
REMARK  6 active torsions:
REMARK  status: ('A' for Active; 'I' for Inactive)
REMARK    1  A    between atoms: C_1  and  C_2
REMARK    2  A    between atoms: C_2  and  C_4
REMARK    3  A    between atoms: C_2  and  N_16
REMARK    4  A    between atoms: N_9  and  C_10
REMARK    5  A    between atoms: C_10  and  C_11
REMARK    6  A    between atoms: N_19  and  C_22
REMARK                            x       y       z     vdW  Elec       q    Type
REMARK                         _______ _______ _______ _____ _____    ______ ____
ROOT
ATOM      1  C   UNL     1      -0.347  -0.407   0.004  0.00  0.00    -0.004 C 
ATOM      2  C   UNL     1      -0.013   1.086   0.008  0.00  0.00    +0.017 C 
ENDROOT
BRANCH   2   3
ATOM      3  C   UNL     1      -0.678   1.753  -1.169  0.00  0.00    +0.207 C 
ATOM      4  O   UNL     1      -1.659   2.444  -0.999  0.00  0.00    -0.277 OA
ATOM      5  N   UNL     1      -0.181   1.581  -2.410  0.00  0.00    -0.242 N 
ATOM      6  C   UNL     1      -0.775   2.178  -3.462  0.00  0.00    +0.306 C 
ATOM      7  O   UNL     1      -1.760   2.870  -3.291  0.00  0.00    -0.252 OA
ATOM      8  N   UNL     1      -0.279   2.006  -4.703  0.00  0.00    -0.294 N 
ATOM      9  H   UNL     1       0.710   0.954  -2.564  0.00  0.00    +0.159 HD
ATOM     10  H   UNL     1       0.612   1.379  -4.857  0.00  0.00    +0.151 HD
BRANCH   8  11
ATOM     11  C   UNL     1      -0.925   2.654  -5.847  0.00  0.00    +0.148 C 
BRANCH  11  12
ATOM     12  C   UNL     1      -0.180   2.305  -7.109  0.00  0.00    +0.007 A 
ATOM     13  C   UNL     1      -0.371   1.260  -7.951  0.00  0.00    +0.013 A 
ATOM     14  C   UNL     1       0.439   1.140  -9.065  0.00  0.00    +0.008 A 
ATOM     15  C   UNL     1       1.407   2.064  -9.276  0.00  0.00    +0.045 A 
ATOM     16  S   UNL     1       1.188   3.155  -7.880  0.00  0.00    -0.100 S 
ENDBRANCH  11  12
ENDBRANCH   8  11
ENDBRANCH   2   3
BRANCH   2  17
ATOM     17  N   UNL     1      -0.499   1.693   1.254  0.00  0.00    +0.389 N 
ATOM     18  C   UNL     1       0.378   1.353   2.383  0.00  0.00    -0.059 C 
ATOM     19  C   UNL     1      -0.116   2.067   3.643  0.00  0.00    +0.086 C 
ATOM     20  N   UNL     1      -1.503   1.666   3.918  0.00  0.00    -0.331 N 
ATOM     21  C   UNL     1      -2.380   2.006   2.789  0.00  0.00    +0.086 C 
ATOM     22  C   UNL     1      -1.886   1.292   1.529  0.00  0.00    -0.059 C 
ATOM     23  H   UNL     1      -0.480   2.785   1.127  0.00  0.00    -0.081 HD
BRANCH  20  24
ATOM     24  C   UNL     1      -1.966   2.244   5.104  0.00  0.00    +0.065 A 
ATOM     25  C   UNL     1      -3.232   1.933   5.582  0.00  0.00    +0.026 A 
ATOM     26  C   UNL     1      -3.685   2.502   6.757  0.00  0.00    +0.002 A 
ATOM     27  C   UNL     1      -2.883   3.389   7.452  0.00  0.00    +0.003 A 
ATOM     28  C   UNL     1      -1.624   3.706   6.978  0.00  0.00    +0.040 A 
ATOM     29  C   UNL     1      -1.162   3.136   5.805  0.00  0.00    +0.144 A 
ATOM     30  F   UNL     1       0.068   3.447   5.341  0.00  0.00    -0.204 F 
ENDBRANCH  20  24
ENDBRANCH   2  17
TORSDOF 5
