REMARK  Name = ZINC65612849
REMARK  6 active torsions:
REMARK  status: ('A' for Active; 'I' for Inactive)
REMARK    1  A    between atoms: C_1  and  C_2
REMARK    2  A    between atoms: C_6  and  C_8
REMARK    3  A    between atoms: C_6  and  C_9
REMARK    4  A    between atoms: C_10  and  C_12
REMARK    5  A    between atoms: C_19  and  S_21
REMARK    6  A    between atoms: S_21  and  C_22
REMARK                            x       y       z     vdW  Elec       q    Type
REMARK                         _______ _______ _______ _____ _____    ______ ____
ROOT
ATOM      1  C   UNL     1       0.675   1.173  -0.737  0.00  0.00    +0.039 C 
ATOM      2  C   UNL     1       0.455  -0.326  -0.520  0.00  0.00    +0.133 C 
ATOM      3  C   UNL     1      -1.043  -0.606  -0.356  0.00  0.00    +0.139 C 
ATOM      4  N   UNL     1      -1.212  -2.014   0.036  0.00  0.00    -0.291 N 
ATOM      5  C   UNL     1      -0.415  -2.518   1.166  0.00  0.00    +0.142 C 
ATOM      6  C   UNL     1       1.052  -2.145   0.928  0.00  0.00    +0.080 C 
ATOM      7  O   UNL     1       1.144  -0.743   0.661  0.00  0.00    -0.368 OA
ATOM      8  C   UNL     1       1.591  -2.929  -0.270  0.00  0.00    +0.043 C 
ATOM      9  C   UNL     1       1.874  -2.483   2.173  0.00  0.00    +0.043 C 
ATOM     10  C   UNL     1      -2.071  -2.818  -0.621  0.00  0.00    +0.267 C 
ATOM     11  O   UNL     1      -2.107  -4.009  -0.365  0.00  0.00    -0.268 OA
ENDROOT
BRANCH  10  12
ATOM     12  C   UNL     1      -2.932  -2.279  -1.610  0.00  0.00    +0.152 A 
ATOM     13  C   UNL     1      -3.778  -3.001  -2.459  0.00  0.00    +0.079 A 
ATOM     14  C   UNL     1      -4.047  -4.368  -2.620  0.00  0.00    +0.028 A 
ATOM     15  C   UNL     1      -4.949  -4.763  -3.562  0.00  0.00    +0.004 A 
ATOM     16  C   UNL     1      -5.592  -3.798  -4.355  0.00  0.00    +0.018 A 
ATOM     17  C   UNL     1      -5.323  -2.486  -4.190  0.00  0.00    +0.094 A 
ATOM     18  N   UNL     1      -4.421  -2.074  -3.248  0.00  0.00    -0.294 N 
ATOM     19  C   UNL     1      -3.968  -0.840  -2.876  0.00  0.00    +0.174 A 
ATOM     20  N   UNL     1      -3.096  -0.963  -1.908  0.00  0.00    -0.216 NA
BRANCH  19  21
ATOM     21  S   UNL     1      -4.485   0.688  -3.587  0.00  0.00    -0.091 S 
ATOM     22  C   UNL     1      -3.537   1.938  -2.677  0.00  0.00    +0.093 C 
ENDBRANCH  19  21
ENDBRANCH  10  12
TORSDOF 2
