REMARK  Name = ZINC64362703
REMARK  3 active torsions:
REMARK  status: ('A' for Active; 'I' for Inactive)
REMARK    1  A    between atoms: C_5  and  C_7
REMARK    2  A    between atoms: C_9  and  C_12
REMARK    3  A    between atoms: C_12  and  N_13
REMARK                            x       y       z     vdW  Elec       q    Type
REMARK                         _______ _______ _______ _____ _____    ______ ____
ROOT
ATOM      1  C   UNL     1       1.249  -2.160  -0.022  0.00  0.00    +0.229 A 
ATOM      2  N   UNL     1       0.198  -2.946  -0.021  0.00  0.00    -0.212 NA
ATOM      3  C   UNL     1       0.616  -4.221  -0.030  0.00  0.00    +0.098 A 
ATOM      4  C   UNL     1       1.961  -4.214  -0.037  0.00  0.00    +0.222 A 
ATOM      5  O   UNL     1       2.355  -2.925  -0.038  0.00  0.00    -0.443 OA
ENDROOT
BRANCH   1  10
ATOM      6  C   UNL     1      -0.017   1.375   0.010  0.00  0.00    +0.001 A 
ATOM      7  C   UNL     1       1.170   2.087   0.002  0.00  0.00    +0.001 A 
ATOM      8  C   UNL     1       2.383   1.422  -0.013  0.00  0.00    +0.021 A 
ATOM      9  C   UNL     1       2.416   0.041  -0.021  0.00  0.00    +0.053 A 
ATOM     10  C   UNL     1       1.222  -0.683  -0.013  0.00  0.00    +0.055 A 
ATOM     11  C   UNL     1       0.002  -0.004   0.002  0.00  0.00    +0.014 A 
ATOM     12 CL   UNL     1       3.939  -0.792  -0.041  0.00  0.00    -0.083 Cl
ENDBRANCH   1  10
BRANCH   3  13
ATOM     13  C   UNL     1      -0.265  -5.444  -0.033  0.00  0.00    +0.175 C 
BRANCH  13  14
ATOM     14  N   UNL     1      -0.641  -5.777   1.343  0.00  0.00    -0.228 N 
ATOM     15  C   UNL     1       0.063  -6.592   2.149  0.00  0.00    +0.254 C 
ATOM     16  O   UNL     1       1.096  -7.160   1.855  0.00  0.00    -0.270 OA
ATOM     17  C   UNL     1      -0.630  -6.681   3.451  0.00  0.00    +0.049 A 
ATOM     18  C   UNL     1      -0.380  -7.353   4.637  0.00  0.00    +0.014 A 
ATOM     19  C   UNL     1      -1.256  -7.218   5.702  0.00  0.00    +0.001 A 
ATOM     20  C   UNL     1      -2.378  -6.418   5.589  0.00  0.00    +0.001 A 
ATOM     21  C   UNL     1      -2.641  -5.739   4.409  0.00  0.00    +0.014 A 
ATOM     22  C   UNL     1      -1.773  -5.865   3.336  0.00  0.00    +0.049 A 
ATOM     23  C   UNL     1      -1.734  -5.304   1.969  0.00  0.00    +0.254 C 
ATOM     24  O   UNL     1      -2.552  -4.545   1.491  0.00  0.00    -0.270 OA
ENDBRANCH  13  14
ENDBRANCH   3  13
TORSDOF 3
