REMARK  Name = ZINC60352258
REMARK  8 active torsions:
REMARK  status: ('A' for Active; 'I' for Inactive)
REMARK    1  A    between atoms: C_1  and  C_2
REMARK    2  A    between atoms: C_5  and  N_8
REMARK    3  A    between atoms: N_8  and  C_9
REMARK    4  A    between atoms: C_10  and  C_12
REMARK    5  A    between atoms: N_15  and  C_20
REMARK    6  A    between atoms: C_16  and  C_17
REMARK    7  A    between atoms: C_17  and  C_18
REMARK    8  A    between atoms: C_17  and  C_19
REMARK                            x       y       z     vdW  Elec       q    Type
REMARK                         _______ _______ _______ _____ _____    ______ ____
ROOT
ATOM      1  C   UNL     1      -0.128  -6.438   1.010  0.00  0.00    +0.078 A 
ATOM      2  C   UNL     1       0.194  -7.165  -0.158  0.00  0.00    +0.148 A 
ATOM      3  N   UNL     1       0.656  -8.330   0.204  0.00  0.00    -0.174 NA
ATOM      4  N   UNL     1       0.651  -8.405   1.602  0.00  0.00    -0.236 N 
ATOM      5  C   UNL     1       0.177  -7.244   2.089  0.00  0.00    +0.060 A 
ENDROOT
BRANCH   4   6
ATOM      6  C   UNL     1       1.075  -9.502   2.365  0.00  0.00    +0.066 A 
ATOM      7  C   UNL     1       1.856  -9.302   3.496  0.00  0.00    +0.030 A 
ATOM      8  C   UNL     1       2.272 -10.383   4.247  0.00  0.00    +0.040 A 
ATOM      9  C   UNL     1       1.911 -11.667   3.873  0.00  0.00    +0.124 A 
ATOM     10  C   UNL     1       1.133 -11.869   2.745  0.00  0.00    +0.040 A 
ATOM     11  C   UNL     1       0.710 -10.789   1.994  0.00  0.00    +0.030 A 
ATOM     12  F   UNL     1       2.319 -12.724   4.608  0.00  0.00    -0.205 F 
ENDBRANCH   4   6
BRANCH   1  15
ATOM     13  N   UNL     1      -1.817  -4.777   0.405  0.00  0.00    -0.270 N 
ATOM     14  C   UNL     1      -2.557  -5.835  -0.287  0.00  0.00    +0.138 C 
ATOM     15  C   UNL     1      -0.680  -5.072   1.067  0.00  0.00    +0.254 C 
ATOM     16  O   UNL     1      -0.110  -4.212   1.710  0.00  0.00    -0.270 OA
BRANCH  13  21
ATOM     17  C   UNL     1      -3.734   0.560   0.301  0.00  0.00    +0.044 C 
ATOM     18  C   UNL     1      -3.224  -0.858   0.328  0.00  0.00    -0.050 A 
ATOM     19  C   UNL     1      -3.837  -1.826  -0.446  0.00  0.00    +0.005 A 
ATOM     20  C   UNL     1      -3.373  -3.127  -0.423  0.00  0.00    +0.024 A 
ATOM     21  C   UNL     1      -2.289  -3.461   0.379  0.00  0.00    +0.036 A 
ATOM     22  C   UNL     1      -1.676  -2.486   1.155  0.00  0.00    +0.024 A 
ATOM     23  C   UNL     1      -2.142  -1.186   1.123  0.00  0.00    +0.005 A 
ENDBRANCH  13  21
ENDBRANCH   1  15
BRANCH   5  24
ATOM     24  C   UNL     1       0.007  -6.890   3.544  0.00  0.00    +0.032 C 
ATOM     25  C   UNL     1       1.002  -5.790   3.921  0.00  0.00    +0.014 C 
ATOM     26  C   UNL     1      -1.419  -6.391   3.784  0.00  0.00    +0.014 C 
ENDBRANCH   5  24
TORSDOF 4
