REMARK  Name = ZINC05237652
REMARK  4 active torsions:
REMARK  status: ('A' for Active; 'I' for Inactive)
REMARK    1  A    between atoms: C_1  and  C_2
REMARK    2  A    between atoms: C_2  and  S_3
REMARK    3  A    between atoms: S_3  and  C_4
REMARK    4  A    between atoms: C_16  and  C_20
REMARK                            x       y       z     vdW  Elec       q    Type
REMARK                         _______ _______ _______ _____ _____    ______ ____
ROOT
ATOM      1  C   UNL     1       0.928  -4.253  -2.935  0.00  0.00    +0.170 A 
ATOM      2  N   UNL     1       0.057  -4.062  -1.905  0.00  0.00    -0.301 N 
ATOM      3  H   UNL     1      -0.525  -4.826  -1.624  0.00  0.00    +0.171 HD
ATOM      4  C   UNL     1      -0.058  -2.886  -1.245  0.00  0.00    +0.261 A 
ATOM      5  O   UNL     1      -0.844  -2.734  -0.326  0.00  0.00    -0.267 OA
ATOM      6  C   UNL     1       0.801  -1.830  -1.694  0.00  0.00    +0.075 A 
ATOM      7  C   UNL     1       0.873  -0.481  -1.157  0.00  0.00    -0.023 A 
ATOM      8  C   UNL     1       1.763   0.356  -1.737  0.00  0.00    -0.004 A 
ATOM      9  S   UNL     1       2.540  -0.602  -3.014  0.00  0.00    -0.073 S 
ATOM     10  C   UNL     1       1.673  -2.120  -2.768  0.00  0.00    +0.117 A 
ATOM     11  N   UNL     1       1.737  -3.299  -3.374  0.00  0.00    -0.216 NA
ATOM     12  C   UNL     1       2.034   1.784  -1.377  0.00  0.00    +0.046 C 
ATOM     13  C   UNL     1       1.415   2.064  -0.000  0.00  0.00    -0.009 C 
ATOM     14  C   UNL     1      -0.019   1.524   0.010  0.00  0.00    +0.008 C 
ATOM     15  C   UNL     1       0.002  -0.004   0.002  0.00  0.00    +0.037 C 
ATOM     16  C   UNL     1       1.397   3.572   0.258  0.00  0.00    +0.008 C 
ENDROOT
BRANCH   1  17
ATOM     17  S   UNL     1       0.983  -5.833  -3.713  0.00  0.00    -0.088 S 
BRANCH  17  19
ATOM     18  C   UNL     1       2.488  -6.796  -5.779  0.00  0.00    +0.016 C 
ATOM     19  C   UNL     1       2.262  -5.526  -4.957  0.00  0.00    +0.074 C 
ENDBRANCH  17  19
ENDBRANCH   1  17
TORSDOF 2
