REMARK  Name = ZINC43548126
REMARK  5 active torsions:
REMARK  status: ('A' for Active; 'I' for Inactive)
REMARK    1  A    between atoms: C_1  and  C_2
REMARK    2  A    between atoms: N_9  and  C_10
REMARK    3  A    between atoms: C_10  and  C_11
REMARK    4  A    between atoms: C_14  and  C_29
REMARK    5  A    between atoms: C_23  and  C_28
REMARK                            x       y       z     vdW  Elec       q    Type
REMARK                         _______ _______ _______ _____ _____    ______ ____
ROOT
ATOM      1  C   UNL     1       0.699   1.693   0.194  0.00  0.00    +0.014 C 
ATOM      2  C   UNL     1       0.696   0.167   0.079  0.00  0.00    +0.040 C 
ATOM      3  C   UNL     1      -0.716  -0.315  -0.216  0.00  0.00    +0.031 A 
ATOM      4  C   UNL     1      -1.471  -0.867   0.767  0.00  0.00    +0.013 A 
ATOM      5  S   UNL     1      -2.982  -1.246  -0.076  0.00  0.00    -0.059 S 
ATOM      6  C   UNL     1      -2.535  -0.676  -1.598  0.00  0.00    +0.137 A 
ATOM      7  N   UNL     1      -1.308  -0.242  -1.405  0.00  0.00    -0.340 N 
ATOM      8  N   UNL     1      -3.279  -0.666  -2.767  0.00  0.00    -0.321 N 
ATOM      9  C   UNL     1      -1.095  -1.088   2.190  0.00  0.00    +0.051 C 
ATOM     10  C   UNL     1       0.155  -0.249   2.515  0.00  0.00    -0.021 C 
ATOM     11  C   UNL     1       1.182  -0.439   1.386  0.00  0.00    +0.045 C 
ATOM     12  C   UNL     1       1.459  -1.917   1.276  0.00  0.00    +0.184 C 
ATOM     13  C   UNL     1       2.177  -2.335   2.596  0.00  0.00    +0.044 C 
ATOM     14  C   UNL     1       1.148  -2.235   3.705  0.00  0.00    +0.008 C 
ATOM     15  C   UNL     1       0.733  -0.774   3.836  0.00  0.00    +0.008 C 
ATOM     16  C   UNL     1       2.632  -3.741   2.192  0.00  0.00    +0.101 C 
ATOM     17  C   UNL     1       2.732  -3.640   0.671  0.00  0.00    +0.311 C 
ATOM     18  O   UNL     1       3.076  -4.528  -0.073  0.00  0.00    -0.251 OA
ATOM     19  O   UNL     1       2.377  -2.381   0.299  0.00  0.00    -0.461 OA
ATOM     20  C   UNL     1       3.994  -4.067   2.808  0.00  0.00    +0.019 C 
ATOM     21  C   UNL     1      -0.224   1.226   2.657  0.00  0.00    +0.012 C 
ATOM     22  H   UNL     1      -2.896  -0.305  -3.582  0.00  0.00    +0.148 HD
ATOM     23  H   UNL     1      -0.822   0.143  -2.151  0.00  0.00    +0.167 HD
ENDROOT
BRANCH   8  24
ATOM     24  C   UNL     1      -4.642  -1.202  -2.773  0.00  0.00    +0.130 C 
BRANCH  24  25
ATOM     25  C   UNL     1      -5.227  -1.075  -4.156  0.00  0.00    -0.016 C 
ATOM     26  C   UNL     1      -5.703  -2.132  -4.766  0.00  0.00    +0.005 C 
ENDBRANCH  24  25
ENDBRANCH   8  24
TORSDOF 2
