REMARK  Name = ZINC16720385
REMARK  3 active torsions:
REMARK  status: ('A' for Active; 'I' for Inactive)
REMARK    1  A    between atoms: C_8  and  N_9
REMARK    2  A    between atoms: N_9  and  C_10
REMARK    3  A    between atoms: C_13  and  N_16
REMARK                            x       y       z     vdW  Elec       q    Type
REMARK                         _______ _______ _______ _____ _____    ______ ____
ROOT
ATOM      1  C   UNL     1       0.298   0.832   2.077  0.00  0.00    +0.001 A 
ATOM      2  C   UNL     1       1.480   1.559   2.076  0.00  0.00    +0.001 A 
ATOM      3  C   UNL     1       2.595   1.090   1.415  0.00  0.00    +0.013 A 
ATOM      4  C   UNL     1       2.534  -0.130   0.740  0.00  0.00    +0.045 A 
ATOM      5  C   UNL     1       1.331  -0.866   0.743  0.00  0.00    +0.000 A 
ATOM      6  C   UNL     1       0.218  -0.376   1.415  0.00  0.00    +0.009 A 
ATOM      7  C   UNL     1       1.299  -2.153   0.019  0.00  0.00    +0.059 C 
ATOM      8  C   UNL     1       0.154  -2.919  -0.016  0.00  0.00    +0.085 C 
ATOM      9  C   UNL     1       2.522  -2.591  -0.664  0.00  0.00    +0.252 C 
ATOM     10  O   UNL     1       2.529  -3.647  -1.270  0.00  0.00    -0.270 OA
ATOM     11  N   UNL     1       3.634  -1.839  -0.626  0.00  0.00    -0.248 N 
ATOM     12  C   UNL     1       3.699  -0.665   0.022  0.00  0.00    +0.251 C 
ATOM     13  O   UNL     1       4.739  -0.035   0.016  0.00  0.00    -0.270 OA
ATOM     14  H   UNL     1       4.425  -2.158  -1.088  0.00  0.00    +0.158 HD
ENDROOT
BRANCH   8  15
ATOM     15  N   UNL     1      -1.064  -2.326   0.101  0.00  0.00    -0.320 N 
ATOM     16  H   UNL     1      -1.134  -1.359   0.108  0.00  0.00    +0.152 HD
BRANCH  15  17
ATOM     17  C   UNL     1      -2.215  -3.111   0.213  0.00  0.00    +0.031 A 
ATOM     18  C   UNL     1      -2.114  -4.497   0.210  0.00  0.00    +0.025 A 
ATOM     19  C   UNL     1      -3.251  -5.272   0.320  0.00  0.00    +0.030 A 
ATOM     20  C   UNL     1      -4.495  -4.666   0.434  0.00  0.00    +0.069 A 
ATOM     21  C   UNL     1      -4.597  -3.281   0.436  0.00  0.00    +0.030 A 
ATOM     22  C   UNL     1      -3.460  -2.506   0.333  0.00  0.00    +0.025 A 
BRANCH  20  23
ATOM     23  N   UNL     1      -5.651  -5.454   0.545  0.00  0.00    -0.200 N 
ATOM     24  C   UNL     1      -6.927  -5.027   0.657  0.00  0.00    +0.250 A 
ATOM     25  N   UNL     1      -7.687  -6.088   0.735  0.00  0.00    -0.116 NA
ATOM     26  N   UNL     1      -6.977  -7.158   0.679  0.00  0.00    -0.023 NA
ATOM     27  N   UNL     1      -5.729  -6.858   0.558  0.00  0.00    -0.039 NA
ENDBRANCH  20  23
ENDBRANCH  15  17
ENDBRANCH   8  15
TORSDOF 3
