REMARK  Name = ZINC01036357
REMARK  5 active torsions:
REMARK  status: ('A' for Active; 'I' for Inactive)
REMARK    1  A    between atoms: C_1  and  C_2
REMARK    2  A    between atoms: N_4  and  C_5
REMARK    3  A    between atoms: C_9  and  N_16
REMARK    4  A    between atoms: N_16  and  S_17
REMARK    5  A    between atoms: S_17  and  C_20
REMARK                            x       y       z     vdW  Elec       q    Type
REMARK                         _______ _______ _______ _____ _____    ______ ____
ROOT
ATOM      1  C   UNL     1      -1.373  -1.869  -0.656  0.00  0.00    +0.120 A 
ATOM      2  C   UNL     1      -2.433  -2.732  -0.619  0.00  0.00    +0.042 A 
ATOM      3  C   UNL     1      -2.137  -4.168  -0.572  0.00  0.00    +0.021 A 
ATOM      4  C   UNL     1      -3.140  -5.115  -0.799  0.00  0.00    +0.036 A 
ATOM      5  C   UNL     1      -2.831  -6.462  -0.750  0.00  0.00    +0.049 A 
ATOM      6  C   UNL     1      -1.528  -6.873  -0.476  0.00  0.00    +0.028 A 
ATOM      7  C   UNL     1      -0.533  -5.946  -0.249  0.00  0.00    +0.049 A 
ATOM      8  C   UNL     1      -0.825  -4.590  -0.293  0.00  0.00    +0.139 A 
ATOM      9  O   UNL     1       0.141  -3.666  -0.067  0.00  0.00    -0.421 OA
ATOM     10  C   UNL     1      -0.024  -2.455  -0.651  0.00  0.00    +0.359 A 
ATOM     11  O   UNL     1       0.915  -1.867  -1.154  0.00  0.00    -0.243 OA
ENDROOT
BRANCH   1  15
ATOM     12  C   UNL     1      -1.119   1.804   0.128  0.00  0.00    +0.109 C 
ATOM     13  C   UNL     1      -1.010   0.305   0.241  0.00  0.00    +0.214 C 
ATOM     14  O   UNL     1      -0.425  -0.192   1.180  0.00  0.00    -0.276 OA
ATOM     15  N   UNL     1      -1.563  -0.483  -0.702  0.00  0.00    -0.280 N 
ATOM     16  H   UNL     1      -2.094  -0.090  -1.413  0.00  0.00    +0.155 HD
ENDBRANCH   1  15
BRANCH   5  17
ATOM     17  N   UNL     1      -3.829  -7.414  -0.977  0.00  0.00    -0.216 N 
ATOM     18  H   UNL     1      -4.696  -7.318  -0.553  0.00  0.00    +0.174 HD
BRANCH  17  19
ATOM     19  S   UNL     1      -3.530  -8.707  -1.968  0.00  0.00    +0.072 S 
ATOM     20  O   UNL     1      -2.321  -9.298  -1.511  0.00  0.00    -0.150 OA
ATOM     21  O   UNL     1      -4.747  -9.436  -2.062  0.00  0.00    -0.150 OA
BRANCH  19  22
ATOM     22  C   UNL     1      -3.201  -8.066  -3.575  0.00  0.00    +0.109 A 
ATOM     23  C   UNL     1      -4.248  -7.774  -4.430  0.00  0.00    +0.030 A 
ATOM     24  C   UNL     1      -3.990  -7.272  -5.692  0.00  0.00    +0.022 A 
ATOM     25  C   UNL     1      -2.685  -7.060  -6.099  0.00  0.00    +0.041 A 
ATOM     26  C   UNL     1      -1.638  -7.352  -5.243  0.00  0.00    +0.022 A 
ATOM     27  C   UNL     1      -1.897  -7.850  -3.979  0.00  0.00    +0.030 A 
ATOM     28 CL   UNL     1      -2.361  -6.429  -7.683  0.00  0.00    -0.084 Cl
ENDBRANCH  19  22
ENDBRANCH  17  19
ENDBRANCH   5  17
TORSDOF 4
