REMARK  Name = ZINC12787212
REMARK  8 active torsions:
REMARK  status: ('A' for Active; 'I' for Inactive)
REMARK    1  A    between atoms: C_1  and  C_2
REMARK    2  A    between atoms: C_2  and  C_4
REMARK    3  A    between atoms: C_2  and  N_14
REMARK    4  A    between atoms: C_7  and  S_10
REMARK    5  A    between atoms: S_10  and  N_13
REMARK    6  A    between atoms: C_15  and  C_17
REMARK    7  A    between atoms: C_17  and  N_52
REMARK    8  A    between atoms: C_21  and  C_23
REMARK                            x       y       z     vdW  Elec       q    Type
REMARK                         _______ _______ _______ _____ _____    ______ ____
ROOT
ATOM      1  N   UNL     1      -0.011   0.966   0.007  0.00  0.00    -0.310 N 
ATOM      2  C   UNL     1       1.147   1.655   0.000  0.00  0.00    +0.197 C 
ATOM      3  O   UNL     1       1.130   2.868   0.007  0.00  0.00    -0.278 OA
ATOM      4  H   UNL     1       0.002  -0.004   0.002  0.00  0.00    +0.149 HD
ENDROOT
BRANCH   1   6
ATOM      5  C   UNL     1      -1.680   2.047  -1.416  0.00  0.00    +0.033 C 
ATOM      6  C   UNL     1      -1.290   1.681   0.017  0.00  0.00    +0.100 C 
BRANCH   6   7
ATOM      7  C   UNL     1      -2.354   0.799   0.618  0.00  0.00    -0.027 A 
ATOM      8  C   UNL     1      -2.387  -0.549   0.314  0.00  0.00    +0.007 A 
ATOM      9  C   UNL     1      -3.361  -1.359   0.868  0.00  0.00    +0.029 A 
ATOM     10  C   UNL     1      -4.307  -0.819   1.720  0.00  0.00    +0.105 A 
ATOM     11  C   UNL     1      -4.276   0.530   2.020  0.00  0.00    +0.029 A 
ATOM     12  C   UNL     1      -3.300   1.339   1.469  0.00  0.00    +0.007 A 
BRANCH  10  13
ATOM     13  S   UNL     1      -5.552  -1.849   2.421  0.00  0.00    +0.056 S 
ATOM     14  O   UNL     1      -5.034  -3.173   2.414  0.00  0.00    -0.153 OA
ATOM     15  O   UNL     1      -5.987  -1.208   3.612  0.00  0.00    -0.153 OA
BRANCH  13  16
ATOM     16  N   UNL     1      -6.839  -1.839   1.380  0.00  0.00    -0.204 NA
ATOM     17  H   UNL     1      -6.798  -1.320   0.562  0.00  0.00    +0.144 HD
ATOM     18  H   UNL     1      -7.636  -2.352   1.589  0.00  0.00    +0.144 HD
ENDBRANCH  13  16
ENDBRANCH  10  13
ENDBRANCH   6   7
ENDBRANCH   1   6
BRANCH   2  19
ATOM     19  C   UNL     1       2.462   0.920  -0.017  0.00  0.00    +0.019 C 
BRANCH  19  24
ATOM     20  C   UNL     1       3.662   2.587   1.274  0.00  0.00    -0.077 C 
ATOM     21  C   UNL     1       5.090   2.357   1.812  0.00  0.00    -0.020 C 
ATOM     22  C   UNL     1       5.896   2.021   0.529  0.00  0.00    -0.013 C 
ATOM     23  C   UNL     1       4.856   1.222  -0.294  0.00  0.00    -0.037 C 
ATOM     24  N   UNL     1       3.575   1.905  -0.028  0.00  0.00    +0.390 N 
ATOM     25  H   UNL     1       3.400   2.599  -0.764  0.00  0.00    -0.080 HD
BRANCH  23  26
ATOM     26  C   UNL     1       5.184   1.293  -1.764  0.00  0.00    -0.061 A 
ATOM     27  C   UNL     1       4.917   2.448  -2.476  0.00  0.00    +0.002 A 
ATOM     28  C   UNL     1       5.223   2.515  -3.822  0.00  0.00    +0.000 A 
ATOM     29  C   UNL     1       5.784   1.424  -4.459  0.00  0.00    +0.000 A 
ATOM     30  C   UNL     1       6.045   0.268  -3.748  0.00  0.00    +0.000 A 
ATOM     31  C   UNL     1       5.745   0.203  -2.400  0.00  0.00    +0.002 A 
ENDBRANCH  23  26
ENDBRANCH  19  24
ENDBRANCH   2  19
TORSDOF 7
