REMARK  Name = ZINC25919711
REMARK  7 active torsions:
REMARK  status: ('A' for Active; 'I' for Inactive)
REMARK    1  A    between atoms: C_1  and  C_2
REMARK    2  A    between atoms: C_5  and  S_8
REMARK    3  A    between atoms: S_8  and  N_11
REMARK    4  A    between atoms: C_18  and  C_20
REMARK    5  A    between atoms: C_21  and  C_22
REMARK    6  A    between atoms: C_25  and  C_28
REMARK    7  A    between atoms: N_30  and  C_31
REMARK                            x       y       z     vdW  Elec       q    Type
REMARK                         _______ _______ _______ _____ _____    ______ ____
ROOT
ATOM      1  N   UNL     1       1.657  11.920  -2.424  0.00  0.00    -0.175 NA
ATOM      2  C   UNL     1       2.954  11.405  -2.092  0.00  0.00    +0.111 C 
ATOM      3  C   UNL     1       2.774   9.972  -1.564  0.00  0.00    +0.036 C 
ATOM      4  C   UNL     1       2.307   9.957  -0.162  0.00  0.00    +0.109 C 
ATOM      5  N   UNL     1       1.021  10.685  -0.047  0.00  0.00    -0.297 N 
ATOM      6  C   UNL     1       1.006  12.122  -0.040  0.00  0.00    +0.125 C 
ATOM      7  C   UNL     1       0.852  12.720  -1.460  0.00  0.00    +0.128 C 
ATOM      8  C   UNL     1      -0.134   9.999   0.056  0.00  0.00    +0.239 C 
ATOM      9  O   UNL     1      -0.115   8.786   0.144  0.00  0.00    -0.271 OA
ENDROOT
BRANCH   1  10
ATOM     10  S   UNL     1       1.034  11.615  -3.928  0.00  0.00    +0.061 S 
ATOM     11  O   UNL     1       1.677  10.440  -4.403  0.00  0.00    -0.153 OA
ATOM     12  O   UNL     1      -0.378  11.716  -3.811  0.00  0.00    -0.153 OA
BRANCH  10  17
ATOM     13  C   UNL     1       2.793  16.121  -7.535  0.00  0.00    +0.044 C 
ATOM     14  C   UNL     1       2.354  14.995  -6.634  0.00  0.00    -0.050 A 
ATOM     15  C   UNL     1       3.140  13.866  -6.505  0.00  0.00    +0.005 A 
ATOM     16  C   UNL     1       2.737  12.834  -5.679  0.00  0.00    +0.029 A 
ATOM     17  C   UNL     1       1.548  12.931  -4.981  0.00  0.00    +0.105 A 
ATOM     18  C   UNL     1       0.759  14.058  -5.114  0.00  0.00    +0.029 A 
ATOM     19  C   UNL     1       1.164  15.092  -5.937  0.00  0.00    +0.005 A 
ENDBRANCH  10  17
ENDBRANCH   1  10
BRANCH   8  20
ATOM     20  C   UNL     1      -1.414  10.715   0.062  0.00  0.00    +0.068 C 
ATOM     21  C   UNL     1      -2.571  10.025   0.064  0.00  0.00    +0.013 C 
BRANCH  21  22
ATOM     22  C   UNL     1      -3.856  10.744   0.071  0.00  0.00    -0.025 A 
ATOM     23  C   UNL     1      -5.058  10.028   0.073  0.00  0.00    +0.008 A 
ATOM     24  C   UNL     1      -6.259  10.701   0.079  0.00  0.00    +0.013 A 
ATOM     25  C   UNL     1      -6.278  12.098   0.083  0.00  0.00    +0.037 A 
ATOM     26  C   UNL     1      -5.078  12.813   0.075  0.00  0.00    +0.013 A 
ATOM     27  C   UNL     1      -3.876  12.142   0.075  0.00  0.00    +0.008 A 
BRANCH  25  28
ATOM     28  C   UNL     1      -7.569  12.819   0.090  0.00  0.00    +0.244 C 
ATOM     29  O   UNL     1      -8.613  12.197   0.092  0.00  0.00    -0.270 OA
ATOM     30  N   UNL     1      -7.587  14.167   0.094  0.00  0.00    -0.314 N 
ATOM     31  C   UNL     1      -8.866  14.882   0.101  0.00  0.00    +0.128 C 
ATOM     32  H   UNL     1      -6.642  14.730   0.092  0.00  0.00    +0.149 HD
ENDBRANCH  25  28
ENDBRANCH  21  22
ENDBRANCH   8  20
TORSDOF 5
