REMARK  Name = ZINC13059685
REMARK  8 active torsions:
REMARK  status: ('A' for Active; 'I' for Inactive)
REMARK    1  A    between atoms: C_1  and  C_2
REMARK    2  A    between atoms: C_9  and  C_11
REMARK    3  A    between atoms: C_11  and  N_12
REMARK    4  A    between atoms: N_15  and  S_18
REMARK    5  A    between atoms: S_18  and  C_21
REMARK    6  A    between atoms: C_24  and  C_27
REMARK    7  A    between atoms: C_27  and  C_28
REMARK    8  A    between atoms: C_27  and  C_29
REMARK                            x       y       z     vdW  Elec       q    Type
REMARK                         _______ _______ _______ _____ _____    ______ ____
ROOT
ATOM      1  N   UNL     1      -2.981   2.994  -2.793  0.00  0.00    -0.294 NA
ATOM      2  C   UNL     1      -2.076   3.886  -2.056  0.00  0.00    +0.102 C 
ATOM      3  C   UNL     1      -0.706   3.213  -1.915  0.00  0.00    +0.125 C 
ATOM      4  N   UNL     1      -0.897   1.885  -1.312  0.00  0.00    -0.174 NA
ATOM      5  C   UNL     1      -1.887   0.982  -1.919  0.00  0.00    +0.125 C 
ATOM      6  C   UNL     1      -3.215   1.745  -2.057  0.00  0.00    +0.102 C 
ENDROOT
BRANCH   4   7
ATOM      7  S   UNL     1      -0.017   1.417   0.010  0.00  0.00    +0.061 S 
ATOM      8  O   UNL     1       0.002  -0.004   0.002  0.00  0.00    -0.153 OA
ATOM      9  O   UNL     1       1.172   2.195   0.003  0.00  0.00    -0.153 OA
BRANCH   7  10
ATOM     10  C   UNL     1      -0.927   1.900   1.439  0.00  0.00    +0.105 A 
ATOM     11  C   UNL     1      -0.717   3.145   2.004  0.00  0.00    +0.029 A 
ATOM     12  C   UNL     1      -1.434   3.526   3.123  0.00  0.00    +0.006 A 
ATOM     13  C   UNL     1      -2.354   2.659   3.683  0.00  0.00    -0.045 A 
ATOM     14  C   UNL     1      -2.559   1.412   3.121  0.00  0.00    +0.006 A 
ATOM     15  C   UNL     1      -1.846   1.033   2.000  0.00  0.00    +0.029 A 
BRANCH  13  16
ATOM     16  C   UNL     1      -3.132   3.072   4.905  0.00  0.00    +0.013 C 
ATOM     17  C   UNL     1      -2.163   3.372   6.050  0.00  0.00    +0.012 C 
ATOM     18  C   UNL     1      -3.950   4.326   4.588  0.00  0.00    +0.012 C 
ENDBRANCH  13  16
ENDBRANCH   7  10
ENDBRANCH   4   7
BRANCH   1  19
ATOM     19  C   UNL     1      -4.250   3.669  -3.100  0.00  0.00    +0.139 C 
BRANCH  19  28
ATOM     20  C   UNL     1      -6.247   0.839  -7.475  0.00  0.00    +0.047 C 
ATOM     21  C   UNL     1      -6.831   0.653  -6.098  0.00  0.00    -0.010 A 
ATOM     22  C   UNL     1      -7.861  -0.213  -5.900  0.00  0.00    +0.008 A 
ATOM     23  C   UNL     1      -8.395  -0.375  -4.611  0.00  0.00    +0.018 A 
ATOM     24  C   UNL     1      -7.890   0.324  -3.572  0.00  0.00    +0.092 A 
ATOM     25  N   UNL     1      -6.857   1.196  -3.757  0.00  0.00    -0.308 N 
ATOM     26  C   UNL     1      -6.315   1.376  -5.004  0.00  0.00    +0.118 A 
ATOM     27  N   UNL     1      -5.343   2.271  -4.903  0.00  0.00    -0.342 N 
ATOM     28  C   UNL     1      -5.238   2.663  -3.631  0.00  0.00    +0.048 A 
ATOM     29  C   UNL     1      -6.170   2.013  -2.901  0.00  0.00    +0.115 A 
ATOM     30  H   UNL     1      -4.776   2.570  -5.797  0.00  0.00    +0.167 HD
ENDBRANCH  19  28
ENDBRANCH   1  19
TORSDOF 5
