REMARK  Name = ZINC27530375
REMARK  6 active torsions:
REMARK  status: ('A' for Active; 'I' for Inactive)
REMARK    1  A    between atoms: C_1  and  O_2
REMARK    2  A    between atoms: O_2  and  C_3
REMARK    3  A    between atoms: C_8  and  C_9
REMARK    4  A    between atoms: N_13  and  C_17
REMARK    5  A    between atoms: C_20  and  O_26
REMARK    6  A    between atoms: C_21  and  C_23
REMARK                            x       y       z     vdW  Elec       q    Type
REMARK                         _______ _______ _______ _____ _____    ______ ____
ROOT
ATOM      1  C   UNL     1      -0.103  -7.192  -2.161  0.00  0.00    +0.031 C 
ATOM      2  C   UNL     1      -0.149  -6.293  -1.144  0.00  0.00    +0.078 C 
ATOM      3  C   UNL     1      -0.383  -4.836  -1.187  0.00  0.00    +0.263 C 
ATOM      4  O   UNL     1      -0.574  -4.249  -2.236  0.00  0.00    -0.269 OA
ATOM      5  N   UNL     1      -0.371  -4.199  -0.028  0.00  0.00    -0.224 N 
ATOM      6  C   UNL     1      -0.164  -4.854   1.133  0.00  0.00    +0.125 C 
ATOM      7  S   UNL     1      -0.118  -4.215   2.721  0.00  0.00    -0.027 S 
ATOM      8  S   UNL     1       0.050  -6.549   0.614  0.00  0.00    -0.061 S 
ENDROOT
BRANCH   1  14
ATOM      9  C   UNL     1      -0.905  -7.407  -4.508  0.00  0.00    +0.127 A 
ATOM     10  C   UNL     1      -0.925  -6.959  -5.819  0.00  0.00    +0.046 A 
ATOM     11  C   UNL     1      -0.187  -5.849  -6.184  0.00  0.00    +0.004 A 
ATOM     12  C   UNL     1       0.578  -5.175  -5.245  0.00  0.00    +0.001 A 
ATOM     13  C   UNL     1       0.607  -5.602  -3.936  0.00  0.00    +0.011 A 
ATOM     14  C   UNL     1      -0.132  -6.728  -3.553  0.00  0.00    +0.018 A 
BRANCH   9  16
ATOM     15  C   UNL     1      -2.393  -9.136  -5.175  0.00  0.00    +0.277 C 
ATOM     16  O   UNL     1      -1.630  -8.497  -4.149  0.00  0.00    -0.495 OA
ENDBRANCH   9  16
ENDBRANCH   1  14
BRANCH   5  17
ATOM     17  C   UNL     1      -0.582  -2.813  -0.004  0.00  0.00    +0.044 A 
ATOM     18  C   UNL     1      -1.874  -2.310   0.113  0.00  0.00    +0.027 A 
ATOM     19  C   UNL     1      -2.092  -0.948   0.142  0.00  0.00    +0.048 A 
ATOM     20  C   UNL     1      -1.023  -0.069   0.044  0.00  0.00    +0.131 A 
ATOM     21  C   UNL     1       0.281  -0.568  -0.074  0.00  0.00    +0.106 A 
ATOM     22  C   UNL     1       0.494  -1.949  -0.097  0.00  0.00    +0.042 A 
BRANCH  21  23
ATOM     23  C   UNL     1       1.423   0.359  -0.173  0.00  0.00    +0.390 C 
ATOM     24  O   UNL     1       1.234   1.560  -0.152  0.00  0.00    -0.240 OA
ATOM     25  O   UNL     1       2.675  -0.124  -0.286  0.00  0.00    -0.240 OA
ENDBRANCH  21  23
BRANCH  20  26
ATOM     26  O   UNL     1      -1.240   1.270   0.068  0.00  0.00    -0.506 OA
ATOM     27  H   UNL     1      -0.392   1.966  -0.010  0.00  0.00    +0.292 HD
ENDBRANCH  20  26
ENDBRANCH   5  17
TORSDOF 5
