REMARK  Name = ZINC53511824
REMARK  10 active torsions:
REMARK  status: ('A' for Active; 'I' for Inactive)
REMARK    1  A    between atoms: C_1  and  C_2
REMARK    2  A    between atoms: N_7  and  C_9
REMARK    3  A    between atoms: C_9  and  C_10
REMARK    4  A    between atoms: C_13  and  C_16
REMARK    5  A    between atoms: C_16  and  N_17
REMARK    6  A    between atoms: C_18  and  C_20
REMARK    7  A    between atoms: C_20  and  C_21
REMARK    8  A    between atoms: C_20  and  C_22
REMARK    9  A    between atoms: C_20  and  N_23
REMARK   10  A    between atoms: N_26  and  C_27
REMARK                            x       y       z     vdW  Elec       q    Type
REMARK                         _______ _______ _______ _____ _____    ______ ____
ROOT
ATOM      1  C   UNL     1       1.666  -3.960   2.315  0.00  0.00    -0.064 A 
ATOM      2  C   UNL     1       0.713  -4.769   2.905  0.00  0.00    +0.002 A 
ATOM      3  C   UNL     1       0.834  -6.144   2.837  0.00  0.00    +0.005 A 
ATOM      4  C   UNL     1       1.909  -6.711   2.177  0.00  0.00    -0.030 A 
ATOM      5  C   UNL     1       2.861  -5.902   1.585  0.00  0.00    +0.005 A 
ATOM      6  C   UNL     1       2.737  -4.527   1.651  0.00  0.00    +0.002 A 
ENDROOT
BRANCH   1   7
ATOM      7  C   UNL     1       1.534  -2.461   2.390  0.00  0.00    -0.043 C 
BRANCH   7  13
ATOM      8  C   UNL     1      -0.019   1.526   0.010  0.00  0.00    +0.005 C 
ATOM      9  C   UNL     1       0.002  -0.004   0.002  0.00  0.00    -0.031 C 
ATOM     10  C   UNL     1      -1.434  -0.535   0.015  0.00  0.00    -0.001 C 
ATOM     11  C   UNL     1      -1.402  -2.064   0.086  0.00  0.00    -0.018 C 
ATOM     12  C   UNL     1      -0.613  -2.496   1.324  0.00  0.00    -0.078 C 
ATOM     13  N   UNL     1       0.758  -1.980   1.239  0.00  0.00    +0.383 N 
ATOM     14  C   UNL     1       0.740  -0.512   1.242  0.00  0.00    -0.075 C 
ATOM     15  H   UNL     1       1.188  -2.307   0.386  0.00  0.00    -0.081 HD
ENDBRANCH   7  13
ENDBRANCH   1   7
BRANCH   4  16
ATOM     16  C   UNL     1       2.042  -8.210   2.102  0.00  0.00    +0.139 C 
BRANCH  16  17
ATOM     17  N   UNL     1       1.359  -8.702   0.903  0.00  0.00    -0.309 N 
ATOM     18  C   UNL     1       1.347 -10.021   0.628  0.00  0.00    +0.236 C 
ATOM     19  O   UNL     1       1.901 -10.802   1.373  0.00  0.00    -0.273 OA
ATOM     20  H   UNL     1       0.917  -8.078   0.306  0.00  0.00    +0.149 HD
BRANCH  18  21
ATOM     21  C   UNL     1       0.645 -10.527  -0.606  0.00  0.00    +0.106 C 
ATOM     22  C   UNL     1       1.591 -10.436  -1.805  0.00  0.00    +0.041 C 
ATOM     23  C   UNL     1       0.229 -11.985  -0.395  0.00  0.00    +0.041 C 
BRANCH  21  24
ATOM     24  N   UNL     1      -0.545  -9.712  -0.860  0.00  0.00    -0.286 N 
ATOM     25  C   UNL     1      -1.334  -9.982  -1.919  0.00  0.00    +0.300 C 
ATOM     26  O   UNL     1      -1.058 -10.903  -2.663  0.00  0.00    -0.253 OA
ATOM     27  N   UNL     1      -2.429  -9.232  -2.153  0.00  0.00    -0.302 N 
ATOM     28  C   UNL     1      -3.286  -9.525  -3.304  0.00  0.00    +0.129 C 
ATOM     29  H   UNL     1      -0.765  -8.977  -0.266  0.00  0.00    +0.151 HD
ATOM     30  H   UNL     1      -2.649  -8.497  -1.559  0.00  0.00    +0.150 HD
ENDBRANCH  21  24
ENDBRANCH  18  21
ENDBRANCH  16  17
ENDBRANCH   4  16
TORSDOF 6
