REMARK  Name = ZINC64447082
REMARK  7 active torsions:
REMARK  status: ('A' for Active; 'I' for Inactive)
REMARK    1  A    between atoms: C_1  and  C_2
REMARK    2  A    between atoms: C_3  and  C_14
REMARK    3  A    between atoms: C_4  and  C_13
REMARK    4  A    between atoms: N_5  and  C_7
REMARK    5  A    between atoms: C_14  and  C_16
REMARK    6  A    between atoms: C_19  and  N_25
REMARK    7  A    between atoms: C_20  and  C_23
REMARK                            x       y       z     vdW  Elec       q    Type
REMARK                         _______ _______ _______ _____ _____    ______ ____
ROOT
ATOM      1  C   UNL     1      -0.424  -0.446  -2.521  0.00  0.00    +0.255 C 
ATOM      2  O   UNL     1      -1.483  -0.041  -2.955  0.00  0.00    -0.281 OA
ENDROOT
BRANCH   1   5
ATOM      3  C   UNL     1       0.180   1.503  -0.087  0.00  0.00    +0.068 C 
ATOM      4  C   UNL     1      -0.044   0.014  -0.014  0.00  0.00    +0.072 A 
ATOM      5  C   UNL     1      -0.312  -0.842  -1.110  0.00  0.00    +0.071 A 
ATOM      6  C   UNL     1      -0.449  -2.123  -0.600  0.00  0.00    +0.053 A 
ATOM      7  N   UNL     1      -0.274  -2.045   0.730  0.00  0.00    -0.236 N 
ATOM      8  N   UNL     1      -0.019  -0.712   1.068  0.00  0.00    -0.171 NA
ATOM      9  C   UNL     1      -0.742  -3.373  -1.390  0.00  0.00    +0.066 C 
BRANCH   7  10
ATOM     10  C   UNL     1      -0.331  -3.120   1.627  0.00  0.00    +0.066 A 
ATOM     11  C   UNL     1       0.268  -4.330   1.303  0.00  0.00    +0.028 A 
ATOM     12  C   UNL     1       0.209  -5.387   2.189  0.00  0.00    +0.002 A 
ATOM     13  C   UNL     1      -0.446  -5.242   3.399  0.00  0.00    +0.000 A 
ATOM     14  C   UNL     1      -1.043  -4.038   3.725  0.00  0.00    +0.002 A 
ATOM     15  C   UNL     1      -0.983  -2.975   2.845  0.00  0.00    +0.028 A 
ENDBRANCH   7  10
ENDBRANCH   1   5
BRANCH   1  16
ATOM     16  C   UNL     1       0.763  -0.541  -3.419  0.00  0.00    +0.321 C 
ATOM     17  O   UNL     1       1.794  -1.032  -3.010  0.00  0.00    -0.262 OA
ATOM     18  N   UNL     1       0.690  -0.083  -4.684  0.00  0.00    -0.178 N 
ATOM     19  C   UNL     1       1.695  -0.114  -5.606  0.00  0.00    +0.141 A 
ATOM     20  C   UNL     1       1.194   0.457  -6.771  0.00  0.00    +0.111 A 
ATOM     21  C   UNL     1      -0.146   0.830  -6.508  0.00  0.00    +0.155 A 
ATOM     22  N   UNL     1      -0.433   0.503  -5.280  0.00  0.00    -0.169 NA
BRANCH  19  23
ATOM     23  N   UNL     1       2.965  -0.616  -5.418  0.00  0.00    -0.342 N 
ATOM     24  H   UNL     1       3.215  -0.995  -4.561  0.00  0.00    +0.144 HD
ATOM     25  H   UNL     1       3.608  -0.590  -6.143  0.00  0.00    +0.144 HD
ENDBRANCH  19  23
BRANCH  20  26
ATOM     26  C   UNL     1       1.901   0.635  -8.003  0.00  0.00    +0.104 C 
ATOM     27  N   UNL     1       2.462   0.777  -8.981  0.00  0.00    -0.191 NA
ENDBRANCH  20  26
ENDBRANCH   1  16
TORSDOF 5
