REMARK  Name = ZINC66648299
REMARK  7 active torsions:
REMARK  status: ('A' for Active; 'I' for Inactive)
REMARK    1  A    between atoms: C_1  and  C_2
REMARK    2  A    between atoms: C_5  and  C_25
REMARK    3  A    between atoms: C_8  and  C_24
REMARK    4  A    between atoms: C_9  and  C_11
REMARK    5  A    between atoms: C_17  and  C_19
REMARK    6  A    between atoms: N_21  and  C_22
REMARK    7  A    between atoms: N_21  and  C_23
REMARK                            x       y       z     vdW  Elec       q    Type
REMARK                         _______ _______ _______ _____ _____    ______ ____
ROOT
ATOM      1  C   UNL     1       0.408   2.135   0.437  0.00  0.00    +0.044 C 
ATOM      2  C   UNL     1       0.392   0.635   0.292  0.00  0.00    -0.039 A 
ATOM      3  C   UNL     1       0.432   0.065  -0.950  0.00  0.00    +0.004 A 
ATOM      4  C   UNL     1       0.419  -1.316  -1.091  0.00  0.00    +0.007 A 
ATOM      5  C   UNL     1       0.364  -2.136   0.016  0.00  0.00    -0.008 A 
ATOM      6  C   UNL     1       0.322  -1.580   1.289  0.00  0.00    +0.139 A 
ATOM      7  C   UNL     1       0.342  -0.179   1.426  0.00  0.00    +0.027 A 
ATOM      8  C   UNL     1       0.295   0.079   2.864  0.00  0.00    +0.008 A 
ATOM      9  C   UNL     1       0.258  -1.139   3.464  0.00  0.00    +0.194 A 
ATOM     10  O   UNL     1       0.267  -2.109   2.526  0.00  0.00    -0.450 OA
ATOM     11  C   UNL     1       0.289   1.424   3.544  0.00  0.00    +0.048 C 
ATOM     12  C   UNL     1       0.350  -3.634  -0.155  0.00  0.00    +0.047 C 
ENDROOT
BRANCH   9  13
ATOM     13  C   UNL     1       0.205  -1.366   4.915  0.00  0.00    +0.284 C 
ATOM     14  O   UNL     1       0.192  -0.419   5.679  0.00  0.00    -0.267 OA
ATOM     15  N   UNL     1       0.171  -2.623   5.400  0.00  0.00    -0.273 N 
ATOM     16  C   UNL     1       0.192  -3.802   4.507  0.00  0.00    +0.178 C 
ATOM     17  S   UNL     1       0.823  -5.107   5.651  0.00  0.00    -0.139 S 
ATOM     18  C   UNL     1       0.102  -4.394   7.197  0.00  0.00    +0.102 C 
ATOM     19  C   UNL     1       0.118  -2.890   6.827  0.00  0.00    +0.173 C 
BRANCH  19  20
ATOM     20  C   UNL     1      -1.126  -2.251   7.388  0.00  0.00    +0.236 C 
ATOM     21  O   UNL     1      -2.050  -1.974   6.652  0.00  0.00    -0.274 OA
ATOM     22  N   UNL     1      -1.212  -1.987   8.707  0.00  0.00    -0.306 N 
ATOM     23  C   UNL     1      -2.460  -1.466   9.269  0.00  0.00    +0.131 C 
ATOM     24  C   UNL     1      -0.058  -2.222   9.578  0.00  0.00    +0.131 C 
ENDBRANCH  19  20
ENDBRANCH   9  13
TORSDOF 2
