REMARK  Name = ZINC21819461
REMARK  5 active torsions:
REMARK  status: ('A' for Active; 'I' for Inactive)
REMARK    1  A    between atoms: C_1  and  C_2
REMARK    2  A    between atoms: N_7  and  S_9
REMARK    3  A    between atoms: S_9  and  N_12
REMARK    4  A    between atoms: N_12  and  C_13
REMARK    5  A    between atoms: C_18  and  N_19
REMARK                            x       y       z     vdW  Elec       q    Type
REMARK                         _______ _______ _______ _____ _____    ______ ____
ROOT
ATOM      1  N   UNL     1       1.630  -3.146   3.422  0.00  0.00    -0.205 N 
ATOM      2  H   UNL     1       2.013  -4.029   3.548  0.00  0.00    +0.175 HD
ENDROOT
BRANCH   1   3
ATOM      3  C   UNL     1       2.217  -2.035   4.039  0.00  0.00    +0.071 A 
ATOM      4  C   UNL     1       1.422  -1.001   4.511  0.00  0.00    +0.046 A 
ATOM      5  C   UNL     1       2.004   0.096   5.121  0.00  0.00    +0.043 A 
ATOM      6  C   UNL     1       3.378   0.165   5.261  0.00  0.00    +0.022 A 
ATOM      7  C   UNL     1       4.178  -0.861   4.793  0.00  0.00    +0.026 A 
ATOM      8  C   UNL     1       3.602  -1.967   4.186  0.00  0.00    +0.047 A 
ATOM      9 CL   UNL     1       1.007   1.389   5.711  0.00  0.00    -0.083 Cl
BRANCH   8  10
ATOM     10  N   UNL     1       4.410  -3.010   3.716  0.00  0.00    -0.357 N 
ATOM     11  H   UNL     1       4.006  -3.781   3.288  0.00  0.00    +0.142 HD
ATOM     12  H   UNL     1       5.373  -2.962   3.819  0.00  0.00    +0.142 HD
ENDBRANCH   8  10
ENDBRANCH   1   3
BRANCH   1  13
ATOM     13  S   UNL     1       0.282  -2.954   2.479  0.00  0.00    +0.112 S 
ATOM     14  O   UNL     1      -0.676  -2.271   3.275  0.00  0.00    -0.138 OA
ATOM     15  O   UNL     1       0.018  -4.218   1.886  0.00  0.00    -0.138 OA
BRANCH  13  21
ATOM     16  C   UNL     1      -0.384   1.572   0.280  0.00  0.00    +0.009 C 
ATOM     17  C   UNL     1      -0.312   0.045   0.218  0.00  0.00    +0.002 C 
ATOM     18  C   UNL     1       0.342  -0.383  -1.098  0.00  0.00    +0.006 C 
ATOM     19  C   UNL     1       0.385  -1.910  -1.176  0.00  0.00    +0.017 C 
ATOM     20  C   UNL     1       1.228  -2.454  -0.018  0.00  0.00    +0.111 C 
ATOM     21  N   UNL     1       0.691  -1.929   1.245  0.00  0.00    -0.164 NA
ATOM     22  C   UNL     1       0.522  -0.476   1.392  0.00  0.00    +0.114 C 
ENDBRANCH  13  21
ENDBRANCH   1  13
TORSDOF 4
