REMARK  Name = ZINC58341985
REMARK  3 active torsions:
REMARK  status: ('A' for Active; 'I' for Inactive)
REMARK    1  A    between atoms: C_4  and  N_7
REMARK    2  A    between atoms: C_10  and  C_12
REMARK    3  A    between atoms: C_12  and  N_13
REMARK                            x       y       z     vdW  Elec       q    Type
REMARK                         _______ _______ _______ _____ _____    ______ ____
ROOT
ATOM      1  N   UNL     1       3.624  -0.652  -0.037  0.00  0.00    -0.240 N 
ATOM      2  C   UNL     1       3.786  -1.994  -0.052  0.00  0.00    +0.115 A 
ATOM      3  C   UNL     1       5.115  -2.248  -0.065  0.00  0.00    +0.046 A 
ATOM      4  C   UNL     1       5.788  -1.022  -0.059  0.00  0.00    +0.083 A 
ATOM      5  N   UNL     1       4.895  -0.065  -0.048  0.00  0.00    -0.170 NA
ENDROOT
BRANCH   1   9
ATOM      6  C   UNL     1      -0.017   1.379   0.010  0.00  0.00    +0.000 A 
ATOM      7  C   UNL     1       1.170   2.089   0.002  0.00  0.00    +0.002 A 
ATOM      8  C   UNL     1       2.377   1.419  -0.013  0.00  0.00    +0.028 A 
ATOM      9  C   UNL     1       2.399   0.031  -0.021  0.00  0.00    +0.065 A 
ATOM     10  C   UNL     1       1.207  -0.680  -0.013  0.00  0.00    +0.028 A 
ATOM     11  C   UNL     1       0.002  -0.004   0.002  0.00  0.00    +0.002 A 
ENDBRANCH   1   9
BRANCH   4  12
ATOM     12  C   UNL     1       7.283  -0.835  -0.069  0.00  0.00    +0.183 C 
BRANCH  12  13
ATOM     13  N   UNL     1       7.742  -0.641  -1.447  0.00  0.00    -0.292 N 
ATOM     14  C   UNL     1       8.096  -1.710  -2.208  0.00  0.00    +0.203 A 
ATOM     15  N   UNL     1       8.508  -1.604  -3.431  0.00  0.00    -0.236 NA
ATOM     16  C   UNL     1       8.620  -0.387  -4.057  0.00  0.00    +0.085 A 
ATOM     17  C   UNL     1       9.047  -0.114  -5.364  0.00  0.00    +0.036 A 
ATOM     18  C   UNL     1       9.092   1.160  -5.812  0.00  0.00    +0.048 A 
ATOM     19  S   UNL     1       8.525   2.093  -4.399  0.00  0.00    -0.090 S 
ATOM     20  C   UNL     1       8.260   0.735  -3.291  0.00  0.00    +0.102 A 
ATOM     21  C   UNL     1       7.812   0.604  -1.976  0.00  0.00    +0.269 A 
ATOM     22  O   UNL     1       7.498   1.583  -1.320  0.00  0.00    -0.266 OA
ENDBRANCH  12  13
ENDBRANCH   4  12
TORSDOF 3
