REMARK  Name = ZINC39143325
REMARK  8 active torsions:
REMARK  status: ('A' for Active; 'I' for Inactive)
REMARK    1  A    between atoms: C_1  and  O_2
REMARK    2  A    between atoms: O_2  and  C_3
REMARK    3  A    between atoms: C_9  and  C_12
REMARK    4  A    between atoms: C_13  and  C_14
REMARK    5  A    between atoms: N_25  and  C_26
REMARK    6  A    between atoms: C_26  and  C_27
REMARK    7  A    between atoms: C_27  and  C_28
REMARK    8  A    between atoms: C_28  and  O_29
REMARK                            x       y       z     vdW  Elec       q    Type
REMARK                         _______ _______ _______ _____ _____    ______ ____
ROOT
ATOM      1  C   UNL     1       0.941  -7.514   1.320  0.00  0.00    +0.185 C 
ATOM      2  N   UNL     1       2.116  -8.295   0.914  0.00  0.00    -0.322 N 
ATOM      3  C   UNL     1       2.741  -9.095   1.863  0.00  0.00    +0.041 A 
ATOM      4  C   UNL     1       4.097  -9.371   1.811  0.00  0.00    +0.024 A 
ATOM      5  C   UNL     1       4.670 -10.169   2.783  0.00  0.00    +0.002 A 
ATOM      6  C   UNL     1       3.898 -10.696   3.807  0.00  0.00    +0.001 A 
ATOM      7  C   UNL     1       2.546 -10.432   3.873  0.00  0.00    +0.015 A 
ATOM      8  C   UNL     1       1.955  -9.630   2.900  0.00  0.00    +0.058 A 
ATOM      9  C   UNL     1       0.514  -9.323   2.917  0.00  0.00    +0.250 C 
ATOM     10  O   UNL     1      -0.240  -9.952   3.634  0.00  0.00    -0.270 OA
ATOM     11  N   UNL     1       0.043  -8.338   2.130  0.00  0.00    -0.275 N 
ATOM     12  H   UNL     1       2.449  -8.253   0.004  0.00  0.00    +0.148 HD
ENDROOT
BRANCH   1  14
ATOM     13  C   UNL     1       1.110  -5.082   1.699  0.00  0.00    +0.005 C 
ATOM     14  C   UNL     1       1.388  -6.322   2.126  0.00  0.00    +0.015 C 
BRANCH  13  21
ATOM     15  C   UNL     1       0.626  -0.619   1.042  0.00  0.00    +0.121 A 
ATOM     16  C   UNL     1       1.204   0.164   2.054  0.00  0.00    +0.047 A 
ATOM     17  C   UNL     1       1.837  -0.392   3.112  0.00  0.00    +0.029 A 
ATOM     18  C   UNL     1       1.930  -1.806   3.219  0.00  0.00    +0.043 A 
ATOM     19  N   UNL     1       2.483  -2.575   4.132  0.00  0.00    -0.380 N 
ATOM     20  C   UNL     1       2.295  -3.980   3.758  0.00  0.00    +0.149 C 
ATOM     21  C   UNL     1       1.528  -3.966   2.454  0.00  0.00    -0.019 C 
ATOM     22  C   UNL     1       1.323  -2.626   2.154  0.00  0.00    +0.006 A 
ATOM     23  C   UNL     1       0.671  -1.977   1.080  0.00  0.00    +0.056 A 
ATOM     24  H   UNL     1       2.944  -2.262   4.926  0.00  0.00    +0.160 HD
BRANCH  15  26
ATOM     25  C   UNL     1      -0.017   1.425   0.010  0.00  0.00    +0.277 C 
ATOM     26  O   UNL     1       0.002  -0.004   0.002  0.00  0.00    -0.495 OA
ENDBRANCH  15  26
ENDBRANCH  13  21
ENDBRANCH   1  14
BRANCH  11  27
ATOM     27  C   UNL     1      -1.399  -8.086   2.086  0.00  0.00    +0.112 C 
BRANCH  27  28
ATOM     28  C   UNL     1      -2.031  -8.932   0.978  0.00  0.00    +0.047 C 
BRANCH  28  29
ATOM     29  C   UNL     1      -3.538  -8.669   0.933  0.00  0.00    +0.157 C 
BRANCH  29  30
ATOM     30  O   UNL     1      -4.128  -9.459  -0.102  0.00  0.00    -0.395 OA
ATOM     31  H   UNL     1      -5.084  -9.343  -0.188  0.00  0.00    +0.209 HD
ENDBRANCH  29  30
ENDBRANCH  28  29
ENDBRANCH  27  28
ENDBRANCH  11  27
TORSDOF 7
