REMARK  Name = ZINC46129818
REMARK  11 active torsions:
REMARK  status: ('A' for Active; 'I' for Inactive)
REMARK    1  A    between atoms: C_1  and  C_2
REMARK    2  A    between atoms: C_3  and  C_8
REMARK    3  A    between atoms: C_4  and  C_7
REMARK    4  A    between atoms: C_8  and  N_9
REMARK    5  A    between atoms: N_9  and  C_10
REMARK    6  A    between atoms: N_13  and  C_14
REMARK    7  A    between atoms: C_14  and  C_15
REMARK    8  A    between atoms: C_20  and  C_21
REMARK    9  A    between atoms: C_21  and  N_22
REMARK   10  A    between atoms: C_24  and  C_31
REMARK   11  A    between atoms: C_27  and  C_30
REMARK                            x       y       z     vdW  Elec       q    Type
REMARK                         _______ _______ _______ _____ _____    ______ ____
ROOT
ATOM      1  C   UNL     1       5.389   1.831  -3.834  0.00  0.00    -0.029 A 
ATOM      2  C   UNL     1       6.498   1.581  -3.048  0.00  0.00    +0.005 A 
ATOM      3  C   UNL     1       7.767   1.710  -3.581  0.00  0.00    +0.000 A 
ATOM      4  C   UNL     1       7.927   2.088  -4.902  0.00  0.00    +0.000 A 
ATOM      5  C   UNL     1       6.818   2.337  -5.688  0.00  0.00    +0.002 A 
ATOM      6  C   UNL     1       5.549   2.204  -5.156  0.00  0.00    -0.059 A 
ENDROOT
BRANCH   1   7
ATOM      7  C   UNL     1       4.006   1.691  -3.253  0.00  0.00    +0.141 C 
BRANCH   7  12
ATOM      8  N   UNL     1       1.623  -1.070  -3.723  0.00  0.00    -0.284 N 
ATOM      9  C   UNL     1       2.380  -1.961  -4.606  0.00  0.00    +0.134 C 
ATOM     10  C   UNL     1       2.170   0.090  -3.307  0.00  0.00    +0.303 C 
ATOM     11  O   UNL     1       1.542   0.829  -2.574  0.00  0.00    -0.253 OA
ATOM     12  N   UNL     1       3.412   0.430  -3.704  0.00  0.00    -0.295 N 
ATOM     13  H   UNL     1       3.913  -0.160  -4.290  0.00  0.00    +0.151 HD
BRANCH   8  14
ATOM     14  C   UNL     1       0.273  -1.440  -3.291  0.00  0.00    +0.149 C 
BRANCH  14  17
ATOM     15  C   UNL     1       0.209  -0.236  -0.353  0.00  0.00    +0.069 C 
ATOM     16  C   UNL     1       0.326  -1.696  -0.709  0.00  0.00    +0.085 A 
ATOM     17  C   UNL     1       0.354  -2.229  -2.010  0.00  0.00    +0.034 A 
ATOM     18  C   UNL     1       0.466  -3.567  -1.912  0.00  0.00    +0.139 A 
ATOM     19  O   UNL     1       0.507  -3.886  -0.609  0.00  0.00    -0.359 OA
ATOM     20  N   UNL     1       0.423  -2.683   0.135  0.00  0.00    -0.083 NA
ATOM     21  C   UNL     1       0.531  -4.538  -3.063  0.00  0.00    +0.089 C 
ENDBRANCH  14  17
ENDBRANCH   8  14
ENDBRANCH   7  12
ENDBRANCH   1   7
BRANCH   6  22
ATOM     22  C   UNL     1       4.339   2.470  -6.015  0.00  0.00    -0.043 C 
BRANCH  22  23
ATOM     23  N   UNL     1       4.766   3.049  -7.296  0.00  0.00    +0.383 N 
ATOM     24  C   UNL     1       5.321   4.388  -7.065  0.00  0.00    -0.075 C 
ATOM     25  C   UNL     1       5.842   4.963  -8.385  0.00  0.00    -0.031 C 
ATOM     26  C   UNL     1       4.687   5.052  -9.387  0.00  0.00    +0.003 C 
ATOM     27  C   UNL     1       4.069   3.662  -9.563  0.00  0.00    -0.031 C 
ATOM     28  C   UNL     1       3.614   3.136  -8.200  0.00  0.00    -0.075 C 
ATOM     29  C   UNL     1       2.865   3.754 -10.504  0.00  0.00    +0.005 C 
ATOM     30  C   UNL     1       6.935   4.050  -8.943  0.00  0.00    +0.005 C 
ATOM     31  H   UNL     1       5.474   2.461  -7.710  0.00  0.00    -0.081 HD
ENDBRANCH  22  23
ENDBRANCH   6  22
TORSDOF 6
