REMARK  Name = ZINC50001922
REMARK  6 active torsions:
REMARK  status: ('A' for Active; 'I' for Inactive)
REMARK    1  A    between atoms: C_1  and  C_2
REMARK    2  A    between atoms: C_5  and  N_8
REMARK    3  A    between atoms: N_8  and  C_9
REMARK    4  A    between atoms: N_8  and  S_10
REMARK    5  A    between atoms: S_10  and  C_13
REMARK    6  A    between atoms: C_16  and  N_20
REMARK                            x       y       z     vdW  Elec       q    Type
REMARK                         _______ _______ _______ _____ _____    ______ ____
ROOT
ATOM      1  S   UNL     1      -0.415  -5.009   1.325  0.00  0.00    +0.076 S 
ATOM      2  O   UNL     1       0.303  -6.236   1.309  0.00  0.00    -0.150 OA
ATOM      3  O   UNL     1      -0.348  -4.101   2.416  0.00  0.00    -0.150 OA
ENDROOT
BRANCH   1   4
ATOM      4  C   UNL     1      -2.115  -5.418   1.112  0.00  0.00    +0.127 A 
ATOM      5  C   UNL     1      -2.498  -6.742   1.002  0.00  0.00    +0.032 A 
ATOM      6  C   UNL     1      -3.830  -7.066   0.836  0.00  0.00    +0.025 A 
ATOM      7  C   UNL     1      -4.787  -6.061   0.779  0.00  0.00    +0.026 A 
ATOM      8  C   UNL     1      -4.401  -4.731   0.891  0.00  0.00    +0.044 A 
ATOM      9  C   UNL     1      -3.066  -4.414   1.062  0.00  0.00    +0.069 A 
ATOM     10 CL   UNL     1      -2.582  -2.753   1.208  0.00  0.00    -0.081 Cl
BRANCH   7  11
ATOM     11  N   UNL     1      -6.135  -6.386   0.611  0.00  0.00    -0.358 N 
ATOM     12  H   UNL     1      -6.404  -7.314   0.533  0.00  0.00    +0.142 HD
ATOM     13  H   UNL     1      -6.802  -5.683   0.572  0.00  0.00    +0.142 HD
ENDBRANCH   7  11
ENDBRANCH   1   4
BRANCH   1  14
ATOM     14  N   UNL     1       0.058  -4.167  -0.021  0.00  0.00    -0.206 N 
ATOM     15  C   UNL     1       0.456  -4.887  -1.233  0.00  0.00    +0.157 C 
BRANCH  14  20
ATOM     16  C   UNL     1       0.135   1.502   0.064  0.00  0.00    +0.044 C 
ATOM     17  C   UNL     1       0.114  -0.004   0.042  0.00  0.00    -0.050 A 
ATOM     18  C   UNL     1      -0.629  -0.670  -0.916  0.00  0.00    +0.005 A 
ATOM     19  C   UNL     1      -0.649  -2.051  -0.940  0.00  0.00    +0.025 A 
ATOM     20  C   UNL     1       0.077  -2.771  -0.000  0.00  0.00    +0.051 A 
ATOM     21  C   UNL     1       0.822  -2.099   0.961  0.00  0.00    +0.025 A 
ATOM     22  C   UNL     1       0.843  -0.718   0.975  0.00  0.00    +0.005 A 
ENDBRANCH  14  20
ENDBRANCH   1  14
TORSDOF 4
