REMARK  Name = ZINC39470007
REMARK  7 active torsions:
REMARK  status: ('A' for Active; 'I' for Inactive)
REMARK    1  A    between atoms: C_1  and  C_2
REMARK    2  A    between atoms: C_2  and  O_3
REMARK    3  A    between atoms: O_3  and  C_4
REMARK    4  A    between atoms: P_13  and  S_23
REMARK    5  A    between atoms: S_23  and  C_26
REMARK    6  A    between atoms: C_26  and  C_27
REMARK    7  A    between atoms: C_26  and  C_28
REMARK                            x       y       z     vdW  Elec       q    Type
REMARK                         _______ _______ _______ _____ _____    ______ ____
ROOT
ATOM      1  C   UNL     1       0.777  -1.810  -1.336  0.00  0.00    +0.130 C 
ATOM      2  C   UNL     1       0.262  -2.641  -0.421  0.00  0.00    +0.024 C 
ATOM      3  C   UNL     1       0.385  -4.124  -0.639  0.00  0.00    +0.025 C 
ATOM      4  C   UNL     1      -0.686  -4.891   0.130  0.00  0.00    +0.031 C 
ATOM      5  C   UNL     1      -0.536  -6.394  -0.142  0.00  0.00    +0.100 C 
ATOM      6  C   UNL     1      -1.664  -7.108   0.615  0.00  0.00    +0.191 C 
ATOM      7  O   UNL     1      -1.530  -8.530   0.446  0.00  0.00    -0.299 OA
ATOM      8  P   UNL     1      -1.362  -9.103  -1.067  0.00  0.00    +0.419 P 
ATOM      9  O   UNL     1      -2.679  -9.174  -1.739  0.00  0.00    -0.246 OA
ATOM     10  N   UNL     1      -0.385  -8.018  -1.837  0.00  0.00    -0.161 NA
ATOM     11  N   UNL     1      -0.612  -6.681  -1.575  0.00  0.00    -0.228 NA
ATOM     12  C   UNL     1       0.377  -5.919  -2.360  0.00  0.00    +0.111 C 
ATOM     13  C   UNL     1       0.203  -4.423  -2.133  0.00  0.00    +0.035 C 
ATOM     14  C   UNL     1       1.191  -3.608  -2.919  0.00  0.00    -0.003 C 
ATOM     15  C   UNL     1       1.455  -2.363  -2.526  0.00  0.00    +0.056 C 
ATOM     16 BR   UNL     1       2.699  -1.311  -3.486  0.00  0.00    -0.047 Br
ATOM     17  H   UNL     1       0.309  -8.310  -2.450  0.00  0.00    +0.152 HD
ENDROOT
BRANCH   8  18
ATOM     18  S   UNL     1      -0.454 -11.019  -1.031  0.00  0.00    +0.058 S 
ATOM     19  O   UNL     1      -0.450 -11.444  -2.387  0.00  0.00    -0.164 OA
ATOM     20  O   UNL     1       0.767 -10.828  -0.328  0.00  0.00    -0.164 OA
BRANCH  18  21
ATOM     21  C   UNL     1      -1.582 -12.051  -0.056  0.00  0.00    +0.136 C 
ATOM     22  C   UNL     1      -0.963 -13.436   0.144  0.00  0.00    +0.032 C 
ATOM     23  C   UNL     1      -1.821 -11.398   1.308  0.00  0.00    +0.032 C 
ENDBRANCH  18  21
ENDBRANCH   8  18
BRANCH   1  24
ATOM     24  O   UNL     1       0.671  -0.465  -1.174  0.00  0.00    -0.491 OA
BRANCH  24  26
ATOM     25  C   UNL     1      -0.019   1.526   0.010  0.00  0.00    +0.048 C 
ATOM     26  C   UNL     1       0.002  -0.004   0.002  0.00  0.00    +0.226 C 
ENDBRANCH  24  26
ENDBRANCH   1  24
TORSDOF 4
