REMARK  Name = ZINC60042332
REMARK  11 active torsions:
REMARK  status: ('A' for Active; 'I' for Inactive)
REMARK    1  A    between atoms: C_1  and  C_2
REMARK    2  A    between atoms: C_2  and  C_4
REMARK    3  A    between atoms: C_2  and  N_14
REMARK    4  A    between atoms: C_6  and  O_12
REMARK    5  A    between atoms: C_9  and  O_10
REMARK    6  A    between atoms: O_10  and  C_11
REMARK    7  A    between atoms: O_12  and  C_13
REMARK    8  A    between atoms: C_15  and  C_17
REMARK    9  A    between atoms: C_17  and  N_18
REMARK   10  A    between atoms: C_24  and  O_28
REMARK   11  A    between atoms: O_28  and  C_29
REMARK                            x       y       z     vdW  Elec       q    Type
REMARK                         _______ _______ _______ _____ _____    ______ ____
ROOT
ATOM      1  N   UNL     1      -1.367  -0.519  -0.080  0.00  0.00    -0.310 N 
ATOM      2  C   UNL     1      -1.942  -0.716  -1.283  0.00  0.00    +0.197 C 
ATOM      3  O   UNL     1      -1.327  -0.465  -2.297  0.00  0.00    -0.278 OA
ATOM      4  H   UNL     1      -1.859  -0.720   0.732  0.00  0.00    +0.149 HD
ENDROOT
BRANCH   1   6
ATOM      5  C   UNL     1      -0.027   1.526  -0.016  0.00  0.00    +0.033 C 
ATOM      6  C   UNL     1       0.002  -0.004   0.002  0.00  0.00    +0.104 C 
BRANCH   6   7
ATOM      7  C   UNL     1       0.642  -0.479   1.281  0.00  0.00    +0.018 A 
ATOM      8  C   UNL     1      -0.143  -0.766   2.381  0.00  0.00    +0.054 A 
ATOM      9  C   UNL     1       0.446  -1.203   3.558  0.00  0.00    +0.121 A 
ATOM     10  C   UNL     1       1.823  -1.353   3.631  0.00  0.00    +0.049 A 
ATOM     11  C   UNL     1       2.608  -1.067   2.531  0.00  0.00    +0.049 A 
ATOM     12  C   UNL     1       2.018  -0.634   1.352  0.00  0.00    +0.125 A 
BRANCH  12  13
ATOM     13  O   UNL     1       2.790  -0.357   0.267  0.00  0.00    -0.495 OA
ATOM     14  C   UNL     1       4.200  -0.539   0.411  0.00  0.00    +0.277 C 
ENDBRANCH  12  13
BRANCH   9  15
ATOM     15  O   UNL     1      -0.327  -1.485   4.641  0.00  0.00    -0.495 OA
ATOM     16  C   UNL     1       0.346  -1.931   5.820  0.00  0.00    +0.277 C 
ENDBRANCH   9  15
ENDBRANCH   6   7
ENDBRANCH   1   6
BRANCH   2  17
ATOM     17  C   UNL     1      -3.350  -1.246  -1.367  0.00  0.00    +0.019 C 
BRANCH  17  18
ATOM     18  N   UNL     1      -3.743  -1.369  -2.777  0.00  0.00    +0.388 N 
ATOM     19  C   UNL     1      -5.152  -1.783  -2.861  0.00  0.00    -0.073 C 
ATOM     20  C   UNL     1      -5.627  -1.609  -4.304  0.00  0.00    +0.017 C 
ATOM     21  C   UNL     1      -4.659  -2.281  -5.244  0.00  0.00    -0.048 A 
ATOM     22  C   UNL     1      -5.068  -2.542  -6.543  0.00  0.00    +0.007 A 
ATOM     23  C   UNL     1      -4.211  -3.153  -7.435  0.00  0.00    +0.046 A 
ATOM     24  C   UNL     1      -2.932  -3.508  -7.029  0.00  0.00    +0.120 A 
ATOM     25  C   UNL     1      -2.526  -3.249  -5.731  0.00  0.00    +0.047 A 
ATOM     26  C   UNL     1      -3.390  -2.636  -4.836  0.00  0.00    -0.057 A 
ATOM     27  C   UNL     1      -2.909  -2.381  -3.432  0.00  0.00    -0.042 C 
ATOM     28  H   UNL     1      -3.623  -0.481  -3.240  0.00  0.00    -0.081 HD
BRANCH  24  29
ATOM     29  O   UNL     1      -2.082  -4.109  -7.902  0.00  0.00    -0.495 OA
ATOM     30  C   UNL     1      -2.570  -4.346  -9.224  0.00  0.00    +0.277 C 
ENDBRANCH  24  29
ENDBRANCH  17  18
ENDBRANCH   2  17
TORSDOF 7
