REMARK  Name = ZINC38898035
REMARK  3 active torsions:
REMARK  status: ('A' for Active; 'I' for Inactive)
REMARK    1  A    between atoms: C_3  and  C_9
REMARK    2  A    between atoms: N_10  and  N_11
REMARK    3  A    between atoms: C_12  and  C_14
REMARK                            x       y       z     vdW  Elec       q    Type
REMARK                         _______ _______ _______ _____ _____    ______ ____
ROOT
ATOM      1  N   UNL     1       5.990   2.240  -0.044  0.00  0.00    -0.205 N 
ATOM      2  C   UNL     1       7.165   1.580  -0.059  0.00  0.00    +0.263 C 
ATOM      3  O   UNL     1       7.179   0.367  -0.065  0.00  0.00    -0.271 OA
ATOM      4  H   UNL     1       5.979   3.210  -0.039  0.00  0.00    +0.177 HD
ENDROOT
BRANCH   2   5
ATOM      5  C   UNL     1       8.461   2.349  -0.067  0.00  0.00    +0.243 C 
ATOM      6  C   UNL     1       8.842   2.774   1.336  0.00  0.00    -0.012 C 
ATOM      7  C   UNL     1      10.005   2.169   1.569  0.00  0.00    +0.065 C 
ATOM      8  C   UNL     1      10.497   2.520   2.962  0.00  0.00    +0.057 C 
ATOM      9  C   UNL     1       9.680   3.763   3.376  0.00  0.00    +0.011 C 
ATOM     10  C   UNL     1       8.405   3.600   2.518  0.00  0.00    +0.035 C 
ATOM     11  N   UNL     1      10.372   1.435   0.484  0.00  0.00    -0.158 NA
ATOM     12  N   UNL     1       9.581   1.478  -0.464  0.00  0.00    -0.170 NA
ENDBRANCH   2   5
BRANCH   1  14
ATOM     13  C   UNL     1       3.654   2.161  -0.022  0.00  0.00    +0.139 C 
ATOM     14  N   UNL     1       4.785   1.525  -0.036  0.00  0.00    -0.188 NA
BRANCH  13  17
ATOM     15  C   UNL     1      -0.017   1.381   0.010  0.00  0.00    +0.021 A 
ATOM     16  C   UNL     1       1.166   2.090   0.002  0.00  0.00    +0.012 A 
ATOM     17  C   UNL     1       2.385   1.409  -0.013  0.00  0.00    +0.013 A 
ATOM     18  C   UNL     1       2.398   0.011  -0.021  0.00  0.00    +0.051 A 
ATOM     19  C   UNL     1       1.207  -0.686  -0.013  0.00  0.00    +0.040 A 
ATOM     20  C   UNL     1       0.002  -0.004   0.002  0.00  0.00    +0.042 A 
ATOM     21 CL   UNL     1      -1.492  -0.888   0.012  0.00  0.00    -0.083 Cl
ATOM     22 CL   UNL     1       3.908  -0.846  -0.040  0.00  0.00    -0.083 Cl
ENDBRANCH  13  17
ENDBRANCH   1  14
TORSDOF 3
