REMARK  Name = ZINC43118040
REMARK  4 active torsions:
REMARK  status: ('A' for Active; 'I' for Inactive)
REMARK    1  A    between atoms: C_1  and  C_2
REMARK    2  A    between atoms: N_14  and  C_15
REMARK    3  A    between atoms: C_18  and  S_21
REMARK    4  A    between atoms: S_21  and  C_22
REMARK                            x       y       z     vdW  Elec       q    Type
REMARK                         _______ _______ _______ _____ _____    ______ ____
ROOT
ATOM      1  C   UNL     1       0.636   1.397   0.370  0.00  0.00    +0.033 C 
ATOM      2  C   UNL     1       0.056   0.019   0.046  0.00  0.00    +0.105 C 
ATOM      3  C   UNL     1       0.380  -0.352  -1.400  0.00  0.00    -0.017 A 
ATOM      4  C   UNL     1      -0.250   0.233  -2.498  0.00  0.00    +0.013 A 
ATOM      5  C   UNL     1       0.090  -0.142  -3.752  0.00  0.00    +0.046 A 
ATOM      6  S   UNL     1       1.348  -1.371  -3.440  0.00  0.00    -0.101 S 
ATOM      7  C   UNL     1       1.323  -1.294  -1.668  0.00  0.00    -0.004 A 
ATOM      8  C   UNL     1       2.140  -2.079  -0.694  0.00  0.00    +0.062 C 
ATOM      9  C   UNL     1       2.061  -1.395   0.679  0.00  0.00    +0.115 C 
ATOM     10  N   UNL     1       0.665  -0.995   0.918  0.00  0.00    -0.278 N 
ATOM     11  C   UNL     1      -0.045  -1.550   1.920  0.00  0.00    +0.307 C 
ATOM     12  O   UNL     1       0.434  -2.455   2.575  0.00  0.00    -0.252 OA
ATOM     13  N   UNL     1      -1.285  -1.102   2.196  0.00  0.00    -0.269 N 
ATOM     14  H   UNL     1      -1.698  -0.433   1.626  0.00  0.00    +0.156 HD
ENDROOT
BRANCH  13  15
ATOM     15  C   UNL     1      -1.980  -1.601   3.306  0.00  0.00    +0.035 A 
ATOM     16  C   UNL     1      -1.288  -1.962   4.454  0.00  0.00    +0.024 A 
ATOM     17  C   UNL     1      -1.972  -2.454   5.548  0.00  0.00    +0.017 A 
ATOM     18  C   UNL     1      -3.354  -2.588   5.500  0.00  0.00    +0.013 A 
ATOM     19  C   UNL     1      -4.047  -2.227   4.351  0.00  0.00    +0.017 A 
ATOM     20  C   UNL     1      -3.362  -1.731   3.259  0.00  0.00    +0.024 A 
BRANCH  18  21
ATOM     21  S   UNL     1      -4.227  -3.216   6.895  0.00  0.00    -0.056 S 
BRANCH  21  22
ATOM     22  C   UNL     1      -5.963  -3.207   6.367  0.00  0.00    +0.404 C 
ATOM     23  F   UNL     1      -6.346  -1.899   6.049  0.00  0.00    -0.197 F 
ATOM     24  F   UNL     1      -6.112  -4.023   5.240  0.00  0.00    -0.197 F 
ENDBRANCH  21  22
ENDBRANCH  18  21
ENDBRANCH  13  15
TORSDOF 3
