REMARK  Name = ZINC12480697
REMARK  11 active torsions:
REMARK  status: ('A' for Active; 'I' for Inactive)
REMARK    1  A    between atoms: C_1  and  C_2
REMARK    2  A    between atoms: C_6  and  C_7
REMARK    3  A    between atoms: C_7  and  C_9
REMARK    4  A    between atoms: C_7  and  N_19
REMARK    5  A    between atoms: N_11  and  C_12
REMARK    6  A    between atoms: C_12  and  C_13
REMARK    7  A    between atoms: N_19  and  C_20
REMARK    8  A    between atoms: C_20  and  C_21
REMARK    9  A    between atoms: C_21  and  C_22
REMARK   10  A    between atoms: C_28  and  C_30
REMARK   11  A    between atoms: C_30  and  N_31
REMARK                            x       y       z     vdW  Elec       q    Type
REMARK                         _______ _______ _______ _____ _____    ______ ____
ROOT
ATOM      1  N   UNL     1       3.940  -3.557  -5.094  0.00  0.00    -0.284 N 
ATOM      2  C   UNL     1       4.597  -3.106  -6.181  0.00  0.00    +0.238 C 
ATOM      3  O   UNL     1       5.302  -2.123  -6.098  0.00  0.00    -0.274 OA
ENDROOT
BRANCH   1   4
ATOM      4  C   UNL     1       4.077  -2.859  -3.813  0.00  0.00    +0.199 C 
BRANCH   4  10
ATOM      5  C   UNL     1       2.393  -1.430  -1.679  0.00  0.00    +0.044 C 
ATOM      6  C   UNL     1       2.717  -0.811  -3.014  0.00  0.00    -0.038 A 
ATOM      7  C   UNL     1       2.257   0.453  -3.332  0.00  0.00    +0.011 A 
ATOM      8  C   UNL     1       2.568   0.980  -4.542  0.00  0.00    +0.046 A 
ATOM      9  S   UNL     1       3.545  -0.323  -5.273  0.00  0.00    -0.099 S 
ATOM     10  C   UNL     1       3.466  -1.486  -3.921  0.00  0.00    +0.022 A 
ENDBRANCH   4  10
BRANCH   4  11
ATOM     11  C   UNL     1       5.538  -2.733  -3.464  0.00  0.00    +0.239 C 
ATOM     12  O   UNL     1       6.377  -3.245  -4.173  0.00  0.00    -0.273 OA
ATOM     13  N   UNL     1       5.911  -2.050  -2.364  0.00  0.00    -0.311 N 
ATOM     14  H   UNL     1       5.240  -1.639  -1.797  0.00  0.00    +0.149 HD
BRANCH  13  15
ATOM     15  C   UNL     1       7.331  -1.927  -2.025  0.00  0.00    +0.135 C 
BRANCH  15  16
ATOM     16  C   UNL     1       7.479  -1.109  -0.740  0.00  0.00    +0.135 C 
ATOM     17  C   UNL     1       8.972  -0.867  -0.442  0.00  0.00    +0.035 C 
ATOM     18  C   UNL     1       9.184  -1.486   0.961  0.00  0.00    +0.031 C 
ATOM     19  C   UNL     1       7.741  -1.514   1.525  0.00  0.00    +0.160 C 
ATOM     20  O   UNL     1       6.935  -1.839   0.372  0.00  0.00    -0.375 OA
ENDBRANCH  15  16
ENDBRANCH  13  15
ENDBRANCH   4  11
ENDBRANCH   1   4
BRANCH   1  21
ATOM     21  C   UNL     1       3.088  -4.745  -5.193  0.00  0.00    +0.113 C 
BRANCH  21  22
ATOM     22  C   UNL     1       1.641  -4.316  -5.441  0.00  0.00    +0.054 C 
BRANCH  22  23
ATOM     23  C   UNL     1       0.747  -5.529  -5.421  0.00  0.00    -0.046 A 
ATOM     24  C   UNL     1       0.493  -6.219  -6.591  0.00  0.00    +0.004 A 
ATOM     25  C   UNL     1      -0.324  -7.334  -6.572  0.00  0.00    +0.000 A 
ATOM     26  C   UNL     1      -0.894  -7.753  -5.385  0.00  0.00    +0.000 A 
ATOM     27  C   UNL     1      -0.644  -7.060  -4.215  0.00  0.00    +0.000 A 
ATOM     28  C   UNL     1       0.176  -5.947  -4.234  0.00  0.00    +0.004 A 
ENDBRANCH  22  23
ENDBRANCH  21  22
ENDBRANCH   1  21
BRANCH   2  29
ATOM     29  C   UNL     1       4.455  -3.824  -7.498  0.00  0.00    +0.241 C 
BRANCH  29  30
ATOM     30  N   UNL     1       5.262  -3.143  -8.514  0.00  0.00    -0.235 N 
ATOM     31  C   UNL     1       4.852  -2.126  -9.344  0.00  0.00    +0.090 A 
ATOM     32  C   UNL     1       3.655  -1.439  -9.512  0.00  0.00    +0.029 A 
ATOM     33  C   UNL     1       3.566  -0.450 -10.451  0.00  0.00    +0.002 A 
ATOM     34  C   UNL     1       4.661  -0.123 -11.240  0.00  0.00    +0.002 A 
ATOM     35  C   UNL     1       5.849  -0.777 -11.089  0.00  0.00    +0.032 A 
ATOM     36  C   UNL     1       5.966  -1.798 -10.137  0.00  0.00    +0.113 A 
ATOM     37  N   UNL     1       6.979  -2.611  -9.777  0.00  0.00    -0.129 NA
ATOM     38  N   UNL     1       6.602  -3.404  -8.836  0.00  0.00    -0.064 NA
ENDBRANCH  29  30
ENDBRANCH   2  29
TORSDOF 10
