REMARK  Name = ZINC07713231
REMARK  5 active torsions:
REMARK  status: ('A' for Active; 'I' for Inactive)
REMARK    1  A    between atoms: C_1  and  C_2
REMARK    2  A    between atoms: C_2  and  C_3
REMARK    3  A    between atoms: C_3  and  N_4
REMARK    4  A    between atoms: N_9  and  C_12
REMARK    5  A    between atoms: C_16  and  C_17
REMARK                            x       y       z     vdW  Elec       q    Type
REMARK                         _______ _______ _______ _____ _____    ______ ____
ROOT
ATOM      1  N   UNL     1      -5.765   0.236  -0.227  0.00  0.00    -0.281 N 
ATOM      2  C   UNL     1      -5.140   1.457  -0.171  0.00  0.00    +0.123 A 
ATOM      3  C   UNL     1      -5.930   2.609  -0.226  0.00  0.00    +0.126 A 
ATOM      4  C   UNL     1      -7.380   2.466  -0.341  0.00  0.00    +0.269 A 
ATOM      5  O   UNL     1      -8.101   3.445  -0.392  0.00  0.00    -0.267 OA
ATOM      6  N   UNL     1      -7.900   1.220  -0.388  0.00  0.00    -0.263 N 
ATOM      7  C   UNL     1      -7.100   0.143  -0.332  0.00  0.00    +0.333 A 
ATOM      8  O   UNL     1      -7.605  -0.962  -0.379  0.00  0.00    -0.246 OA
ATOM      9  C   UNL     1      -9.350   1.042  -0.503  0.00  0.00    +0.157 C 
ATOM     10  C   UNL     1      -5.033   3.761  -0.150  0.00  0.00    +0.216 C 
ATOM     11  O   UNL     1      -5.337   4.942  -0.168  0.00  0.00    -0.285 OA
ATOM     12  C   UNL     1      -3.681   3.183  -0.048  0.00  0.00    +0.081 C 
ATOM     13  C   UNL     1      -2.514   3.869   0.046  0.00  0.00    +0.035 C 
ATOM     14  N   UNL     1      -3.830   1.798  -0.073  0.00  0.00    -0.297 N 
ATOM     15  H   UNL     1      -3.097   1.164  -0.025  0.00  0.00    +0.154 HD
ENDROOT
BRANCH  13  16
ATOM     16  C   UNL     1      -1.233   3.153  -0.032  0.00  0.00    -0.022 A 
ATOM     17  C   UNL     1      -1.147   1.936  -0.719  0.00  0.00    +0.009 A 
ATOM     18  C   UNL     1       0.056   1.268  -0.784  0.00  0.00    +0.022 A 
ATOM     19  C   UNL     1       1.183   1.801  -0.179  0.00  0.00    +0.059 A 
ATOM     20  C   UNL     1       1.108   3.009   0.499  0.00  0.00    +0.060 A 
ATOM     21  C   UNL     1      -0.091   3.687   0.576  0.00  0.00    +0.029 A 
ATOM     22 CL   UNL     1       2.526   3.668   1.251  0.00  0.00    -0.082 Cl
ATOM     23 CL   UNL     1       2.696   0.955  -0.272  0.00  0.00    -0.082 Cl
ENDBRANCH  13  16
BRANCH   1  24
ATOM     24  C   UNL     1      -4.961  -0.988  -0.171  0.00  0.00    +0.128 C 
BRANCH  24  26
ATOM     25  C   UNL     1      -3.729  -2.683  -1.531  0.00  0.00    +0.005 C 
ATOM     26  C   UNL     1      -4.568  -1.405  -1.589  0.00  0.00    +0.018 C 
ENDBRANCH  24  26
ENDBRANCH   1  24
TORSDOF 3
