REMARK  Name = ZINC05098835
REMARK  13 active torsions:
REMARK  status: ('A' for Active; 'I' for Inactive)
REMARK    1  A    between atoms: C_1  and  C_2
REMARK    2  A    between atoms: C_5  and  S_9
REMARK    3  A    between atoms: C_6  and  C_8
REMARK    4  A    between atoms: S_9  and  N_12
REMARK    5  A    between atoms: N_12  and  C_13
REMARK    6  A    between atoms: C_13  and  C_14
REMARK    7  A    between atoms: C_14  and  C_16
REMARK    8  A    between atoms: C_14  and  N_55
REMARK    9  A    between atoms: C_19  and  N_22
REMARK   10  A    between atoms: N_22  and  C_23
REMARK   11  A    between atoms: N_22  and  C_24
REMARK   12  A    between atoms: C_25  and  N_55
REMARK   13  A    between atoms: C_26  and  N_55
REMARK                            x       y       z     vdW  Elec       q    Type
REMARK                         _______ _______ _______ _____ _____    ______ ____
ROOT
ATOM      1  C   UNL     1      -0.283  -0.330   1.415  0.00  0.00    +0.095 C 
ENDROOT
BRANCH   1   2
ATOM      2  N   UNL     1       0.207  -1.496   2.155  0.00  0.00    -0.191 NA
ATOM      3  H   UNL     1       0.388  -2.326   1.688  0.00  0.00    +0.148 HD
BRANCH   2   4
ATOM      4  S   UNL     1       0.451  -1.396   3.790  0.00  0.00    +0.059 S 
ATOM      5  O   UNL     1       0.838  -2.693   4.223  0.00  0.00    -0.153 OA
ATOM      6  O   UNL     1       1.258  -0.247   4.011  0.00  0.00    -0.153 OA
BRANCH   4  11
ATOM      7  C   UNL     1      -4.904  -0.255   6.326  0.00  0.00    +0.044 C 
ATOM      8  C   UNL     1      -3.566  -0.540   5.693  0.00  0.00    -0.050 A 
ATOM      9  C   UNL     1      -2.551   0.395   5.771  0.00  0.00    +0.005 A 
ATOM     10  C   UNL     1      -1.324   0.134   5.190  0.00  0.00    +0.029 A 
ATOM     11  C   UNL     1      -1.112  -1.063   4.531  0.00  0.00    +0.108 A 
ATOM     12  C   UNL     1      -2.128  -1.996   4.449  0.00  0.00    -0.024 A 
ATOM     13  C   UNL     1      -3.354  -1.737   5.035  0.00  0.00    +0.008 A 
ATOM     14  C   UNL     1      -1.899  -3.298   3.726  0.00  0.00    +0.046 C 
ENDBRANCH   4  11
ENDBRANCH   2   4
ENDBRANCH   1   2
BRANCH   1  15
ATOM     15  C   UNL     1       0.047  -0.493  -0.070  0.00  0.00    -0.023 C 
BRANCH  15  16
ATOM     16  C   UNL     1      -0.491   0.687  -0.837  0.00  0.00    -0.060 A 
ATOM     17  C   UNL     1      -1.849   0.791  -1.079  0.00  0.00    +0.004 A 
ATOM     18  C   UNL     1      -2.346   1.874  -1.777  0.00  0.00    +0.023 A 
ATOM     19  C   UNL     1      -1.480   2.854  -2.244  0.00  0.00    +0.029 A 
ATOM     20  C   UNL     1      -0.116   2.744  -2.004  0.00  0.00    +0.023 A 
ATOM     21  C   UNL     1       0.374   1.661  -1.301  0.00  0.00    +0.004 A 
BRANCH  19  22
ATOM     22  N   UNL     1      -1.979   3.948  -2.955  0.00  0.00    -0.336 N 
ATOM     23  C   UNL     1      -1.064   4.980  -3.449  0.00  0.00    +0.129 C 
ATOM     24  C   UNL     1      -3.417   4.063  -3.208  0.00  0.00    +0.129 C 
ENDBRANCH  19  22
ENDBRANCH  15  16
BRANCH  15  27
ATOM     25  C   UNL     1      -1.814  -2.028   0.145  0.00  0.00    -0.096 C 
ATOM     26  C   UNL     1      -0.805  -1.644  -2.022  0.00  0.00    -0.096 C 
ATOM     27  N   UNL     1      -0.551  -1.749  -0.570  0.00  0.00    +0.381 N 
ATOM     28  H   UNL     1       0.105  -2.521  -0.402  0.00  0.00    -0.082 HD
ENDBRANCH  15  27
ENDBRANCH   1  15
TORSDOF 7
