REMARK  Name = ZINC45074141
REMARK  5 active torsions:
REMARK  status: ('A' for Active; 'I' for Inactive)
REMARK    1  A    between atoms: C_1  and  C_2
REMARK    2  A    between atoms: C_5  and  C_19
REMARK    3  A    between atoms: C_6  and  N_8
REMARK    4  A    between atoms: C_12  and  C_14
REMARK    5  A    between atoms: N_20  and  O_21
REMARK                            x       y       z     vdW  Elec       q    Type
REMARK                         _______ _______ _______ _____ _____    ______ ____
ROOT
ATOM      1  C   UNL     1      -3.110  -1.955  -0.771  0.00  0.00    +0.065 C 
ATOM      2  C   UNL     1      -1.690  -1.952  -0.265  0.00  0.00    +0.040 A 
ATOM      3  C   UNL     1      -0.675  -1.510  -1.093  0.00  0.00    +0.024 A 
ATOM      4  C   UNL     1       0.630  -1.507  -0.630  0.00  0.00    +0.016 A 
ATOM      5  C   UNL     1       0.874  -1.957   0.670  0.00  0.00    +0.058 A 
ATOM      6  C   UNL     1      -0.208  -2.391   1.450  0.00  0.00    +0.132 A 
ATOM      7  N   UNL     1      -1.438  -2.368   0.961  0.00  0.00    -0.236 NA
ENDROOT
BRANCH   6   8
ATOM      8  N   UNL     1       0.011  -2.841   2.742  0.00  0.00    -0.311 N 
ATOM      9  C   UNL     1       0.206  -4.247   3.141  0.00  0.00    +0.107 C 
ATOM     10  C   UNL     1       0.999  -4.176   4.470  0.00  0.00    +0.021 C 
ATOM     11  C   UNL     1       0.370  -2.926   5.141  0.00  0.00    +0.024 C 
ATOM     12  C   UNL     1       0.093  -1.995   3.942  0.00  0.00    +0.078 C 
BRANCH  12  13
ATOM     13  C   UNL     1      -1.233  -1.261   4.153  0.00  0.00    +0.009 C 
ATOM     14  C   UNL     1      -1.439  -0.212   3.041  0.00  0.00    +0.005 C 
ATOM     15  C   UNL     1      -2.112   0.981   3.764  0.00  0.00    +0.000 C 
ATOM     16  C   UNL     1      -1.391   1.000   5.135  0.00  0.00    +0.000 C 
ATOM     17  C   UNL     1      -1.203  -0.490   5.484  0.00  0.00    +0.005 C 
ENDBRANCH  12  13
ENDBRANCH   6   8
BRANCH   5  18
ATOM     18  C   UNL     1       2.249  -1.975   1.214  0.00  0.00    +0.166 C 
ATOM     19  N   UNL     1       2.452  -2.297   2.459  0.00  0.00    -0.071 NA
ATOM     20  N   UNL     1       3.320  -1.651   0.399  0.00  0.00    -0.340 N 
ATOM     21  H   UNL     1       3.169  -1.411  -0.529  0.00  0.00    +0.144 HD
ATOM     22  H   UNL     1       4.222  -1.663   0.755  0.00  0.00    +0.144 HD
BRANCH  19  23
ATOM     23  O   UNL     1       3.774  -2.415   2.953  0.00  0.00    -0.408 OA
ATOM     24  H   UNL     1       3.824  -2.657   3.888  0.00  0.00    +0.328 HD
ENDBRANCH  19  23
ENDBRANCH   5  18
TORSDOF 4
