REMARK  Name = ZINC41017252
REMARK  2 active torsions:
REMARK  status: ('A' for Active; 'I' for Inactive)
REMARK    1  A    between atoms: N_13  and  C_16
REMARK    2  A    between atoms: C_16  and  C_17
REMARK                            x       y       z     vdW  Elec       q    Type
REMARK                         _______ _______ _______ _____ _____    ______ ____
ROOT
ATOM      1  C   UNL     1      -0.017   1.386   0.010  0.00  0.00    +0.001 A 
ATOM      2  C   UNL     1       1.136   2.117   0.003  0.00  0.00    +0.008 A 
ATOM      3  C   UNL     1       2.382   1.466  -0.013  0.00  0.00    -0.016 A 
ATOM      4  C   UNL     1       3.597   2.174  -0.021  0.00  0.00    +0.008 A 
ATOM      5  C   UNL     1       4.782   1.497  -0.037  0.00  0.00    +0.001 A 
ATOM      6  C   UNL     1       4.828   0.107  -0.045  0.00  0.00    +0.014 A 
ATOM      7  C   UNL     1       3.652  -0.628  -0.037  0.00  0.00    +0.046 A 
ATOM      8  C   UNL     1       2.415   0.056  -0.021  0.00  0.00    +0.006 A 
ATOM      9  C   UNL     1       1.211  -0.684  -0.013  0.00  0.00    +0.046 A 
ATOM     10  C   UNL     1       0.002  -0.004   0.002  0.00  0.00    +0.014 A 
ATOM     11  C   UNL     1       1.285  -2.153  -0.022  0.00  0.00    +0.254 C 
ATOM     12  O   UNL     1       0.262  -2.810  -0.016  0.00  0.00    -0.270 OA
ATOM     13  N   UNL     1       2.480  -2.774  -0.037  0.00  0.00    -0.228 N 
ATOM     14  C   UNL     1       3.645  -2.098  -0.046  0.00  0.00    +0.254 C 
ATOM     15  O   UNL     1       4.697  -2.708  -0.060  0.00  0.00    -0.270 OA
ENDROOT
BRANCH  13  16
ATOM     16  C   UNL     1       2.514  -4.238  -0.046  0.00  0.00    +0.174 C 
BRANCH  16  17
ATOM     17  C   UNL     1       2.511  -4.732  -1.470  0.00  0.00    +0.081 A 
ATOM     18  C   UNL     1       3.641  -5.074  -2.221  0.00  0.00    +0.045 A 
ATOM     19  C   UNL     1       3.222  -5.470  -3.445  0.00  0.00    +0.105 A 
ATOM     20  N   UNL     1       1.875  -5.382  -3.468  0.00  0.00    -0.284 N 
ATOM     21  H   UNL     1       1.302  -5.602  -4.218  0.00  0.00    +0.188 HD
ATOM     22  N   UNL     1       1.452  -4.922  -2.214  0.00  0.00    -0.177 NA
ENDBRANCH  16  17
ENDBRANCH  13  16
TORSDOF 2
