REMARK  Name = ZINC29767525
REMARK  5 active torsions:
REMARK  status: ('A' for Active; 'I' for Inactive)
REMARK    1  A    between atoms: C_1  and  C_2
REMARK    2  A    between atoms: C_3  and  C_13
REMARK    3  A    between atoms: C_5  and  C_7
REMARK    4  A    between atoms: C_17  and  C_26
REMARK    5  A    between atoms: N_28  and  C_29
REMARK                            x       y       z     vdW  Elec       q    Type
REMARK                         _______ _______ _______ _____ _____    ______ ____
ROOT
ATOM      1  C   UNL     1      -1.202   5.925   0.329  0.00  0.00    +0.273 C 
ATOM      2  O   UNL     1      -2.250   5.328   0.479  0.00  0.00    -0.268 OA
ATOM      3  N   UNL     1      -0.071   5.244   0.056  0.00  0.00    -0.259 N 
ATOM      4  C   UNL     1       1.202   5.945  -0.183  0.00  0.00    +0.168 C 
ATOM      5  C   UNL     1       2.305   5.166   0.547  0.00  0.00    +0.276 C 
ATOM      6  O   UNL     1       2.326   3.825   0.054  0.00  0.00    -0.476 OA
ATOM      7  C   UNL     1       1.145   3.154  -0.006  0.00  0.00    +0.143 A 
ATOM      8  C   UNL     1      -0.066   3.841  -0.010  0.00  0.00    +0.079 A 
ATOM      9  C   UNL     1      -1.262   3.144  -0.077  0.00  0.00    +0.027 A 
ATOM     10  C   UNL     1      -1.251   1.763  -0.142  0.00  0.00    +0.002 A 
ATOM     11  C   UNL     1      -0.050   1.078  -0.131  0.00  0.00    +0.004 A 
ATOM     12  C   UNL     1       1.146   1.768  -0.066  0.00  0.00    +0.047 A 
ENDROOT
BRANCH   1  15
ATOM     13  C   UNL     1      -3.588   7.755   1.207  0.00  0.00    +0.089 C 
ATOM     14  C   UNL     1      -2.199   8.199   0.826  0.00  0.00    +0.135 A 
ATOM     15  C   UNL     1      -1.167   7.395   0.445  0.00  0.00    +0.167 A 
ATOM     16  N   UNL     1      -0.100   8.197   0.199  0.00  0.00    -0.204 NA
ATOM     17  C   UNL     1      -0.459   9.438   0.408  0.00  0.00    +0.228 A 
ATOM     18  O   UNL     1      -1.746   9.463   0.798  0.00  0.00    -0.440 OA
BRANCH  17  19
ATOM     19  C   UNL     1       0.412  10.623   0.248  0.00  0.00    +0.037 A 
ATOM     20  C   UNL     1       1.705  10.478  -0.257  0.00  0.00    +0.013 A 
ATOM     21  C   UNL     1       2.511  11.588  -0.409  0.00  0.00    +0.001 A 
ATOM     22  C   UNL     1       2.044  12.840  -0.051  0.00  0.00    +0.000 A 
ATOM     23  C   UNL     1       0.765  12.989   0.456  0.00  0.00    +0.001 A 
ATOM     24  C   UNL     1      -0.053  11.888   0.607  0.00  0.00    +0.013 A 
ENDBRANCH  17  19
ENDBRANCH   1  15
BRANCH   5  25
ATOM     25  C   UNL     1       3.639   5.819   0.292  0.00  0.00    +0.255 C 
ATOM     26  O   UNL     1       4.491   5.231  -0.339  0.00  0.00    -0.272 OA
ATOM     27  N   UNL     1       3.885   7.057   0.764  0.00  0.00    -0.315 N 
ATOM     28  C   UNL     1       5.181   7.692   0.515  0.00  0.00    +0.128 C 
ATOM     29  H   UNL     1       3.112   7.591   1.336  0.00  0.00    +0.148 HD
ENDBRANCH   5  25
TORSDOF 3
