REMARK  Name = ZINC66962581
REMARK  4 active torsions:
REMARK  status: ('A' for Active; 'I' for Inactive)
REMARK    1  A    between atoms: C_3  and  N_11
REMARK    2  A    between atoms: C_6  and  C_7
REMARK    3  A    between atoms: C_17  and  C_20
REMARK    4  A    between atoms: C_20  and  C_21
REMARK                            x       y       z     vdW  Elec       q    Type
REMARK                         _______ _______ _______ _____ _____    ______ ____
ROOT
ATOM      1  N   UNL     1       3.590   2.123  -0.085  0.00  0.00    -0.269 N 
ATOM      2  C   UNL     1       4.758   1.468   0.066  0.00  0.00    +0.306 C 
ATOM      3  O   UNL     1       4.772   0.253   0.118  0.00  0.00    -0.252 OA
ATOM      4  N   UNL     1       5.911   2.159   0.160  0.00  0.00    -0.285 N 
ATOM      5  C   UNL     1       5.898   3.623   0.284  0.00  0.00    +0.109 C 
ATOM      6  C   UNL     1       6.719   4.020   1.515  0.00  0.00    +0.023 C 
ATOM      7  C   UNL     1       8.119   3.411   1.409  0.00  0.00    +0.001 C 
ATOM      8  C   UNL     1       8.011   1.885   1.372  0.00  0.00    +0.023 C 
ATOM      9  C   UNL     1       7.205   1.463   0.145  0.00  0.00    +0.109 C 
ATOM     10  H   UNL     1       3.588   3.078  -0.255  0.00  0.00    +0.156 HD
ENDROOT
BRANCH   1  13
ATOM     11  C   UNL     1       0.019   1.406   0.419  0.00  0.00    +0.014 A 
ATOM     12  C   UNL     1       1.211   2.097   0.334  0.00  0.00    +0.024 A 
ATOM     13  C   UNL     1       2.380   1.425   0.002  0.00  0.00    +0.035 A 
ATOM     14  C   UNL     1       2.346   0.058  -0.243  0.00  0.00    +0.024 A 
ATOM     15  C   UNL     1       1.150  -0.628  -0.156  0.00  0.00    +0.014 A 
ATOM     16  C   UNL     1      -0.012   0.045   0.175  0.00  0.00    +0.055 A 
BRANCH  16  17
ATOM     17  C   UNL     1      -1.315  -0.707   0.269  0.00  0.00    +0.417 C 
ATOM     18  F   UNL     1      -1.946  -0.704  -0.980  0.00  0.00    -0.166 F 
ATOM     19  F   UNL     1      -1.065  -2.025   0.663  0.00  0.00    -0.166 F 
ATOM     20  F   UNL     1      -2.143  -0.087   1.211  0.00  0.00    -0.166 F 
ENDBRANCH  16  17
ENDBRANCH   1  13
BRANCH   7  21
ATOM     21  C   UNL     1       8.953   3.834   2.619  0.00  0.00    +0.099 C 
BRANCH  21  22
ATOM     22  C   UNL     1      10.366   3.337   2.455  0.00  0.00    +0.216 C 
ATOM     23  O   UNL     1      10.675   2.707   1.466  0.00  0.00    -0.276 OA
ATOM     24  N   UNL     1      11.285   3.594   3.406  0.00  0.00    -0.301 N 
ATOM     25  C   UNL     1      11.046   4.337   4.652  0.00  0.00    +0.108 C 
ATOM     26  C   UNL     1      12.387   4.402   5.412  0.00  0.00    +0.020 C 
ATOM     27  C   UNL     1      13.434   4.182   4.289  0.00  0.00    +0.020 C 
ATOM     28  C   UNL     1      12.697   3.170   3.373  0.00  0.00    +0.108 C 
ENDBRANCH  21  22
ENDBRANCH   7  21
TORSDOF 4
