REMARK  Name = ZINC39430840
REMARK  5 active torsions:
REMARK  status: ('A' for Active; 'I' for Inactive)
REMARK    1  A    between atoms: C_6  and  C_11
REMARK    2  A    between atoms: C_11  and  O_13
REMARK    3  A    between atoms: O_13  and  C_14
REMARK    4  A    between atoms: C_14  and  C_15
REMARK    5  A    between atoms: N_17  and  C_18
REMARK                            x       y       z     vdW  Elec       q    Type
REMARK                         _______ _______ _______ _____ _____    ______ ____
ROOT
ATOM      1  C   UNL     1       3.821  -4.635  -2.696  0.00  0.00    +0.328 C 
ENDROOT
BRANCH   1   2
ATOM      2  C   UNL     1       3.402  -6.082  -2.749  0.00  0.00    +0.255 C 
ATOM      3  O   UNL     1       2.744  -6.556  -1.847  0.00  0.00    -0.272 OA
ATOM      4  N   UNL     1       3.759  -6.849  -3.798  0.00  0.00    -0.281 N 
ATOM      5  H   UNL     1       4.228  -6.455  -4.550  0.00  0.00    +0.155 HD
BRANCH   4   6
ATOM      6  C   UNL     1       3.453  -8.212  -3.803  0.00  0.00    +0.062 A 
ATOM      7  C   UNL     1       2.297  -8.652  -3.236  0.00  0.00    +0.025 A 
ATOM      8  C   UNL     1       1.963 -10.004  -3.224  0.00  0.00    +0.004 A 
ATOM      9  C   UNL     1       2.772 -10.940  -3.775  0.00  0.00    +0.031 A 
ATOM     10  C   UNL     1       3.998 -10.557  -4.385  0.00  0.00    +0.102 A 
ATOM     11  C   UNL     1       4.350  -9.142  -4.406  0.00  0.00    +0.121 A 
ATOM     12  N   UNL     1       5.514  -8.900  -5.008  0.00  0.00    -0.189 NA
ATOM     13  S   UNL     1       6.063 -10.335  -5.486  0.00  0.00    +0.117 S 
ATOM     14  N   UNL     1       4.911 -11.333  -4.971  0.00  0.00    -0.191 NA
ENDBRANCH   4   6
ENDBRANCH   1   2
BRANCH   1  15
ATOM     15  O   UNL     1       3.325  -4.039  -1.496  0.00  0.00    -0.454 OA
BRANCH  15  16
ATOM     16  C   UNL     1       3.613  -2.744  -1.295  0.00  0.00    +0.334 C 
ATOM     17  O   UNL     1       4.265  -2.136  -2.111  0.00  0.00    -0.248 OA
BRANCH  16  23
ATOM     18  C   UNL     1      -0.055   1.334   0.000  0.00  0.00    +0.001 A 
ATOM     19  C   UNL     1       1.122   2.095  -0.012  0.00  0.00    +0.002 A 
ATOM     20  C   UNL     1       2.351   1.536  -0.029  0.00  0.00    +0.026 A 
ATOM     21  C   UNL     1       2.497   0.121  -0.035  0.00  0.00    +0.043 A 
ATOM     22  N   UNL     1       3.560  -0.646  -0.051  0.00  0.00    -0.369 N 
ATOM     23  C   UNL     1       3.124  -2.047  -0.051  0.00  0.00    +0.213 C 
ATOM     24  C   UNL     1       1.613  -2.012  -0.031  0.00  0.00    +0.018 C 
ATOM     25  C   UNL     1       1.268  -0.704  -0.022  0.00  0.00    -0.003 A 
ATOM     26  C   UNL     1      -0.029  -0.018  -0.004  0.00  0.00    +0.010 A 
ATOM     27  H   UNL     1       4.480  -0.339  -0.062  0.00  0.00    +0.161 HD
ENDBRANCH  16  23
ENDBRANCH  15  16
ENDBRANCH   1  15
TORSDOF 5
