REMARK  Name = ZINC10611741
REMARK  5 active torsions:
REMARK  status: ('A' for Active; 'I' for Inactive)
REMARK    1  A    between atoms: C_1  and  C_2
REMARK    2  A    between atoms: C_9  and  C_11
REMARK    3  A    between atoms: C_11  and  N_12
REMARK    4  A    between atoms: C_15  and  C_20
REMARK    5  A    between atoms: C_20  and  C_21
REMARK                            x       y       z     vdW  Elec       q    Type
REMARK                         _______ _______ _______ _____ _____    ______ ____
ROOT
ATOM      1  N   UNL     1      -2.551  -3.097  -2.177  0.00  0.00    -0.216 N 
ATOM      2  C   UNL     1      -2.909  -2.021  -1.448  0.00  0.00    +0.244 C 
ATOM      3  O   UNL     1      -3.981  -1.819  -0.920  0.00  0.00    -0.273 OA
ATOM      4  C   UNL     1      -1.692  -1.118  -1.426  0.00  0.00    +0.165 C 
ATOM      5  N   UNL     1      -0.696  -1.859  -2.219  0.00  0.00    -0.287 N 
ATOM      6  C   UNL     1      -1.290  -3.000  -2.613  0.00  0.00    +0.310 C 
ATOM      7  O   UNL     1      -0.742  -3.848  -3.290  0.00  0.00    -0.252 OA
ATOM      8  H   UNL     1       0.211  -1.579  -2.418  0.00  0.00    +0.151 HD
ENDROOT
BRANCH   1   9
ATOM      9  C   UNL     1      -3.433  -4.233  -2.456  0.00  0.00    +0.213 C 
BRANCH   9  17
ATOM     10  C   UNL     1      -3.670  -9.899  -0.000  0.00  0.00    +0.039 C 
ATOM     11  C   UNL     1      -3.622  -8.787  -1.050  0.00  0.00    +0.132 C 
ATOM     12  C   UNL     1      -3.860  -7.433  -0.372  0.00  0.00    +0.139 C 
ATOM     13  N   UNL     1      -3.995  -6.407  -1.419  0.00  0.00    -0.296 N 
ATOM     14  C   UNL     1      -4.943  -6.660  -2.517  0.00  0.00    +0.136 C 
ATOM     15  C   UNL     1      -4.648  -8.055  -3.092  0.00  0.00    +0.179 C 
ATOM     16  O   UNL     1      -4.640  -9.009  -2.029  0.00  0.00    -0.374 OA
ATOM     17  C   UNL     1      -3.277  -5.268  -1.372  0.00  0.00    +0.234 C 
ATOM     18  O   UNL     1      -2.505  -5.076  -0.456  0.00  0.00    -0.274 OA
ENDBRANCH   9  17
ENDBRANCH   1   9
BRANCH   4  19
ATOM     19  C   UNL     1      -1.197  -0.917   0.008  0.00  0.00    +0.069 C 
BRANCH  19  20
ATOM     20  C   UNL     1       0.002  -0.004   0.002  0.00  0.00    -0.020 A 
ATOM     21  C   UNL     1       1.291  -0.379  -0.012  0.00  0.00    +0.087 A 
ATOM     22  N   UNL     1       2.098   0.726  -0.014  0.00  0.00    -0.360 N 
ATOM     23  H   UNL     1       3.068   0.707  -0.023  0.00  0.00    +0.165 HD
ATOM     24  C   UNL     1       1.329   1.868  -0.001  0.00  0.00    +0.047 A 
ATOM     25  C   UNL     1      -0.018   1.461   0.010  0.00  0.00    +0.003 A 
ATOM     26  C   UNL     1      -1.034   2.417   0.030  0.00  0.00    +0.010 A 
ATOM     27  C   UNL     1      -0.716   3.746   0.028  0.00  0.00    +0.001 A 
ATOM     28  C   UNL     1       0.611   4.153   0.018  0.00  0.00    +0.002 A 
ATOM     29  C   UNL     1       1.631   3.225   0.003  0.00  0.00    +0.026 A 
ENDBRANCH  19  20
ENDBRANCH   4  19
TORSDOF 4
