REMARK  Name = ZINC67535369
REMARK  12 active torsions:
REMARK  status: ('A' for Active; 'I' for Inactive)
REMARK    1  A    between atoms: C_1  and  C_2
REMARK    2  A    between atoms: C_3  and  C_9
REMARK    3  A    between atoms: C_4  and  C_8
REMARK    4  A    between atoms: N_5  and  C_7
REMARK    5  A    between atoms: C_9  and  C_11
REMARK    6  A    between atoms: C_9  and  N_12
REMARK    7  A    between atoms: N_15  and  C_16
REMARK    8  A    between atoms: N_15  and  C_17
REMARK    9  A    between atoms: C_17  and  C_19
REMARK   10  A    between atoms: C_17  and  C_20
REMARK   11  A    between atoms: C_23  and  S_26
REMARK   12  A    between atoms: S_26  and  C_29
REMARK                            x       y       z     vdW  Elec       q    Type
REMARK                         _______ _______ _______ _____ _____    ______ ____
ROOT
ATOM      1  N   UNL     1      -0.562   0.618  -2.948  0.00  0.00    -0.293 N 
ATOM      2  C   UNL     1      -1.244   1.014  -4.040  0.00  0.00    +0.303 C 
ATOM      3  O   UNL     1      -1.361   0.263  -4.990  0.00  0.00    -0.253 OA
ATOM      4  N   UNL     1      -1.798   2.242  -4.081  0.00  0.00    -0.282 N 
ATOM      5  C   UNL     1      -1.658   3.147  -2.937  0.00  0.00    +0.134 C 
ATOM      6  H   UNL     1      -0.469   1.217  -2.191  0.00  0.00    +0.151 HD
ENDROOT
BRANCH   1   7
ATOM      7  C   UNL     1       0.040  -0.717  -2.904  0.00  0.00    +0.105 C 
ATOM      8  C   UNL     1       1.430  -0.671  -3.542  0.00  0.00    +0.033 C 
BRANCH   7  11
ATOM      9  C   UNL     1      -0.790  -3.556  -1.768  0.00  0.00    +0.068 C 
ATOM     10  C   UNL     1      -0.206  -2.420  -0.969  0.00  0.00    +0.065 A 
ATOM     11  C   UNL     1       0.160  -1.167  -1.471  0.00  0.00    +0.016 A 
ATOM     12  C   UNL     1       0.641  -0.431  -0.443  0.00  0.00    +0.041 A 
ATOM     13  N   UNL     1       0.582  -1.191   0.671  0.00  0.00    -0.271 N 
ATOM     14  N   UNL     1       0.042  -2.434   0.316  0.00  0.00    -0.176 NA
ATOM     15  C   UNL     1       1.004  -0.786   2.014  0.00  0.00    +0.172 C 
ATOM     16  C   UNL     1       1.153   0.985  -0.526  0.00  0.00    +0.065 C 
ENDBRANCH   7  11
ENDBRANCH   1   7
BRANCH   4  17
ATOM     17  C   UNL     1      -2.540   2.672  -5.268  0.00  0.00    +0.104 C 
ATOM     18  C   UNL     1      -1.864   3.903  -5.874  0.00  0.00    +0.033 C 
BRANCH  17  19
ATOM     19  C   UNL     1      -3.955   3.017  -4.879  0.00  0.00    -0.027 A 
ATOM     20  C   UNL     1      -4.631   4.021  -5.548  0.00  0.00    +0.007 A 
ATOM     21  C   UNL     1      -5.928   4.337  -5.191  0.00  0.00    +0.027 A 
ATOM     22  C   UNL     1      -6.550   3.650  -4.166  0.00  0.00    +0.088 A 
ATOM     23  C   UNL     1      -5.875   2.646  -3.498  0.00  0.00    +0.027 A 
ATOM     24  C   UNL     1      -4.579   2.326  -3.857  0.00  0.00    +0.007 A 
BRANCH  22  25
ATOM     25  S   UNL     1      -8.203   4.054  -3.710  0.00  0.00    -0.006 S 
ATOM     26  O   UNL     1      -8.308   3.668  -2.346  0.00  0.00    -0.170 OA
ATOM     27  O   UNL     1      -8.363   5.413  -4.093  0.00  0.00    -0.170 OA
ATOM     28  C   UNL     1      -9.245   2.987  -4.743  0.00  0.00    +0.200 C 
ENDBRANCH  22  25
ENDBRANCH  17  19
ENDBRANCH   4  17
TORSDOF 5
