REMARK  Name = ZINC44625982
REMARK  6 active torsions:
REMARK  status: ('A' for Active; 'I' for Inactive)
REMARK    1  A    between atoms: C_1  and  C_2
REMARK    2  A    between atoms: C_2  and  C_3
REMARK    3  A    between atoms: C_3  and  C_5
REMARK    4  A    between atoms: C_3  and  N_17
REMARK    5  A    between atoms: C_7  and  C_10
REMARK    6  A    between atoms: N_17  and  C_18
REMARK                            x       y       z     vdW  Elec       q    Type
REMARK                         _______ _______ _______ _____ _____    ______ ____
ROOT
ATOM      1  C   UNL     1       0.892  -1.765  -1.160  0.00  0.00    +0.214 A 
ATOM      2  N   UNL     1       2.019  -2.394  -0.988  0.00  0.00    -0.193 NA
ATOM      3  C   UNL     1       1.795  -3.715  -0.862  0.00  0.00    +0.202 A 
ATOM      4  N   UNL     1       0.506  -3.931  -0.955  0.00  0.00    -0.056 NA
ATOM      5  O   UNL     1      -0.102  -2.662  -1.146  0.00  0.00    -0.339 OA
ENDROOT
BRANCH   3   6
ATOM      6  C   UNL     1       2.834  -4.753  -0.653  0.00  0.00    +0.023 A 
ATOM      7  C   UNL     1       4.177  -4.391  -0.565  0.00  0.00    +0.013 A 
ATOM      8  C   UNL     1       5.140  -5.360  -0.371  0.00  0.00    +0.016 A 
ATOM      9  C   UNL     1       4.773  -6.691  -0.263  0.00  0.00    +0.018 A 
ATOM     10  C   UNL     1       3.441  -7.056  -0.349  0.00  0.00    +0.016 A 
ATOM     11  C   UNL     1       2.470  -6.093  -0.537  0.00  0.00    +0.013 A 
ATOM     12 BR   UNL     1       6.098  -8.014   0.003  0.00  0.00    -0.050 Br
ENDBRANCH   3   6
BRANCH   1  13
ATOM     13  C   UNL     1       0.733  -0.277  -1.339  0.00  0.00    +0.018 C 
BRANCH  13  14
ATOM     14  N   UNL     1      -0.206  -0.014  -2.438  0.00  0.00    +0.385 N 
ATOM     15  C   UNL     1       0.374  -0.489  -3.701  0.00  0.00    -0.099 C 
ATOM     16  H   UNL     1      -1.073  -0.498  -2.263  0.00  0.00    -0.085 HD
ATOM     17  H   UNL     1      -0.381   0.978  -2.500  0.00  0.00    -0.085 HD
ENDBRANCH  13  14
BRANCH  13  19
ATOM     18  C   UNL     1       0.152   1.860  -0.183  0.00  0.00    +0.002 C 
ATOM     19  C   UNL     1       0.190   0.337  -0.047  0.00  0.00    -0.010 C 
ENDBRANCH  13  19
ENDBRANCH   1  13
TORSDOF 4
