REMARK  Name = ZINC21881037
REMARK  7 active torsions:
REMARK  status: ('A' for Active; 'I' for Inactive)
REMARK    1  A    between atoms: C_1  and  O_2
REMARK    2  A    between atoms: O_2  and  C_3
REMARK    3  A    between atoms: C_5  and  O_26
REMARK    4  A    between atoms: C_6  and  N_10
REMARK    5  A    between atoms: N_10  and  S_11
REMARK    6  A    between atoms: S_11  and  C_14
REMARK    7  A    between atoms: O_26  and  C_27
REMARK                            x       y       z     vdW  Elec       q    Type
REMARK                         _______ _______ _______ _____ _____    ______ ____
ROOT
ATOM      1  S   UNL     1      -3.997  -0.978  -0.050  0.00  0.00    +0.073 S 
ATOM      2  O   UNL     1      -5.118  -0.226  -0.492  0.00  0.00    -0.150 OA
ATOM      3  O   UNL     1      -3.587  -2.180  -0.687  0.00  0.00    -0.150 OA
ENDROOT
BRANCH   1   4
ATOM      4  C   UNL     1      -2.612   0.111  -0.089  0.00  0.00    +0.109 A 
ATOM      5  C   UNL     1      -2.803   1.481  -0.117  0.00  0.00    +0.030 A 
ATOM      6  C   UNL     1      -1.713   2.315  -0.153  0.00  0.00    +0.025 A 
ATOM      7  C   UNL     1      -0.401   1.810  -0.163  0.00  0.00    +0.037 A 
ATOM      8  C   UNL     1      -0.217   0.445  -0.126  0.00  0.00    -0.024 A 
ATOM      9  C   UNL     1      -1.333  -0.394  -0.093  0.00  0.00    +0.034 A 
ATOM     10  C   UNL     1       1.107  -0.247  -0.114  0.00  0.00    +0.037 C 
ATOM     11  C   UNL     1       2.196   0.445   0.645  0.00  0.00    +0.014 C 
ATOM     12  C   UNL     1       2.800   1.612  -0.098  0.00  0.00    +0.096 C 
ATOM     13  C   UNL     1       1.886   2.784  -0.128  0.00  0.00    +0.217 C 
ATOM     14  O   UNL     1       2.407   3.877  -0.061  0.00  0.00    -0.275 OA
ATOM     15  N   UNL     1       0.586   2.766  -0.218  0.00  0.00    -0.285 N 
ATOM     16  H   UNL     1       0.321   3.822  -0.376  0.00  0.00    +0.155 HD
ENDBRANCH   1   4
BRANCH   1  17
ATOM     17  N   UNL     1      -4.277  -1.357   1.538  0.00  0.00    -0.211 N 
ATOM     18  H   UNL     1      -4.151  -2.392   1.887  0.00  0.00    +0.174 HD
BRANCH  17  22
ATOM     19  C   UNL     1      -5.463   1.620   4.216  0.00  0.00    +0.125 A 
ATOM     20  C   UNL     1      -6.265   1.310   3.128  0.00  0.00    +0.093 A 
ATOM     21  C   UNL     1      -5.872   0.328   2.235  0.00  0.00    +0.147 A 
ATOM     22  C   UNL     1      -4.676  -0.356   2.438  0.00  0.00    +0.108 A 
ATOM     23  C   UNL     1      -3.876  -0.044   3.528  0.00  0.00    +0.070 A 
ATOM     24  C   UNL     1      -4.269   0.942   4.415  0.00  0.00    +0.067 A 
ATOM     25 CL   UNL     1      -2.382  -0.891   3.779  0.00  0.00    -0.081 Cl
BRANCH  19  27
ATOM     26  C   UNL     1      -4.973   2.855   6.189  0.00  0.00    +0.277 C 
ATOM     27  O   UNL     1      -5.847   2.588   5.090  0.00  0.00    -0.495 OA
ENDBRANCH  19  27
BRANCH  21  28
ATOM     28  O   UNL     1      -6.655   0.027   1.164  0.00  0.00    -0.493 OA
ATOM     29  C   UNL     1      -7.867   0.769   1.019  0.00  0.00    +0.277 C 
ENDBRANCH  21  28
ENDBRANCH  17  22
ENDBRANCH   1  17
TORSDOF 5
