REMARK  Name = ZINC02654169
REMARK  5 active torsions:
REMARK  status: ('A' for Active; 'I' for Inactive)
REMARK    1  A    between atoms: C_1  and  C_2
REMARK    2  A    between atoms: C_3  and  C_19
REMARK    3  A    between atoms: C_10  and  C_12
REMARK    4  A    between atoms: C_19  and  C_20
REMARK    5  A    between atoms: C_19  and  C_21
REMARK                            x       y       z     vdW  Elec       q    Type
REMARK                         _______ _______ _______ _____ _____    ______ ____
ROOT
ATOM      1  C   UNL     1      -0.091   1.143   0.149  0.00  0.00    +0.016 C 
ATOM      2  C   UNL     1      -0.787   1.591  -1.138  0.00  0.00    +0.060 C 
ATOM      3  C   UNL     1      -2.167   0.997  -1.182  0.00  0.00    +0.030 C 
ATOM      4  N   UNL     1      -3.199   1.575  -0.660  0.00  0.00    -0.218 NA
ATOM      5  C   UNL     1      -3.045   2.804  -0.089  0.00  0.00    +0.270 A 
ATOM      6  N   UNL     1      -3.817   3.492   0.709  0.00  0.00    -0.088 NA
ATOM      7  N   UNL     1      -3.259   4.614   1.014  0.00  0.00    -0.021 NA
ATOM      8  N   UNL     1      -2.107   4.723   0.435  0.00  0.00    -0.042 NA
ATOM      9  N   UNL     1      -1.926   3.561  -0.306  0.00  0.00    -0.202 N 
ATOM     10  C   UNL     1      -0.836   3.123  -1.175  0.00  0.00    +0.151 C 
ENDROOT
BRANCH  10  11
ATOM     11  C   UNL     1       0.470   3.686  -0.678  0.00  0.00    -0.022 A 
ATOM     12  C   UNL     1       1.428   4.110  -1.580  0.00  0.00    +0.007 A 
ATOM     13  C   UNL     1       2.626   4.627  -1.125  0.00  0.00    +0.015 A 
ATOM     14  C   UNL     1       2.866   4.721   0.234  0.00  0.00    +0.018 A 
ATOM     15  C   UNL     1       1.907   4.297   1.137  0.00  0.00    +0.015 A 
ATOM     16  C   UNL     1       0.708   3.785   0.680  0.00  0.00    +0.007 A 
ATOM     17 BR   UNL     1       4.505   5.428   0.858  0.00  0.00    -0.050 Br
ENDBRANCH  10  11
BRANCH   3  18
ATOM     18  C   UNL     1      -2.355  -0.332  -1.866  0.00  0.00    +0.028 C 
ATOM     19  C   UNL     1      -3.801  -0.799  -1.683  0.00  0.00    +0.013 C 
ATOM     20  C   UNL     1      -2.052  -0.186  -3.358  0.00  0.00    +0.013 C 
ENDBRANCH   3  18
TORSDOF 2
