REMARK  Name = ZINC57788344
REMARK  4 active torsions:
REMARK  status: ('A' for Active; 'I' for Inactive)
REMARK    1  A    between atoms: C_1  and  C_2
REMARK    2  A    between atoms: C_9  and  N_13
REMARK    3  A    between atoms: C_10  and  C_11
REMARK    4  A    between atoms: C_14  and  C_16
REMARK                            x       y       z     vdW  Elec       q    Type
REMARK                         _______ _______ _______ _____ _____    ______ ____
ROOT
ATOM      1  C   UNL     1      -0.019   1.526   0.010  0.00  0.00    +0.008 C 
ATOM      2  C   UNL     1       0.002  -0.004   0.002  0.00  0.00    -0.009 C 
ATOM      3  C   UNL     1      -1.434  -0.537   0.019  0.00  0.00    +0.008 C 
ATOM      4  C   UNL     1      -1.433  -2.045  -0.237  0.00  0.00    +0.037 C 
ATOM      5  C   UNL     1      -0.464  -2.704   0.734  0.00  0.00    -0.018 A 
ATOM      6  C   UNL     1       0.485  -1.986   1.374  0.00  0.00    -0.004 A 
ATOM      7  S   UNL     1       1.343  -3.168   2.372  0.00  0.00    -0.077 S 
ATOM      8  C   UNL     1       0.492  -4.557   1.967  0.00  0.00    +0.090 A 
ATOM      9  C   UNL     1      -0.459  -4.119   1.060  0.00  0.00    +0.084 A 
ATOM     10  C   UNL     1       0.739  -0.515   1.248  0.00  0.00    +0.046 C 
ENDROOT
BRANCH   8  11
ATOM     11  N   UNL     1       0.695  -5.848   2.432  0.00  0.00    -0.275 N 
ATOM     12  C   UNL     1       1.677  -6.097   3.322  0.00  0.00    +0.252 C 
ATOM     13  O   UNL     1       2.385  -5.190   3.716  0.00  0.00    -0.270 OA
ATOM     14  H   UNL     1       0.131  -6.572   2.118  0.00  0.00    +0.156 HD
BRANCH  12  15
ATOM     15  C   UNL     1       1.893  -7.468   3.816  0.00  0.00    +0.075 A 
ATOM     16  C   UNL     1       2.905  -7.914   4.784  0.00  0.00    +0.054 A 
ATOM     17  C   UNL     1       2.722  -9.236   4.926  0.00  0.00    +0.195 A 
ATOM     18  O   UNL     1       1.705  -9.626   4.143  0.00  0.00    -0.470 OA
ATOM     19  C   UNL     1       1.191  -8.588   3.476  0.00  0.00    +0.207 A 
ENDBRANCH  12  15
ENDBRANCH   8  11
BRANCH   9  20
ATOM     20  C   UNL     1      -1.399  -5.024   0.469  0.00  0.00    +0.102 C 
ATOM     21  N   UNL     1      -2.144  -5.741  -0.000  0.00  0.00    -0.191 NA
ENDBRANCH   9  20
TORSDOF 3
