REMARK  Name = ZINC54849186
REMARK  8 active torsions:
REMARK  status: ('A' for Active; 'I' for Inactive)
REMARK    1  A    between atoms: C_1  and  C_2
REMARK    2  A    between atoms: C_4  and  C_27
REMARK    3  A    between atoms: C_5  and  N_9
REMARK    4  A    between atoms: C_6  and  C_8
REMARK    5  A    between atoms: C_10  and  C_12
REMARK    6  A    between atoms: N_21  and  C_24
REMARK    7  A    between atoms: C_24  and  C_25
REMARK    8  A    between atoms: C_24  and  C_26
REMARK                            x       y       z     vdW  Elec       q    Type
REMARK                         _______ _______ _______ _____ _____    ______ ____
ROOT
ATOM      1  C   UNL     1      -0.518  -6.365   0.728  0.00  0.00    +0.039 A 
ATOM      2  C   UNL     1      -0.780  -6.950  -0.513  0.00  0.00    +0.014 A 
ATOM      3  C   UNL     1      -1.014  -8.300  -0.618  0.00  0.00    +0.016 A 
ATOM      4  C   UNL     1      -0.994  -9.120   0.524  0.00  0.00    +0.065 A 
ATOM      5  C   UNL     1      -0.729  -8.511   1.757  0.00  0.00    +0.122 A 
ATOM      6  C   UNL     1      -0.490  -7.172   1.871  0.00  0.00    +0.042 A 
ATOM      7  S   UNL     1      -0.792  -9.857   2.909  0.00  0.00    +0.078 S 
ATOM      8  O   UNL     1       0.521 -10.058   3.411  0.00  0.00    -0.150 OA
ATOM      9  O   UNL     1      -1.927  -9.659   3.741  0.00  0.00    -0.150 OA
ATOM     10  N   UNL     1      -1.138 -11.120   1.868  0.00  0.00    -0.165 N 
ATOM     11  C   UNL     1      -1.213 -10.570   0.647  0.00  0.00    +0.268 C 
ATOM     12  O   UNL     1      -1.456 -11.251  -0.331  0.00  0.00    -0.268 OA
ENDROOT
BRANCH   1  14
ATOM     13  N   UNL     1      -0.297  -4.141  -0.275  0.00  0.00    -0.281 N 
ATOM     14  C   UNL     1      -0.268  -4.910   0.831  0.00  0.00    +0.248 C 
ATOM     15  O   UNL     1      -0.035  -4.410   1.914  0.00  0.00    -0.270 OA
ATOM     16  H   UNL     1      -0.418  -4.549  -1.147  0.00  0.00    +0.155 HD
BRANCH  13  21
ATOM     17  C   UNL     1       0.289   1.484   0.165  0.00  0.00    +0.044 C 
ATOM     18  C   UNL     1       0.133  -0.011   0.048  0.00  0.00    -0.050 A 
ATOM     19  C   UNL     1       1.125  -0.847   0.526  0.00  0.00    +0.008 A 
ATOM     20  C   UNL     1       0.986  -2.217   0.420  0.00  0.00    -0.029 A 
ATOM     21  C   UNL     1      -0.153  -2.755  -0.166  0.00  0.00    +0.040 A 
ATOM     22  C   UNL     1      -1.147  -1.912  -0.645  0.00  0.00    -0.029 A 
ATOM     23  C   UNL     1      -1.004  -0.543  -0.532  0.00  0.00    +0.008 A 
ATOM     24  C   UNL     1      -2.385  -2.490  -1.282  0.00  0.00    +0.045 C 
ATOM     25  C   UNL     1       2.068  -3.127   0.941  0.00  0.00    +0.045 C 
ENDBRANCH  13  21
ENDBRANCH   1  14
BRANCH  10  26
ATOM     26  C   UNL     1      -1.320 -12.531   2.217  0.00  0.00    +0.095 C 
ATOM     27  C   UNL     1      -2.725 -12.980   1.810  0.00  0.00    +0.030 C 
ATOM     28  C   UNL     1      -0.281 -13.377   1.480  0.00  0.00    +0.030 C 
ENDBRANCH  10  26
TORSDOF 3
