REMARK  Name = ZINC08881685
REMARK  9 active torsions:
REMARK  status: ('A' for Active; 'I' for Inactive)
REMARK    1  A    between atoms: C_1  and  C_2
REMARK    2  A    between atoms: C_2  and  O_3
REMARK    3  A    between atoms: O_3  and  C_4
REMARK    4  A    between atoms: C_12  and  N_16
REMARK    5  A    between atoms: C_13  and  C_14
REMARK    6  A    between atoms: C_17  and  C_19
REMARK    7  A    between atoms: C_22  and  S_25
REMARK    8  A    between atoms: S_25  and  N_28
REMARK    9  A    between atoms: C_31  and  C_34
REMARK                            x       y       z     vdW  Elec       q    Type
REMARK                         _______ _______ _______ _____ _____    ______ ____
ROOT
ATOM      1  N   UNL     1      -0.011   0.966   0.007  0.00  0.00    -0.275 N 
ATOM      2  C   UNL     1      -1.187   1.624   0.017  0.00  0.00    +0.249 C 
ATOM      3  O   UNL     1      -1.204   2.839   0.023  0.00  0.00    -0.270 OA
ATOM      4  H   UNL     1       0.002  -0.004   0.002  0.00  0.00    +0.156 HD
ENDROOT
BRANCH   1  13
ATOM      5  C   UNL     1       6.299   4.813   1.025  0.00  0.00    +0.403 C 
ATOM      6  O   UNL     1       7.429   4.396   1.185  0.00  0.00    -0.226 OA
ATOM      7  N   UNL     1       5.452   4.164   0.201  0.00  0.00    -0.262 N 
ATOM      8  C   UNL     1       5.867   2.949  -0.517  0.00  0.00    +0.116 C 
ATOM      9  C   UNL     1       5.037   1.759  -0.032  0.00  0.00    +0.056 C 
ATOM     10  C   UNL     1       3.564   2.147  -0.019  0.00  0.00    -0.015 A 
ATOM     11  C   UNL     1       3.179   3.443  -0.009  0.00  0.00    +0.013 A 
ATOM     12  S   UNL     1       1.411   3.393   0.007  0.00  0.00    -0.075 S 
ATOM     13  C   UNL     1       1.180   1.675  -0.000  0.00  0.00    +0.090 A 
ATOM     14  C   UNL     1       2.477   1.183  -0.010  0.00  0.00    +0.084 A 
ATOM     15  C   UNL     1       4.074   4.646  -0.015  0.00  0.00    +0.153 C 
BRANCH  14  16
ATOM     16  C   UNL     1       2.735  -0.226  -0.013  0.00  0.00    +0.102 C 
ATOM     17  N   UNL     1       2.940  -1.343  -0.017  0.00  0.00    -0.191 NA
ENDBRANCH  14  16
BRANCH   5  18
ATOM     18  O   UNL     1       5.893   5.923   1.669  0.00  0.00    -0.451 OA
BRANCH  18  20
ATOM     19  C   UNL     1       6.220   7.804   3.181  0.00  0.00    +0.048 C 
ATOM     20  C   UNL     1       6.858   6.569   2.541  0.00  0.00    +0.230 C 
ENDBRANCH  18  20
ENDBRANCH   5  18
ENDBRANCH   1  13
BRANCH   2  21
ATOM     21  C   UNL     1      -2.457   0.868   0.018  0.00  0.00    +0.037 A 
ATOM     22  C   UNL     1      -2.442  -0.528   0.005  0.00  0.00    +0.015 A 
ATOM     23  C   UNL     1      -3.631  -1.228   0.013  0.00  0.00    +0.029 A 
ATOM     24  C   UNL     1      -4.836  -0.550   0.022  0.00  0.00    +0.106 A 
ATOM     25  C   UNL     1      -4.859   0.834   0.030  0.00  0.00    +0.029 A 
ATOM     26  C   UNL     1      -3.677   1.546   0.028  0.00  0.00    +0.015 A 
BRANCH  24  27
ATOM     27  S   UNL     1      -6.350  -1.451   0.023  0.00  0.00    +0.061 S 
ATOM     28  O   UNL     1      -6.059  -2.732   0.566  0.00  0.00    -0.153 OA
ATOM     29  O   UNL     1      -7.334  -0.592   0.584  0.00  0.00    -0.153 OA
BRANCH  27  30
ATOM     30  N   UNL     1      -6.778  -1.693  -1.558  0.00  0.00    -0.177 NA
ATOM     31  C   UNL     1      -7.623  -0.719  -2.262  0.00  0.00    +0.110 C 
ATOM     32  C   UNL     1      -8.825  -1.446  -2.864  0.00  0.00    +0.020 C 
ATOM     33  C   UNL     1      -8.333  -2.600  -3.740  0.00  0.00    -0.012 C 
ATOM     34  C   UNL     1      -7.545  -3.594  -2.882  0.00  0.00    +0.020 C 
ATOM     35  C   UNL     1      -6.325  -2.888  -2.282  0.00  0.00    +0.110 C 
ATOM     36  C   UNL     1      -9.533  -3.310  -4.369  0.00  0.00    +0.007 C 
ENDBRANCH  27  30
ENDBRANCH  24  27
ENDBRANCH   2  21
TORSDOF 7
