REMARK  Name = ZINC00169545
REMARK  2 active torsions:
REMARK  status: ('A' for Active; 'I' for Inactive)
REMARK    1  A    between atoms: C_6  and  N_7
REMARK    2  A    between atoms: N_7  and  C_8
REMARK                            x       y       z     vdW  Elec       q    Type
REMARK                         _______ _______ _______ _____ _____    ______ ____
ROOT
ATOM      1  C   UNL     1       2.390   0.047  -0.006  0.00  0.00    +0.109 A 
ATOM      2  C   UNL     1       1.433  -0.253  -0.935  0.00  0.00    +0.112 A 
ATOM      3  C   UNL     1       0.199   0.414  -0.881  0.00  0.00    +0.256 A 
ATOM      4  O   UNL     1      -0.670   0.163  -1.699  0.00  0.00    -0.268 OA
ATOM      5  N   UNL     1      -0.020   1.333   0.080  0.00  0.00    -0.275 N 
ATOM      6  H   UNL     1      -0.899   1.808   0.120  0.00  0.00    +0.173 HD
ATOM      7  C   UNL     1       0.933   1.615   0.986  0.00  0.00    +0.328 A 
ATOM      8  O   UNL     1       0.715   2.448   1.845  0.00  0.00    -0.247 OA
ATOM      9  N   UNL     1       2.124   0.991   0.957  0.00  0.00    -0.296 N 
ATOM     10  H   UNL     1       2.820   1.215   1.639  0.00  0.00    +0.172 HD
ENDROOT
BRANCH   1  11
ATOM     11  N   UNL     1       3.606  -0.589  -0.035  0.00  0.00    -0.301 N 
ATOM     12  H   UNL     1       3.649  -1.557   0.023  0.00  0.00    +0.154 HD
BRANCH  11  18
ATOM     13  C   UNL     1       4.731   1.545  -0.146  0.00  0.00    +0.024 A 
ATOM     14  C   UNL     1       5.896   2.279  -0.252  0.00  0.00    +0.016 A 
ATOM     15  C   UNL     1       7.113   1.633  -0.371  0.00  0.00    +0.013 A 
ATOM     16  C   UNL     1       7.169   0.251  -0.378  0.00  0.00    +0.016 A 
ATOM     17  C   UNL     1       6.008  -0.488  -0.267  0.00  0.00    +0.024 A 
ATOM     18  C   UNL     1       4.784   0.157  -0.148  0.00  0.00    +0.032 A 
ATOM     19  I   UNL     1       8.877   2.751  -0.539  0.00  0.00    -0.044 I 
ENDBRANCH  11  18
ENDBRANCH   1  11
TORSDOF 2
