REMARK  Name = ZINC39574173
REMARK  9 active torsions:
REMARK  status: ('A' for Active; 'I' for Inactive)
REMARK    1  A    between atoms: C_1  and  C_2
REMARK    2  A    between atoms: C_2  and  C_22
REMARK    3  A    between atoms: N_3  and  N_4
REMARK    4  A    between atoms: C_5  and  C_7
REMARK    5  A    between atoms: C_13  and  C_16
REMARK    6  A    between atoms: C_16  and  C_17
REMARK    7  A    between atoms: C_16  and  C_18
REMARK    8  A    between atoms: C_16  and  C_19
REMARK    9  A    between atoms: C_26  and  O_28
REMARK                            x       y       z     vdW  Elec       q    Type
REMARK                         _______ _______ _______ _____ _____    ______ ____
ROOT
ATOM      1  N   UNL     1       0.024   0.035   2.339  0.00  0.00    -0.205 N 
ATOM      2  C   UNL     1       0.044  -0.645   3.503  0.00  0.00    +0.263 C 
ATOM      3  O   UNL     1       0.060  -1.858   3.496  0.00  0.00    -0.271 OA
ATOM      4  H   UNL     1       0.011   1.005   2.345  0.00  0.00    +0.177 HD
ENDROOT
BRANCH   2   5
ATOM      5  C   UNL     1       0.046   0.101   4.812  0.00  0.00    +0.243 C 
ATOM      6  C   UNL     1      -1.353   0.505   5.200  0.00  0.00    -0.012 C 
ATOM      7  C   UNL     1      -1.584  -0.124   6.357  0.00  0.00    +0.065 C 
ATOM      8  C   UNL     1      -2.888  -0.002   7.114  0.00  0.00    +0.057 C 
ATOM      9  C   UNL     1      -3.955   0.549   6.162  0.00  0.00    +0.010 C 
ATOM     10  C   UNL     1      -3.425   1.806   5.465  0.00  0.00    -0.001 C 
ATOM     11  C   UNL     1      -2.313   1.408   4.484  0.00  0.00    +0.039 C 
ATOM     12  N   UNL     1      -0.502  -0.851   6.712  0.00  0.00    -0.158 NA
ATOM     13  N   UNL     1       0.449  -0.786   5.920  0.00  0.00    -0.170 NA
BRANCH  10  14
ATOM     14  C   UNL     1      -4.564   2.485   4.701  0.00  0.00    -0.035 C 
ATOM     15  C   UNL     1      -5.673   2.875   5.680  0.00  0.00    +0.011 C 
ATOM     16  C   UNL     1      -4.033   3.741   4.005  0.00  0.00    +0.011 C 
ATOM     17  C   UNL     1      -5.123   1.520   3.654  0.00  0.00    +0.011 C 
ENDBRANCH  10  14
ENDBRANCH   2   5
BRANCH   1  20
ATOM     18  C   UNL     1      -0.018   1.503   0.010  0.00  0.00    +0.068 C 
ATOM     19  C   UNL     1       0.002  -0.004   0.002  0.00  0.00    +0.063 C 
ATOM     20  N   UNL     1       0.022  -0.659   1.122  0.00  0.00    -0.184 NA
BRANCH  19  21
ATOM     21  C   UNL     1      -0.000  -0.735  -1.279  0.00  0.00    +0.001 A 
ATOM     22  C   UNL     1      -0.015  -0.032  -2.487  0.00  0.00    +0.010 A 
ATOM     23  C   UNL     1      -0.017  -0.719  -3.683  0.00  0.00    +0.004 A 
ATOM     24  C   UNL     1      -0.003  -2.102  -3.692  0.00  0.00    +0.045 A 
ATOM     25  C   UNL     1       0.011  -2.809  -2.497  0.00  0.00    +0.117 A 
ATOM     26  C   UNL     1       0.019  -2.130  -1.290  0.00  0.00    +0.055 A 
BRANCH  25  27
ATOM     27  O   UNL     1       0.024  -4.168  -2.512  0.00  0.00    -0.507 OA
ATOM     28  H   UNL     1       0.911  -4.553  -2.522  0.00  0.00    +0.292 HD
ENDBRANCH  25  27
ENDBRANCH  19  21
ENDBRANCH   1  20
TORSDOF 5
