REMARK  Name = ZINC20900185
REMARK  7 active torsions:
REMARK  status: ('A' for Active; 'I' for Inactive)
REMARK    1  A    between atoms: C_1  and  C_2
REMARK    2  A    between atoms: C_2  and  C_3
REMARK    3  A    between atoms: C_3  and  C_4
REMARK    4  A    between atoms: C_9  and  C_25
REMARK    5  A    between atoms: N_16  and  C_17
REMARK    6  A    between atoms: C_19  and  C_24
REMARK    7  A    between atoms: C_22  and  C_23
REMARK                            x       y       z     vdW  Elec       q    Type
REMARK                         _______ _______ _______ _____ _____    ______ ____
ROOT
ATOM      1  C   UNL     1      -1.260  -0.766   0.171  0.00  0.00    +0.124 C 
ATOM      2  C   UNL     1      -0.982  -1.886   1.141  0.00  0.00    +0.040 A 
ATOM      3  C   UNL     1      -1.872  -2.708   1.720  0.00  0.00    +0.025 A 
ATOM      4  C   UNL     1      -1.148  -3.597   2.541  0.00  0.00    +0.023 A 
ATOM      5  C   UNL     1       0.159  -3.279   2.429  0.00  0.00    +0.016 A 
ATOM      6  N   UNL     1       0.270  -2.226   1.574  0.00  0.00    -0.345 N 
ATOM      7  C   UNL     1       1.506  -1.547   1.168  0.00  0.00    +0.141 C 
ATOM      8  C   UNL     1       1.248  -0.759  -0.121  0.00  0.00    +0.131 C 
ATOM      9  N   UNL     1      -0.007  -0.004   0.014  0.00  0.00    -0.275 N 
ATOM     10  C   UNL     1      -0.011   1.343   0.001  0.00  0.00    +0.307 C 
ATOM     11  O   UNL     1       1.039   1.954  -0.031  0.00  0.00    -0.252 OA
ATOM     12  N   UNL     1      -1.180   2.014   0.029  0.00  0.00    -0.269 N 
ATOM     13  C   UNL     1       1.300  -3.971   3.130  0.00  0.00    +0.063 C 
ATOM     14  H   UNL     1      -2.128   1.464   0.128  0.00  0.00    +0.156 HD
ENDROOT
BRANCH  12  15
ATOM     15  C   UNL     1      -1.189   3.410  -0.068  0.00  0.00    +0.038 A 
ATOM     16  C   UNL     1      -0.076   4.141   0.327  0.00  0.00    +0.027 A 
ATOM     17  C   UNL     1      -0.088   5.519   0.230  0.00  0.00    -0.049 A 
ATOM     18  C   UNL     1      -1.205   6.170  -0.262  0.00  0.00    +0.004 A 
ATOM     19  C   UNL     1      -2.314   5.444  -0.656  0.00  0.00    +0.005 A 
ATOM     20  C   UNL     1      -2.307   4.066  -0.566  0.00  0.00    -0.029 A 
ATOM     21  C   UNL     1      -3.513   3.275  -1.002  0.00  0.00    +0.045 C 
ATOM     22  C   UNL     1       1.119   6.314   0.658  0.00  0.00    +0.044 C 
ENDBRANCH  12  15
BRANCH   1  23
ATOM     23  C   UNL     1      -1.692  -1.345  -1.179  0.00  0.00    +0.028 C 
BRANCH  23  25
ATOM     24  C   UNL     1      -2.467  -0.781  -3.486  0.00  0.00    +0.004 C 
ATOM     25  C   UNL     1      -2.036  -0.203  -2.137  0.00  0.00    -0.001 C 
ENDBRANCH  23  25
ENDBRANCH   1  23
TORSDOF 3
