REMARK  Name = ZINC23231443
REMARK  5 active torsions:
REMARK  status: ('A' for Active; 'I' for Inactive)
REMARK    1  A    between atoms: C_1  and  N_2
REMARK    2  A    between atoms: C_6  and  N_9
REMARK    3  A    between atoms: C_12  and  C_15
REMARK    4  A    between atoms: C_15  and  N_16
REMARK    5  A    between atoms: C_17  and  C_19
REMARK                            x       y       z     vdW  Elec       q    Type
REMARK                         _______ _______ _______ _____ _____    ______ ____
ROOT
ATOM      1  C   UNL     1       3.634  -2.508  -5.447  0.00  0.00    +0.109 C 
ENDROOT
BRANCH   1   5
ATOM      2  N   UNL     1       5.749  -3.186  -8.429  0.00  0.00    -0.328 N 
ATOM      3  C   UNL     1       5.343  -1.782  -8.654  0.00  0.00    +0.105 C 
ATOM      4  C   UNL     1       4.785  -1.253  -7.320  0.00  0.00    +0.025 C 
ATOM      5  C   UNL     1       4.873  -2.448  -6.343  0.00  0.00    +0.025 C 
ATOM      6  C   UNL     1       4.923  -3.672  -7.292  0.00  0.00    +0.110 C 
BRANCH   2  12
ATOM      7  C   UNL     1       4.926  -6.243 -13.032  0.00  0.00    +0.176 C 
ATOM      8  N   UNL     1       5.129  -5.453 -11.815  0.00  0.00    -0.233 N 
ATOM      9  C   UNL     1       4.487  -5.796 -10.681  0.00  0.00    +0.269 A 
ATOM     10  O   UNL     1       3.738  -6.761 -10.666  0.00  0.00    -0.266 OA
ATOM     11  C   UNL     1       4.683  -5.039  -9.518  0.00  0.00    +0.096 A 
ATOM     12  C   UNL     1       5.536  -3.951  -9.562  0.00  0.00    +0.055 A 
ATOM     13  C   UNL     1       6.182  -3.626 -10.774  0.00  0.00    +0.156 A 
ATOM     14  N   UNL     1       5.987  -4.349 -11.840  0.00  0.00    -0.175 NA
ENDBRANCH   2  12
ENDBRANCH   1   5
BRANCH   1  15
ATOM     15  N   UNL     1       3.646  -1.372  -4.522  0.00  0.00    -0.310 N 
ATOM     16  C   UNL     1       2.646  -1.218  -3.632  0.00  0.00    +0.262 C 
ATOM     17  O   UNL     1       1.734  -2.021  -3.597  0.00  0.00    -0.269 OA
ATOM     18  H   UNL     1       4.471  -0.645  -4.554  0.00  0.00    +0.149 HD
BRANCH  16  19
ATOM     19  C   UNL     1       2.658  -0.077  -2.702  0.00  0.00    +0.124 A 
ATOM     20  C   UNL     1       1.721   0.218  -1.745  0.00  0.00    +0.005 A 
ATOM     21  C   UNL     1       2.166   1.391  -1.121  0.00  0.00    +0.067 A 
ATOM     22  N   UNL     1       3.285   1.739  -1.686  0.00  0.00    -0.178 NA
ATOM     23  N   UNL     1       3.607   0.907  -2.616  0.00  0.00    -0.272 N 
ATOM     24  H   UNL     1       4.476   0.894  -3.289  0.00  0.00    +0.189 HD
ATOM     25  C   UNL     1       1.417   2.067  -0.000  0.00  0.00    +0.057 C 
ATOM     26  C   UNL     1      -0.019   1.526   0.010  0.00  0.00    +0.007 C 
ATOM     27  C   UNL     1       0.002  -0.004   0.002  0.00  0.00    +0.005 C 
ATOM     28  C   UNL     1       0.457  -0.508  -1.375  0.00  0.00    +0.039 C 
ENDBRANCH  16  19
ENDBRANCH   1  15
TORSDOF 4
