REMARK  Name = ZINC67377449
REMARK  5 active torsions:
REMARK  status: ('A' for Active; 'I' for Inactive)
REMARK    1  A    between atoms: C_3  and  C_8
REMARK    2  A    between atoms: C_8  and  C_9
REMARK    3  A    between atoms: C_11  and  C_14
REMARK    4  A    between atoms: C_14  and  N_15
REMARK    5  A    between atoms: C_19  and  C_21
REMARK                            x       y       z     vdW  Elec       q    Type
REMARK                         _______ _______ _______ _____ _____    ______ ____
ROOT
ATOM      1  C   UNL     1       4.272   2.270   1.517  0.00  0.00    +0.176 A 
ATOM      2  N   UNL     1       3.951   3.351   2.236  0.00  0.00    -0.197 NA
ATOM      3  C   UNL     1       4.452   3.256   3.437  0.00  0.00    +0.211 A 
ATOM      4  O   UNL     1       5.118   2.097   3.522  0.00  0.00    -0.340 OA
ATOM      5  N   UNL     1       4.981   1.466   2.257  0.00  0.00    -0.061 NA
ENDROOT
BRANCH   1   6
ATOM      6  C   UNL     1       3.873   2.019   0.086  0.00  0.00    +0.114 C 
BRANCH   6   9
ATOM      7  C   UNL     1       0.159   1.348  -0.018  0.00  0.00    +0.001 A 
ATOM      8  C   UNL     1       1.372   2.012   0.013  0.00  0.00    +0.004 A 
ATOM      9  C   UNL     1       2.552   1.295   0.052  0.00  0.00    -0.039 A 
ATOM     10  C   UNL     1       2.522  -0.087   0.059  0.00  0.00    +0.019 A 
ATOM     11  C   UNL     1       1.310  -0.752   0.028  0.00  0.00    +0.018 A 
ATOM     12  C   UNL     1       0.128  -0.034  -0.011  0.00  0.00    +0.015 A 
ATOM     13 BR   UNL     1       1.267  -2.643   0.038  0.00  0.00    -0.050 Br
ENDBRANCH   6   9
ENDBRANCH   1   6
BRANCH   3  14
ATOM     14  C   UNL     1       4.308   4.274   4.538  0.00  0.00    +0.023 C 
BRANCH  14  15
ATOM     15  N   UNL     1       3.107   3.974   5.328  0.00  0.00    +0.391 N 
ATOM     16  C   UNL     1       1.901   4.185   4.499  0.00  0.00    -0.077 C 
ATOM     17  C   UNL     1       0.844   4.758   5.476  0.00  0.00    -0.020 C 
ATOM     18  C   UNL     1       1.716   5.664   6.384  0.00  0.00    -0.011 C 
ATOM     19  C   UNL     1       3.040   4.878   6.491  0.00  0.00    -0.020 C 
ATOM     20  H   UNL     1       3.137   3.016   5.643  0.00  0.00    -0.080 HD
BRANCH  19  21
ATOM     21  C   UNL     1       4.206   5.831   6.468  0.00  0.00    +0.002 A 
ATOM     22  C   UNL     1       5.205   5.881   7.373  0.00  0.00    +0.021 A 
ATOM     23  C   UNL     1       6.081   6.911   6.977  0.00  0.00    +0.019 A 
ATOM     24  C   UNL     1       5.585   7.451   5.845  0.00  0.00    +0.082 A 
ATOM     25  N   UNL     1       4.437   6.788   5.524  0.00  0.00    -0.366 N 
ATOM     26  H   UNL     1       3.877   6.970   4.754  0.00  0.00    +0.165 HD
ENDBRANCH  19  21
ENDBRANCH  14  15
ENDBRANCH   3  14
TORSDOF 5
