REMARK  Name = ZINC47052745
REMARK  5 active torsions:
REMARK  status: ('A' for Active; 'I' for Inactive)
REMARK    1  A    between atoms: C_1  and  C_2
REMARK    2  A    between atoms: N_11  and  C_12
REMARK    3  A    between atoms: C_12  and  C_14
REMARK    4  A    between atoms: C_12  and  C_15
REMARK    5  A    between atoms: C_18  and  C_21
REMARK                            x       y       z     vdW  Elec       q    Type
REMARK                         _______ _______ _______ _____ _____    ______ ____
ROOT
ATOM      1  C   UNL     1      -0.017   1.526   0.009  0.00  0.00    +0.028 C 
ATOM      2  C   UNL     1       0.001  -0.004   0.003  0.00  0.00    +0.074 C 
ATOM      3  C   UNL     1      -1.429  -0.535   0.148  0.00  0.00    +0.022 C 
ATOM      4  C   UNL     1      -1.392  -2.059   0.281  0.00  0.00    +0.003 C 
ATOM      5  C   UNL     1      -0.604  -2.445   1.536  0.00  0.00    +0.019 C 
ATOM      6  C   UNL     1       0.835  -1.935   1.406  0.00  0.00    +0.109 C 
ATOM      7  N   UNL     1       0.806  -0.492   1.131  0.00  0.00    -0.283 N 
ATOM      8  C   UNL     1       1.502   0.368   1.901  0.00  0.00    +0.303 C 
ATOM      9  O   UNL     1       1.395   1.567   1.723  0.00  0.00    -0.253 OA
ATOM     10  N   UNL     1       2.316  -0.099   2.868  0.00  0.00    -0.293 N 
ATOM     11  H   UNL     1       2.458  -1.054   2.962  0.00  0.00    +0.151 HD
ENDROOT
BRANCH  10  12
ATOM     12  C   UNL     1       2.985   0.835   3.777  0.00  0.00    +0.102 C 
ATOM     13  C   UNL     1       4.279   1.335   3.133  0.00  0.00    +0.033 C 
BRANCH  12  14
ATOM     14  C   UNL     1       3.306   0.132   5.071  0.00  0.00    -0.027 A 
ATOM     15  C   UNL     1       3.767  -1.172   5.051  0.00  0.00    +0.007 A 
ATOM     16  C   UNL     1       4.063  -1.821   6.232  0.00  0.00    +0.019 A 
ATOM     17  C   UNL     1       3.897  -1.158   7.449  0.00  0.00    +0.052 A 
ATOM     18  C   UNL     1       3.432   0.159   7.463  0.00  0.00    +0.019 A 
ATOM     19  C   UNL     1       3.144   0.797   6.274  0.00  0.00    +0.007 A 
BRANCH  17  20
ATOM     20  C   UNL     1       4.202  -1.826   8.679  0.00  0.00    +0.099 C 
ATOM     21  N   UNL     1       4.444  -2.355   9.654  0.00  0.00    -0.191 NA
ENDBRANCH  17  20
ENDBRANCH  12  14
ENDBRANCH  10  12
TORSDOF 3
