REMARK  Name = ZINC12324511
REMARK  6 active torsions:
REMARK  status: ('A' for Active; 'I' for Inactive)
REMARK    1  A    between atoms: C_1  and  N_2
REMARK    2  A    between atoms: C_3  and  C_15
REMARK    3  A    between atoms: C_7  and  O_13
REMARK    4  A    between atoms: C_10  and  O_11
REMARK    5  A    between atoms: O_11  and  C_12
REMARK    6  A    between atoms: O_13  and  C_14
REMARK                            x       y       z     vdW  Elec       q    Type
REMARK                         _______ _______ _______ _____ _____    ______ ____
ROOT
ATOM      1  C   UNL     1      -0.531   3.958  -1.847  0.00  0.00    +0.263 C 
ATOM      2  O   UNL     1      -1.580   3.385  -1.621  0.00  0.00    -0.268 OA
ATOM      3  N   UNL     1      -0.128   4.966  -1.048  0.00  0.00    -0.292 N 
ATOM      4  C   UNL     1       1.193   5.588  -1.223  0.00  0.00    +0.114 C 
ATOM      5  C   UNL     1       1.007   7.053  -1.634  0.00  0.00    +0.072 C 
ATOM      6  C   UNL     1      -0.043   7.684  -0.751  0.00  0.00    +0.023 A 
ATOM      7  C   UNL     1      -0.934   6.983  -0.015  0.00  0.00    -0.002 A 
ATOM      8  C   UNL     1      -1.763   7.942   0.683  0.00  0.00    +0.007 A 
ATOM      9  C   UNL     1      -2.837   7.802   1.568  0.00  0.00    +0.048 A 
ATOM     10  C   UNL     1      -3.404   8.969   2.051  0.00  0.00    +0.124 A 
ATOM     11  C   UNL     1      -2.935  10.220   1.678  0.00  0.00    +0.040 A 
ATOM     12  C   UNL     1      -1.874  10.380   0.804  0.00  0.00    +0.029 A 
ATOM     13  C   UNL     1      -1.285   9.222   0.302  0.00  0.00    +0.047 A 
ATOM     14  N   UNL     1      -0.244   9.026  -0.561  0.00  0.00    -0.358 N 
ATOM     15  H   UNL     1       0.274   9.732  -0.980  0.00  0.00    +0.166 HD
ATOM     16  F   UNL     1      -4.444   8.887   2.909  0.00  0.00    -0.205 F 
ATOM     17  C   UNL     1      -0.999   5.475   0.027  0.00  0.00    +0.145 C 
ENDROOT
BRANCH   1  20
ATOM     18  C   UNL     1       0.145   1.050  -2.635  0.00  0.00    +0.149 C 
ATOM     19  N   UNL     1       0.597   2.250  -3.342  0.00  0.00    -0.336 N 
ATOM     20  C   UNL     1       0.296   3.553  -2.992  0.00  0.00    +0.106 A 
ATOM     21  C   UNL     1       0.893   4.400  -3.872  0.00  0.00    +0.044 A 
ATOM     22  C   UNL     1       1.593   3.615  -4.819  0.00  0.00    +0.046 A 
ATOM     23  C   UNL     1       1.390   2.268  -4.468  0.00  0.00    +0.095 A 
ATOM     24  C   UNL     1       1.973   1.261  -5.238  0.00  0.00    +0.144 A 
ATOM     25  C   UNL     1       2.742   1.590  -6.337  0.00  0.00    +0.051 A 
ATOM     26  C   UNL     1       2.945   2.918  -6.686  0.00  0.00    +0.050 A 
ATOM     27  C   UNL     1       2.380   3.932  -5.940  0.00  0.00    +0.129 A 
BRANCH  27  28
ATOM     28  O   UNL     1       2.581   5.229  -6.288  0.00  0.00    -0.494 OA
ATOM     29  C   UNL     1       3.392   5.474  -7.439  0.00  0.00    +0.277 C 
ENDBRANCH  27  28
BRANCH  24  30
ATOM     30  O   UNL     1       1.782  -0.045  -4.908  0.00  0.00    -0.493 OA
ATOM     31  C   UNL     1       2.408  -1.023  -5.741  0.00  0.00    +0.277 C 
ENDBRANCH  24  30
ENDBRANCH   1  20
TORSDOF 3
