REMARK  Name = ZINC01725415
REMARK  4 active torsions:
REMARK  status: ('A' for Active; 'I' for Inactive)
REMARK    1  A    between atoms: C_1  and  C_2
REMARK    2  A    between atoms: C_7  and  N_8
REMARK    3  A    between atoms: C_9  and  C_15
REMARK    4  A    between atoms: C_9  and  C_17
REMARK                            x       y       z     vdW  Elec       q    Type
REMARK                         _______ _______ _______ _____ _____    ______ ____
ROOT
ATOM      1  N   UNL     1      -2.921   1.410   1.027  0.00  0.00    -0.201 N 
ATOM      2  C   UNL     1      -4.229   1.269   0.363  0.00  0.00    +0.202 C 
ATOM      3  C   UNL     1      -3.962   0.949  -1.129  0.00  0.00    +0.251 C 
ATOM      4  S   UNL     1      -2.130   0.796  -1.132  0.00  0.00    +0.106 S 
ATOM      5  O   UNL     1      -1.721  -0.405  -1.772  0.00  0.00    -0.145 OA
ATOM      6  O   UNL     1      -1.516   2.042  -1.433  0.00  0.00    -0.145 OA
ATOM      7  O   UNL     1      -1.896   0.566   0.384  0.00  0.00    -0.113 OA
ENDROOT
BRANCH   1  14
ATOM      8  C   UNL     1      -0.603   0.452   2.368  0.00  0.00    +0.046 C 
ATOM      9  C   UNL     1      -1.912   0.656   3.086  0.00  0.00    -0.025 A 
ATOM     10  C   UNL     1      -2.012   0.381   4.436  0.00  0.00    +0.005 A 
ATOM     11  C   UNL     1      -3.213   0.568   5.094  0.00  0.00    +0.000 A 
ATOM     12  C   UNL     1      -4.318   1.032   4.405  0.00  0.00    +0.002 A 
ATOM     13  C   UNL     1      -4.226   1.308   3.055  0.00  0.00    +0.028 A 
ATOM     14  C   UNL     1      -3.020   1.126   2.391  0.00  0.00    +0.072 A 
ENDBRANCH   1  14
BRANCH   2  15
ATOM     15  C   UNL     1      -5.004   2.556   0.479  0.00  0.00    -0.004 A 
ATOM     16  C   UNL     1      -6.360   2.574   0.212  0.00  0.00    +0.007 A 
ATOM     17  C   UNL     1      -7.071   3.754   0.324  0.00  0.00    +0.000 A 
ATOM     18  C   UNL     1      -6.425   4.918   0.693  0.00  0.00    +0.000 A 
ATOM     19  C   UNL     1      -5.067   4.902   0.955  0.00  0.00    +0.000 A 
ATOM     20  C   UNL     1      -4.357   3.721   0.848  0.00  0.00    +0.007 A 
ENDBRANCH   2  15
BRANCH   2  21
ATOM     21  C   UNL     1      -4.988   0.169   0.981  0.00  0.00    +0.100 C 
ATOM     22  N   UNL     1      -5.574  -0.679   1.458  0.00  0.00    -0.194 NA
ENDBRANCH   2  21
TORSDOF 3
