REMARK  Name = ZINC14478035
REMARK  4 active torsions:
REMARK  status: ('A' for Active; 'I' for Inactive)
REMARK    1  A    between atoms: C_4  and  N_33
REMARK    2  A    between atoms: C_5  and  C_7
REMARK    3  A    between atoms: C_18  and  S_23
REMARK    4  A    between atoms: S_23  and  N_26
REMARK                            x       y       z     vdW  Elec       q    Type
REMARK                         _______ _______ _______ _____ _____    ______ ____
ROOT
ATOM      1  C   UNL     1      -2.563   3.850   0.033  0.00  0.00    +0.107 C 
ATOM      2  C   UNL     1      -3.029   4.085  -1.407  0.00  0.00    +0.029 C 
ATOM      3  C   UNL     1      -2.146   5.221  -2.000  0.00  0.00    +0.033 C 
ATOM      4  C   UNL     1      -2.808   6.485  -1.487  0.00  0.00    -0.030 C 
ATOM      5  C   UNL     1      -4.056   6.250  -1.161  0.00  0.00    -0.023 C 
ATOM      6  C   UNL     1      -4.395   4.799  -1.406  0.00  0.00    +0.049 C 
ATOM      7  C   UNL     1      -5.329   4.271  -0.363  0.00  0.00    -0.018 A 
ATOM      8  C   UNL     1      -6.666   4.642  -0.417  0.00  0.00    +0.034 A 
ATOM      9  C   UNL     1      -7.561   4.175   0.523  0.00  0.00    +0.106 A 
ATOM     10  C   UNL     1      -7.137   3.330   1.532  0.00  0.00    +0.030 A 
ATOM     11  C   UNL     1      -5.809   2.955   1.596  0.00  0.00    +0.025 A 
ATOM     12  C   UNL     1      -4.907   3.425   0.651  0.00  0.00    +0.031 A 
ATOM     13  N   UNL     1      -3.565   3.038   0.730  0.00  0.00    -0.336 N 
ATOM     14  H   UNL     1      -3.304   2.251   1.234  0.00  0.00    +0.147 HD
ENDROOT
BRANCH   1  19
ATOM     15  C   UNL     1       0.422   1.863  -1.147  0.00  0.00    +0.000 A 
ATOM     16  C   UNL     1       1.180   1.792   0.007  0.00  0.00    +0.002 A 
ATOM     17  C   UNL     1       0.727   2.386   1.169  0.00  0.00    +0.033 A 
ATOM     18  C   UNL     1      -0.485   3.053   1.177  0.00  0.00    +0.131 A 
ATOM     19  C   UNL     1      -1.242   3.124   0.024  0.00  0.00    +0.003 A 
ATOM     20  C   UNL     1      -0.786   2.534  -1.140  0.00  0.00    +0.008 A 
BRANCH  18  21
ATOM     21  N   UNL     1      -0.970   3.690   2.422  0.00  0.00    +0.057 N 
ATOM     22  O   UNL     1      -0.352   3.546   3.462  0.00  0.00    -0.126 OA
ATOM     23  O   UNL     1      -1.988   4.359   2.407  0.00  0.00    -0.126 OA
ENDBRANCH  18  21
ENDBRANCH   1  19
BRANCH   9  24
ATOM     24  S   UNL     1      -9.254   4.657   0.438  0.00  0.00    +0.061 S 
ATOM     25  O   UNL     1      -9.507   5.015  -0.914  0.00  0.00    -0.153 OA
ATOM     26  O   UNL     1      -9.998   3.651   1.111  0.00  0.00    -0.153 OA
BRANCH  24  27
ATOM     27  N   UNL     1      -9.414   6.042   1.331  0.00  0.00    -0.177 NA
ATOM     28  C   UNL     1      -9.737   5.927   2.736  0.00  0.00    +0.109 C 
ATOM     29  C   UNL     1     -11.269   5.908   2.923  0.00  0.00    +0.017 C 
ATOM     30  C   UNL     1     -11.833   7.239   2.651  0.00  0.00    +0.001 C 
ATOM     31  C   UNL     1     -11.632   7.727   1.220  0.00  0.00    +0.001 C 
ATOM     32  C   UNL     1     -10.277   8.380   1.100  0.00  0.00    +0.017 C 
ATOM     33  C   UNL     1      -9.227   7.343   0.659  0.00  0.00    +0.109 C 
ENDBRANCH  24  27
ENDBRANCH   9  24
TORSDOF 4
