REMARK  Name = ZINC34928328
REMARK  8 active torsions:
REMARK  status: ('A' for Active; 'I' for Inactive)
REMARK    1  A    between atoms: C_1  and  C_2
REMARK    2  A    between atoms: C_2  and  C_3
REMARK    3  A    between atoms: C_2  and  N_4
REMARK    4  A    between atoms: N_4  and  C_24
REMARK    5  A    between atoms: C_11  and  N_16
REMARK    6  A    between atoms: C_17  and  C_19
REMARK    7  A    between atoms: C_24  and  C_25
REMARK    8  A    between atoms: C_24  and  C_26
REMARK                            x       y       z     vdW  Elec       q    Type
REMARK                         _______ _______ _______ _____ _____    ______ ____
ROOT
ATOM      1  N   UNL     1      -1.139   0.032  -0.284  0.00  0.00    -0.306 N 
ATOM      2  C   UNL     1      -1.315  -0.710  -1.421  0.00  0.00    +0.142 A 
ATOM      3  N   UNL     1      -2.482  -1.253  -1.733  0.00  0.00    -0.305 N 
ATOM      4  C   UNL     1      -2.774  -1.981  -2.788  0.00  0.00    +0.259 A 
ATOM      5  O   UNL     1      -3.928  -2.372  -2.857  0.00  0.00    -0.267 OA
ATOM      6  C   UNL     1      -1.901  -2.385  -3.890  0.00  0.00    +0.055 A 
ATOM      7  C   UNL     1      -2.361  -3.168  -4.951  0.00  0.00    +0.037 A 
ATOM      8  C   UNL     1      -1.492  -3.521  -5.967  0.00  0.00    +0.034 A 
ATOM      9  C   UNL     1      -0.161  -3.108  -5.950  0.00  0.00    +0.024 A 
ATOM     10  C   UNL     1       0.312  -2.334  -4.907  0.00  0.00    +0.018 A 
ATOM     11  C   UNL     1      -0.549  -1.980  -3.894  0.00  0.00    +0.028 A 
ATOM     12  S   UNL     1      -0.062  -0.984  -2.510  0.00  0.00    -0.055 S 
ATOM     13  H   UNL     1      -3.208  -1.094  -1.109  0.00  0.00    +0.171 HD
ENDROOT
BRANCH   8  14
ATOM     14  N   UNL     1      -1.956  -4.305  -7.030  0.00  0.00    -0.281 N 
ATOM     15  C   UNL     1      -1.469  -4.113  -8.272  0.00  0.00    +0.255 C 
ATOM     16  O   UNL     1      -0.699  -3.196  -8.489  0.00  0.00    -0.269 OA
ATOM     17  H   UNL     1      -2.629  -4.986  -6.872  0.00  0.00    +0.155 HD
BRANCH  15  18
ATOM     18  C   UNL     1      -1.866  -5.010  -9.361  0.00  0.00    +0.074 A 
ATOM     19  C   UNL     1      -1.481  -4.992 -10.693  0.00  0.00    +0.021 A 
ATOM     20  C   UNL     1      -2.026  -5.973 -11.486  0.00  0.00    +0.008 A 
ATOM     21  C   UNL     1      -2.880  -6.869 -10.932  0.00  0.00    +0.046 A 
ATOM     22  S   UNL     1      -2.964  -6.414  -9.317  0.00  0.00    -0.092 S 
ENDBRANCH  15  18
ENDBRANCH   8  14
BRANCH   1  24
ATOM     23  C   UNL     1       0.244   2.000   0.158  0.00  0.00    +0.028 C 
ATOM     24  C   UNL     1       0.203   0.471   0.104  0.00  0.00    +0.069 C 
ATOM     25  C   UNL     1       0.547  -0.098   1.482  0.00  0.00    +0.028 C 
ENDBRANCH   1  24
BRANCH   1  26
ATOM     26  C   UNL     1      -2.294   0.388   0.543  0.00  0.00    +0.069 C 
ATOM     27  C   UNL     1      -3.348   1.082  -0.322  0.00  0.00    +0.028 C 
ATOM     28  C   UNL     1      -2.892  -0.880   1.157  0.00  0.00    +0.028 C 
ENDBRANCH   1  26
TORSDOF 4
