REMARK  Name = ZINC51732908
REMARK  3 active torsions:
REMARK  status: ('A' for Active; 'I' for Inactive)
REMARK    1  A    between atoms: C_1  and  C_2
REMARK    2  A    between atoms: C_7  and  C_10
REMARK    3  A    between atoms: C_11  and  C_13
REMARK                            x       y       z     vdW  Elec       q    Type
REMARK                         _______ _______ _______ _____ _____    ______ ____
ROOT
ATOM      1  C   UNL     1      -2.600  -3.789   1.963  0.00  0.00    +0.276 C 
ATOM      2  C   UNL     1      -3.466  -2.538   2.160  0.00  0.00    +0.155 C 
ATOM      3  N   UNL     1      -4.875  -2.966   2.152  0.00  0.00    -0.337 N 
ATOM      4  C   UNL     1      -5.205  -4.141   2.845  0.00  0.00    +0.070 A 
ATOM      5  C   UNL     1      -6.531  -4.440   3.116  0.00  0.00    +0.026 A 
ATOM      6  C   UNL     1      -6.850  -5.601   3.796  0.00  0.00    +0.002 A 
ATOM      7  C   UNL     1      -5.849  -6.462   4.206  0.00  0.00    +0.004 A 
ATOM      8  C   UNL     1      -4.524  -6.167   3.940  0.00  0.00    +0.047 A 
ATOM      9  C   UNL     1      -4.194  -5.005   3.260  0.00  0.00    +0.142 A 
ATOM     10  O   UNL     1      -2.888  -4.722   3.007  0.00  0.00    -0.476 OA
ATOM     11  H   UNL     1      -5.553  -2.454   1.683  0.00  0.00    +0.146 HD
ENDROOT
BRANCH   1  20
ATOM     12  C   UNL     1       0.148   1.219  -0.560  0.00  0.00    +0.007 C 
ATOM     13  C   UNL     1       0.099  -0.297  -0.362  0.00  0.00    -0.011 C 
ATOM     14  C   UNL     1      -1.360  -0.756  -0.305  0.00  0.00    +0.022 C 
ATOM     15  C   UNL     1      -1.406  -2.279  -0.141  0.00  0.00    +0.108 C 
ATOM     16  N   UNL     1      -0.609  -2.652   1.036  0.00  0.00    -0.296 N 
ATOM     17  C   UNL     1       0.782  -2.185   1.124  0.00  0.00    +0.073 C 
ATOM     18  C   UNL     1       0.802  -0.663   0.946  0.00  0.00    +0.025 C 
ATOM     19  C   UNL     1       1.360  -2.552   2.492  0.00  0.00    +0.028 C 
ATOM     20  C   UNL     1      -1.143  -3.408   2.015  0.00  0.00    +0.258 C 
ATOM     21  O   UNL     1      -0.450  -3.782   2.938  0.00  0.00    -0.271 OA
ENDBRANCH   1  20
TORSDOF 1
