REMARK  Name = ZINC35445162
REMARK  9 active torsions:
REMARK  status: ('A' for Active; 'I' for Inactive)
REMARK    1  A    between atoms: C_1  and  C_2
REMARK    2  A    between atoms: C_7  and  C_22
REMARK    3  A    between atoms: C_9  and  C_15
REMARK    4  A    between atoms: C_10  and  C_14
REMARK    5  A    between atoms: C_15  and  O_17
REMARK    6  A    between atoms: O_17  and  C_18
REMARK    7  A    between atoms: C_18  and  C_19
REMARK    8  A    between atoms: C_19  and  C_20
REMARK    9  A    between atoms: C_19  and  C_21
REMARK                            x       y       z     vdW  Elec       q    Type
REMARK                         _______ _______ _______ _____ _____    ______ ____
ROOT
ATOM      1  C   UNL     1      -0.378   1.911   0.300  0.00  0.00    +0.029 C 
ATOM      2  C   UNL     1      -0.143   0.402   0.207  0.00  0.00    +0.137 C 
ATOM      3  C   UNL     1      -1.457  -0.365   0.218  0.00  0.00    +0.235 C 
ATOM      4  O   UNL     1      -2.234  -0.313  -0.712  0.00  0.00    -0.274 OA
ATOM      5  N   UNL     1      -1.710  -1.098   1.303  0.00  0.00    -0.238 N 
ATOM      6  C   UNL     1      -2.854  -2.047   1.397  0.00  0.00    +0.152 C 
ATOM      7  C   UNL     1      -3.226  -2.188   2.851  0.00  0.00    +0.083 C 
ATOM      8  C   UNL     1      -2.359  -1.905   3.855  0.00  0.00    +0.053 C 
ATOM      9  N   UNL     1      -1.140  -1.400   3.616  0.00  0.00    -0.230 NA
ATOM     10  C   UNL     1      -0.862  -1.006   2.401  0.00  0.00    +0.164 C 
ATOM     11  S   UNL     1       0.614  -0.257   1.755  0.00  0.00    -0.077 S 
ATOM     12  C   UNL     1      -2.778  -2.164   5.280  0.00  0.00    +0.066 C 
ENDROOT
BRANCH   6  13
ATOM     13  C   UNL     1      -2.450  -3.388   0.842  0.00  0.00    -0.022 A 
ATOM     14  C   UNL     1      -1.191  -3.896   1.108  0.00  0.00    +0.007 A 
ATOM     15  C   UNL     1      -0.820  -5.126   0.599  0.00  0.00    +0.015 A 
ATOM     16  C   UNL     1      -1.707  -5.849  -0.177  0.00  0.00    +0.013 A 
ATOM     17  C   UNL     1      -2.966  -5.342  -0.443  0.00  0.00    +0.015 A 
ATOM     18  C   UNL     1      -3.339  -4.114   0.071  0.00  0.00    +0.007 A 
ATOM     19  I   UNL     1      -1.145  -7.714  -0.949  0.00  0.00    -0.044 I 
ENDBRANCH   6  13
BRANCH   7  20
ATOM     20  C   UNL     1      -4.520  -2.628   3.178  0.00  0.00    +0.339 C 
ATOM     21  O   UNL     1      -5.469  -1.875   3.056  0.00  0.00    -0.245 OA
BRANCH  20  22
ATOM     22  O   UNL     1      -4.711  -3.888   3.627  0.00  0.00    -0.461 OA
BRANCH  22  23
ATOM     23  C   UNL     1      -6.052  -4.268   3.941  0.00  0.00    +0.235 C 
BRANCH  23  24
ATOM     24  C   UNL     1      -6.070  -5.718   4.430  0.00  0.00    +0.020 C 
ATOM     25  C   UNL     1      -7.484  -6.086   4.883  0.00  0.00    +0.010 C 
ATOM     26  C   UNL     1      -5.642  -6.646   3.291  0.00  0.00    +0.010 C 
ENDBRANCH  23  24
ENDBRANCH  22  23
ENDBRANCH  20  22
ENDBRANCH   7  20
TORSDOF 5
