REMARK  Name = ZINC14987898
REMARK  9 active torsions:
REMARK  status: ('A' for Active; 'I' for Inactive)
REMARK    1  A    between atoms: C_1  and  N_58
REMARK    2  A    between atoms: C_2  and  C_3
REMARK    3  A    between atoms: C_2  and  N_58
REMARK    4  A    between atoms: C_3  and  O_4
REMARK    5  A    between atoms: C_5  and  C_6
REMARK    6  A    between atoms: C_5  and  N_58
REMARK    7  A    between atoms: C_9  and  C_14
REMARK    8  A    between atoms: N_16  and  C_17
REMARK    9  A    between atoms: C_17  and  C_18
REMARK                            x       y       z     vdW  Elec       q    Type
REMARK                         _______ _______ _______ _____ _____    ______ ____
ROOT
ATOM      1  C   UNL     1      -1.546   2.545   0.408  0.00  0.00    +0.003 A 
ATOM      2  C   UNL     1      -0.224   2.824   0.279  0.00  0.00    +0.020 A 
ATOM      3  C   UNL     1       0.722   1.806   0.395  0.00  0.00    +0.020 A 
ATOM      4  C   UNL     1       0.287   0.506   0.644  0.00  0.00    +0.101 A 
ATOM      5  C   UNL     1      -1.105   0.263   0.771  0.00  0.00    +0.261 A 
ATOM      6  O   UNL     1      -1.512  -0.865   0.989  0.00  0.00    -0.267 OA
ATOM      7  N   UNL     1      -1.976   1.282   0.644  0.00  0.00    -0.327 N 
ATOM      8  H   UNL     1      -2.928   1.110   0.728  0.00  0.00    +0.169 HD
ENDROOT
BRANCH   4   9
ATOM      9  C   UNL     1       1.253  -0.595   0.773  0.00  0.00    +0.249 C 
ATOM     10  O   UNL     1       2.437  -0.392   0.578  0.00  0.00    -0.270 OA
ATOM     11  N   UNL     1       0.828  -1.830   1.106  0.00  0.00    -0.311 N 
ATOM     12  H   UNL     1      -0.122  -2.011   1.183  0.00  0.00    +0.149 HD
BRANCH  11  13
ATOM     13  C   UNL     1       1.800  -2.898   1.353  0.00  0.00    +0.108 C 
BRANCH  13  14
ATOM     14  C   UNL     1       1.060  -4.188   1.710  0.00  0.00    +0.012 C 
ATOM     15  C   UNL     1       0.320  -4.001   3.037  0.00  0.00    -0.006 C 
ATOM     16  C   UNL     1      -0.420  -5.291   3.395  0.00  0.00    +0.007 C 
ATOM     17  C   UNL     1       0.586  -6.436   3.530  0.00  0.00    -0.010 C 
ATOM     18  C   UNL     1       1.593  -6.102   4.632  0.00  0.00    +0.007 C 
ATOM     19  C   UNL     1       2.333  -4.812   4.274  0.00  0.00    -0.010 C 
ATOM     20  C   UNL     1       1.327  -3.667   4.139  0.00  0.00    +0.007 C 
ATOM     21  C   UNL     1       3.073  -4.999   2.948  0.00  0.00    +0.007 C 
ATOM     22  C   UNL     1       2.066  -5.333   1.845  0.00  0.00    -0.006 C 
ATOM     23  C   UNL     1       1.326  -6.623   2.203  0.00  0.00    +0.007 C 
ENDBRANCH  13  14
ENDBRANCH  11  13
ENDBRANCH   4   9
BRANCH   1  24
ATOM     24  C   UNL     1      -2.553   3.658   0.280  0.00  0.00    -0.025 C 
BRANCH  24  26
ATOM     25  C   UNL     1      -2.360   4.578   2.511  0.00  0.00    -0.096 C 
ATOM     26  N   UNL     1      -3.233   3.833   1.581  0.00  0.00    +0.383 N 
ATOM     27  H   UNL     1      -3.434   2.908   1.979  0.00  0.00    -0.082 HD
BRANCH  26  28
ATOM     28  C   UNL     1      -4.506   4.560   1.391  0.00  0.00    -0.051 C 
BRANCH  28  29
ATOM     29  C   UNL     1      -5.365   4.382   2.645  0.00  0.00    +0.137 C 
BRANCH  29  30
ATOM     30  O   UNL     1      -4.764   5.081   3.737  0.00  0.00    -0.397 OA
ATOM     31  H   UNL     1      -5.256   5.011   4.567  0.00  0.00    +0.209 HD
ENDBRANCH  29  30
ENDBRANCH  28  29
ENDBRANCH  26  28
ENDBRANCH  24  26
ENDBRANCH   1  24
TORSDOF 8
