REMARK  Name = ZINC66963822
REMARK  4 active torsions:
REMARK  status: ('A' for Active; 'I' for Inactive)
REMARK    1  A    between atoms: C_4  and  N_11
REMARK    2  A    between atoms: C_5  and  C_7
REMARK    3  A    between atoms: C_7  and  C_8
REMARK    4  A    between atoms: C_20  and  C_22
REMARK                            x       y       z     vdW  Elec       q    Type
REMARK                         _______ _______ _______ _____ _____    ______ ____
ROOT
ATOM      1  N   UNL     1       4.074  -0.666   1.024  0.00  0.00    -0.269 N 
ATOM      2  C   UNL     1       5.191   0.022   0.717  0.00  0.00    +0.307 C 
ATOM      3  O   UNL     1       5.187   1.238   0.757  0.00  0.00    -0.252 OA
ATOM      4  N   UNL     1       6.314  -0.636   0.365  0.00  0.00    -0.282 N 
ATOM      5  C   UNL     1       6.311  -2.099   0.227  0.00  0.00    +0.128 C 
ATOM      6  C   UNL     1       6.815  -2.460  -1.175  0.00  0.00    +0.127 C 
ATOM      7  N   UNL     1       8.063  -1.728  -1.429  0.00  0.00    -0.298 N 
ATOM      8  C   UNL     1       8.066  -0.265  -1.291  0.00  0.00    +0.127 C 
ATOM      9  C   UNL     1       7.561   0.097   0.106  0.00  0.00    +0.128 C 
ATOM     10  C   UNL     1       9.185  -2.386  -1.781  0.00  0.00    +0.219 C 
ATOM     11  O   UNL     1      10.182  -1.766  -2.086  0.00  0.00    -0.275 OA
ATOM     12  H   UNL     1       4.083  -1.636   1.009  0.00  0.00    +0.156 HD
ENDROOT
BRANCH   1  16
ATOM     13  C   UNL     1       0.583   1.371   2.033  0.00  0.00    +0.000 A 
ATOM     14  C   UNL     1       1.808   2.001   2.150  0.00  0.00    +0.002 A 
ATOM     15  C   UNL     1       2.967   1.329   1.816  0.00  0.00    +0.023 A 
ATOM     16  C   UNL     1       2.902   0.018   1.363  0.00  0.00    +0.038 A 
ATOM     17  C   UNL     1       1.670  -0.613   1.246  0.00  0.00    -0.017 A 
ATOM     18  C   UNL     1       0.514   0.066   1.581  0.00  0.00    +0.006 A 
BRANCH  17  19
ATOM     19  C   UNL     1       1.594  -2.035   0.754  0.00  0.00    +0.132 C 
BRANCH  19  20
ATOM     20  C   UNL     1       1.805  -2.978   1.910  0.00  0.00    +0.215 C 
ATOM     21  O   UNL     1       1.998  -2.539   3.024  0.00  0.00    -0.276 OA
ATOM     22  N   UNL     1       1.780  -4.311   1.706  0.00  0.00    -0.329 N 
ATOM     23  H   UNL     1       1.625  -4.662   0.815  0.00  0.00    +0.145 HD
ATOM     24  H   UNL     1       1.915  -4.918   2.450  0.00  0.00    +0.145 HD
ENDBRANCH  19  20
ENDBRANCH  17  19
ENDBRANCH   1  16
BRANCH  10  25
ATOM     25  C   UNL     1       9.202  -3.893  -1.794  0.00  0.00    +0.075 C 
ATOM     26  C   UNL     1       8.477  -4.399  -3.043  0.00  0.00    +0.013 C 
ATOM     27  C   UNL     1       8.494  -5.929  -3.057  0.00  0.00    +0.001 C 
ATOM     28  C   UNL     1       9.942  -6.423  -3.072  0.00  0.00    +0.000 C 
ATOM     29  C   UNL     1      10.667  -5.917  -1.824  0.00  0.00    +0.001 C 
ATOM     30  C   UNL     1      10.650  -4.387  -1.810  0.00  0.00    +0.013 C 
ENDBRANCH  10  25
TORSDOF 4
