REMARK  Name = ZINC62562605
REMARK  4 active torsions:
REMARK  status: ('A' for Active; 'I' for Inactive)
REMARK    1  A    between atoms: C_1  and  C_2
REMARK    2  A    between atoms: C_5  and  C_8
REMARK    3  A    between atoms: N_12  and  C_22
REMARK    4  A    between atoms: C_17  and  N_20
REMARK                            x       y       z     vdW  Elec       q    Type
REMARK                         _______ _______ _______ _____ _____    ______ ____
ROOT
ATOM      1  C   UNL     1       0.059  -4.275  -0.021  0.00  0.00    +0.289 C 
ATOM      2  C   UNL     1       1.467  -4.761   0.214  0.00  0.00    +0.265 C 
ATOM      3  O   UNL     1       2.204  -4.970  -0.727  0.00  0.00    -0.271 OA
ATOM      4  N   UNL     1       1.905  -4.960   1.476  0.00  0.00    -0.268 N 
ATOM      5  C   UNL     1       1.022  -4.744   2.544  0.00  0.00    +0.081 A 
ATOM      6  C   UNL     1       1.497  -4.623   3.841  0.00  0.00    +0.047 A 
ATOM      7  C   UNL     1       0.612  -4.411   4.883  0.00  0.00    +0.045 A 
ATOM      8  C   UNL     1      -0.746  -4.319   4.636  0.00  0.00    +0.046 A 
ATOM      9  C   UNL     1      -1.229  -4.439   3.340  0.00  0.00    +0.070 A 
ATOM     10  C   UNL     1      -0.343  -4.651   2.290  0.00  0.00    +0.164 A 
ATOM     11  O   UNL     1      -0.796  -4.768   1.013  0.00  0.00    -0.471 OA
ATOM     12 CL   UNL     1       1.209  -4.260   6.507  0.00  0.00    -0.083 Cl
ATOM     13  C   UNL     1       3.281  -5.396   1.726  0.00  0.00    +0.138 C 
ENDROOT
BRANCH   1  18
ATOM     14  C   UNL     1      -0.018   1.503   0.010  0.00  0.00    +0.044 C 
ATOM     15  C   UNL     1       0.002  -0.004   0.002  0.00  0.00    -0.050 A 
ATOM     16  C   UNL     1       0.006  -0.689  -1.199  0.00  0.00    +0.004 A 
ATOM     17  C   UNL     1       0.025  -2.071  -1.206  0.00  0.00    +0.008 A 
ATOM     18  C   UNL     1       0.040  -2.768  -0.013  0.00  0.00    +0.002 A 
ATOM     19  C   UNL     1       0.037  -2.084   1.188  0.00  0.00    +0.008 A 
ATOM     20  C   UNL     1       0.023  -0.702   1.195  0.00  0.00    +0.004 A 
ENDBRANCH   1  18
BRANCH   9  21
ATOM     21  N   UNL     1      -2.603  -4.346   3.091  0.00  0.00    -0.355 N 
ATOM     22  H   UNL     1      -3.220  -4.198   3.825  0.00  0.00    +0.142 HD
ATOM     23  H   UNL     1      -2.939  -4.430   2.185  0.00  0.00    +0.142 HD
ENDBRANCH   9  21
TORSDOF 2
