REMARK  Name = ZINC06490250
REMARK  11 active torsions:
REMARK  status: ('A' for Active; 'I' for Inactive)
REMARK    1  A    between atoms: C_1  and  C_2
REMARK    2  A    between atoms: C_2  and  N_3
REMARK    3  A    between atoms: C_5  and  S_9
REMARK    4  A    between atoms: C_6  and  C_8
REMARK    5  A    between atoms: S_9  and  N_12
REMARK    6  A    between atoms: C_16  and  C_19
REMARK    7  A    between atoms: N_21  and  C_22
REMARK    8  A    between atoms: C_22  and  C_24
REMARK    9  A    between atoms: C_22  and  C_25
REMARK   10  A    between atoms: N_27  and  C_31
REMARK   11  A    between atoms: C_29  and  C_30
REMARK                            x       y       z     vdW  Elec       q    Type
REMARK                         _______ _______ _______ _____ _____    ______ ____
ROOT
ATOM      1  N   UNL     1       1.459   0.512   3.057  0.00  0.00    -0.176 NA
ATOM      2  C   UNL     1       2.654  -0.207   3.519  0.00  0.00    +0.109 C 
ATOM      3  C   UNL     1       3.197   0.483   4.769  0.00  0.00    +0.018 C 
ATOM      4  C   UNL     1       3.432   1.966   4.469  0.00  0.00    +0.015 C 
ATOM      5  C   UNL     1       2.106   2.627   4.088  0.00  0.00    +0.091 C 
ATOM      6  C   UNL     1       1.551   1.960   2.825  0.00  0.00    +0.122 C 
ENDROOT
BRANCH   5   7
ATOM      7  C   UNL     1       2.332   4.093   3.824  0.00  0.00    +0.218 C 
ATOM      8  O   UNL     1       2.076   4.560   2.735  0.00  0.00    -0.275 OA
ATOM      9  N   UNL     1       2.820   4.886   4.799  0.00  0.00    -0.308 N 
ATOM     10  H   UNL     1       3.025   4.513   5.671  0.00  0.00    +0.149 HD
BRANCH   9  11
ATOM     11  C   UNL     1       3.040   6.311   4.543  0.00  0.00    +0.103 C 
ATOM     12  C   UNL     1       1.736   7.079   4.773  0.00  0.00    +0.033 C 
BRANCH  11  13
ATOM     13  C   UNL     1       4.101   6.832   5.478  0.00  0.00    +0.013 A 
ATOM     14  C   UNL     1       4.485   6.261   6.643  0.00  0.00    +0.113 A 
ATOM     15  N   UNL     1       5.457   7.029   7.177  0.00  0.00    -0.274 N 
ATOM     16  N   UNL     1       5.671   8.114   6.316  0.00  0.00    -0.176 NA
ATOM     17  C   UNL     1       4.858   7.995   5.298  0.00  0.00    +0.065 A 
ATOM     18  C   UNL     1       4.754   8.946   4.134  0.00  0.00    +0.068 C 
ATOM     19  C   UNL     1       6.161   6.778   8.437  0.00  0.00    +0.172 C 
ENDBRANCH  11  13
ENDBRANCH   9  11
ENDBRANCH   5   7
BRANCH   1  20
ATOM     20  S   UNL     1       0.033  -0.293   2.808  0.00  0.00    +0.064 S 
ATOM     21  O   UNL     1      -1.004   0.670   2.932  0.00  0.00    -0.153 OA
ATOM     22  O   UNL     1       0.084  -1.465   3.610  0.00  0.00    -0.153 OA
BRANCH  20  25
ATOM     23  N   UNL     1       0.025  -2.102  -0.644  0.00  0.00    -0.270 N 
ATOM     24  C   UNL     1       0.037  -2.115   0.706  0.00  0.00    +0.137 A 
ATOM     25  C   UNL     1       0.024  -0.830   1.131  0.00  0.00    +0.146 A 
ATOM     26  C   UNL     1       0.002  -0.004   0.002  0.00  0.00    +0.086 A 
ATOM     27  N   UNL     1      -0.003  -0.765  -1.062  0.00  0.00    -0.174 NA
ATOM     28  C   UNL     1      -0.018   1.503   0.010  0.00  0.00    +0.069 C 
BRANCH  23  30
ATOM     29  C   UNL     1      -1.159  -3.211  -2.474  0.00  0.00    +0.029 C 
ATOM     30  C   UNL     1       0.032  -3.279  -1.517  0.00  0.00    +0.140 C 
ENDBRANCH  23  30
ENDBRANCH  20  25
ENDBRANCH   1  20
TORSDOF 6
