REMARK  Name = ZINC08685636
REMARK  10 active torsions:
REMARK  status: ('A' for Active; 'I' for Inactive)
REMARK    1  A    between atoms: C_1  and  C_2
REMARK    2  A    between atoms: C_2  and  O_3
REMARK    3  A    between atoms: O_3  and  C_4
REMARK    4  A    between atoms: C_4  and  C_6
REMARK    5  A    between atoms: C_8  and  C_20
REMARK    6  A    between atoms: C_13  and  C_14
REMARK    7  A    between atoms: C_13  and  O_18
REMARK    8  A    between atoms: C_23  and  O_28
REMARK    9  A    between atoms: C_24  and  O_26
REMARK   10  A    between atoms: O_26  and  C_27
REMARK                            x       y       z     vdW  Elec       q    Type
REMARK                         _______ _______ _______ _____ _____    ______ ____
ROOT
ATOM      1  C   UNL     1      -2.139  -2.741   0.574  0.00  0.00    +0.181 C 
ATOM      2  C   UNL     1      -2.787  -3.951  -0.109  0.00  0.00    +0.121 C 
ATOM      3  N   UNL     1      -2.781  -5.085   0.817  0.00  0.00    -0.319 N 
ATOM      4  C   UNL     1      -2.827  -4.902   2.145  0.00  0.00    +0.133 C 
ATOM      5  N   UNL     1      -2.869  -3.684   2.705  0.00  0.00    -0.291 N 
ATOM      6  C   UNL     1      -2.878  -2.465   1.887  0.00  0.00    +0.244 C 
ATOM      7  S   UNL     1      -2.833  -6.277   3.165  0.00  0.00    -0.019 S 
ATOM      8  H   UNL     1      -2.892  -3.606   3.672  0.00  0.00    +0.151 HD
ATOM      9  H   UNL     1      -2.744  -5.987   0.463  0.00  0.00    +0.148 HD
ENDROOT
BRANCH   2  10
ATOM     10  C   UNL     1      -2.007  -4.307  -1.348  0.00  0.00    -0.023 A 
ATOM     11  C   UNL     1      -0.903  -5.134  -1.255  0.00  0.00    +0.009 A 
ATOM     12  C   UNL     1      -0.184  -5.464  -2.389  0.00  0.00    +0.049 A 
ATOM     13  C   UNL     1      -0.570  -4.965  -3.623  0.00  0.00    +0.158 A 
ATOM     14  C   UNL     1      -1.681  -4.133  -3.717  0.00  0.00    +0.162 A 
ATOM     15  C   UNL     1      -2.400  -3.811  -2.577  0.00  0.00    +0.055 A 
BRANCH  14  16
ATOM     16  O   UNL     1      -2.064  -3.642  -4.926  0.00  0.00    -0.491 OA
ATOM     17  C   UNL     1      -3.214  -2.794  -4.947  0.00  0.00    +0.277 C 
ENDBRANCH  14  16
BRANCH  13  18
ATOM     18  O   UNL     1       0.136  -5.288  -4.739  0.00  0.00    -0.503 OA
ATOM     19  H   UNL     1      -0.177  -6.087  -5.185  0.00  0.00    +0.292 HD
ENDBRANCH  13  18
ENDBRANCH   2  10
BRANCH   6  20
ATOM     20  C   UNL     1      -4.323  -2.063   1.587  0.00  0.00    +0.436 C 
ATOM     21  F   UNL     1      -4.963  -3.102   0.903  0.00  0.00    -0.166 F 
ATOM     22  F   UNL     1      -4.997  -1.811   2.787  0.00  0.00    -0.166 F 
ATOM     23  F   UNL     1      -4.332  -0.909   0.796  0.00  0.00    -0.166 F 
ENDBRANCH   6  20
BRANCH   1  24
ATOM     24  C   UNL     1      -0.690  -3.038   0.861  0.00  0.00    +0.317 C 
ATOM     25  O   UNL     1      -0.383  -3.638   1.864  0.00  0.00    -0.250 OA
BRANCH  24  26
ATOM     26  O   UNL     1       0.260  -2.636   0.002  0.00  0.00    -0.465 OA
BRANCH  26  28
ATOM     27  C   UNL     1       2.546  -2.417  -0.752  0.00  0.00    +0.048 C 
ATOM     28  C   UNL     1       1.613  -2.951   0.337  0.00  0.00    +0.229 C 
ENDBRANCH  26  28
ENDBRANCH  24  26
ENDBRANCH   1  24
BRANCH   6  29
ATOM     29  O   UNL     1      -2.223  -1.406   2.590  0.00  0.00    -0.364 OA
ATOM     30  H   UNL     1      -2.638  -1.178   3.433  0.00  0.00    +0.212 HD
ENDBRANCH   6  29
TORSDOF 8
