REMARK  Name = ZINC55029228
REMARK  10 active torsions:
REMARK  status: ('A' for Active; 'I' for Inactive)
REMARK    1  A    between atoms: C_1  and  C_2
REMARK    2  A    between atoms: C_2  and  C_4
REMARK    3  A    between atoms: C_2  and  N_12
REMARK    4  A    between atoms: N_6  and  C_7
REMARK    5  A    between atoms: C_7  and  C_8
REMARK    6  A    between atoms: C_8  and  C_9
REMARK    7  A    between atoms: C_9  and  C_10
REMARK    8  A    between atoms: C_9  and  C_11
REMARK    9  A    between atoms: C_15  and  N_18
REMARK   10  A    between atoms: N_21  and  C_22
REMARK                            x       y       z     vdW  Elec       q    Type
REMARK                         _______ _______ _______ _____ _____    ______ ____
ROOT
ATOM      1  N   UNL     1      -1.096  -0.936  -0.287  0.00  0.00    +0.387 N 
ATOM      2  C   UNL     1      -1.747  -0.548  -1.544  0.00  0.00    -0.076 C 
ATOM      3  C   UNL     1      -2.942  -1.466  -1.809  0.00  0.00    +0.004 C 
ATOM      4  C   UNL     1      -2.454  -2.914  -1.911  0.00  0.00    +0.071 C 
ATOM      5  C   UNL     1      -1.712  -3.284  -0.624  0.00  0.00    +0.004 C 
ATOM      6  C   UNL     1      -0.562  -2.298  -0.403  0.00  0.00    -0.076 C 
ATOM      7  H   UNL     1      -1.770  -0.903   0.463  0.00  0.00    -0.081 HD
ENDROOT
BRANCH   4   8
ATOM      8  N   UNL     1      -3.602  -3.806  -2.089  0.00  0.00    -0.297 N 
ATOM      9  C   UNL     1      -3.439  -5.002  -2.689  0.00  0.00    +0.300 C 
ATOM     10  O   UNL     1      -2.340  -5.339  -3.084  0.00  0.00    -0.253 OA
ATOM     11  N   UNL     1      -4.495  -5.823  -2.853  0.00  0.00    -0.297 N 
ATOM     12  H   UNL     1      -4.479  -3.537  -1.774  0.00  0.00    +0.151 HD
ATOM     13  H   UNL     1      -5.372  -5.554  -2.538  0.00  0.00    +0.151 HD
BRANCH  11  14
ATOM     14  C   UNL     1      -4.319  -7.123  -3.506  0.00  0.00    +0.074 C 
ATOM     15  C   UNL     1      -3.862  -8.155  -2.472  0.00  0.00    +0.022 C 
ATOM     16  C   UNL     1      -3.678  -9.512  -3.154  0.00  0.00    +0.002 C 
ATOM     17  C   UNL     1      -5.005  -9.959  -3.769  0.00  0.00    +0.000 C 
ATOM     18  C   UNL     1      -5.462  -8.927  -4.802  0.00  0.00    +0.002 C 
ATOM     19  C   UNL     1      -5.646  -7.569  -4.120  0.00  0.00    +0.022 C 
ENDBRANCH  11  14
ENDBRANCH   4   8
BRANCH   1  21
ATOM     20  C   UNL     1      -0.555   1.415   0.136  0.00  0.00    -0.004 C 
ATOM     21  C   UNL     1       0.002  -0.004   0.002  0.00  0.00    +0.016 C 
BRANCH  21  22
ATOM     22  C   UNL     1       0.674  -0.404   1.290  0.00  0.00    +0.199 C 
ATOM     23  O   UNL     1       0.042  -0.978   2.151  0.00  0.00    -0.278 OA
ATOM     24  N   UNL     1       1.978  -0.123   1.486  0.00  0.00    -0.317 N 
ATOM     25  H   UNL     1       2.483   0.336   0.797  0.00  0.00    +0.149 HD
BRANCH  24  26
ATOM     26  C   UNL     1       2.631  -0.511   2.738  0.00  0.00    +0.104 C 
BRANCH  26  27
ATOM     27  C   UNL     1       4.098  -0.079   2.704  0.00  0.00    +0.022 C 
BRANCH  27  28
ATOM     28  C   UNL     1       4.780  -0.485   4.012  0.00  0.00    -0.016 C 
ATOM     29  C   UNL     1       6.274  -0.165   3.929  0.00  0.00    +0.007 C 
ATOM     30  C   UNL     1       4.156   0.291   5.174  0.00  0.00    +0.007 C 
ENDBRANCH  27  28
ENDBRANCH  26  27
ENDBRANCH  24  26
ENDBRANCH  21  22
ENDBRANCH   1  21
TORSDOF 7
