REMARK  Name = ZINC01193522
REMARK  8 active torsions:
REMARK  status: ('A' for Active; 'I' for Inactive)
REMARK    1  A    between atoms: C_1  and  O_2
REMARK    2  A    between atoms: O_2  and  C_3
REMARK    3  A    between atoms: C_8  and  O_9
REMARK    4  A    between atoms: O_9  and  C_10
REMARK    5  A    between atoms: C_11  and  C_25
REMARK    6  A    between atoms: C_15  and  C_16
REMARK    7  A    between atoms: C_15  and  N_53
REMARK    8  A    between atoms: C_18  and  N_22
REMARK                            x       y       z     vdW  Elec       q    Type
REMARK                         _______ _______ _______ _____ _____    ______ ____
ROOT
ATOM      1  C   UNL     1      -0.047  -2.779   0.008  0.00  0.00    +0.162 A 
ATOM      2  C   UNL     1       1.101  -2.101  -0.361  0.00  0.00    +0.053 A 
ATOM      3  C   UNL     1       1.127  -0.714  -0.363  0.00  0.00    -0.044 A 
ATOM      4  C   UNL     1       0.002  -0.004   0.002  0.00  0.00    -0.050 A 
ATOM      5  C   UNL     1      -1.151  -0.680   0.374  0.00  0.00    +0.052 A 
ATOM      6  C   UNL     1      -1.181  -2.063   0.379  0.00  0.00    +0.162 A 
ATOM      7  C   UNL     1      -0.018   1.502   0.010  0.00  0.00    -0.006 C 
ATOM      8  C   UNL     1       2.117   1.442  -1.106  0.00  0.00    -0.072 C 
ATOM      9  C   UNL     1       2.403  -0.021  -0.768  0.00  0.00    +0.017 C 
ATOM     10  N   UNL     1       1.358   2.025   0.019  0.00  0.00    +0.390 N 
ATOM     11  H   UNL     1       1.812   1.760   0.902  0.00  0.00    -0.080 HD
ENDROOT
BRANCH   7  12
ATOM     12  C   UNL     1      -0.730   1.983   1.248  0.00  0.00    -0.055 A 
ATOM     13  C   UNL     1      -0.066   2.012   2.461  0.00  0.00    +0.002 A 
ATOM     14  C   UNL     1      -0.717   2.457   3.596  0.00  0.00    +0.002 A 
ATOM     15  C   UNL     1      -2.036   2.865   3.522  0.00  0.00    +0.020 A 
ATOM     16  C   UNL     1      -2.703   2.831   2.310  0.00  0.00    +0.041 A 
ATOM     17  C   UNL     1      -2.049   2.390   1.173  0.00  0.00    +0.022 A 
ATOM     18 CL   UNL     1      -4.359   3.341   2.216  0.00  0.00    -0.084 Cl
ENDBRANCH   7  12
BRANCH   1  20
ATOM     19  C   UNL     1       1.135  -4.806  -0.385  0.00  0.00    +0.277 C 
ATOM     20  O   UNL     1      -0.067  -4.139   0.008  0.00  0.00    -0.491 OA
ENDBRANCH   1  20
BRANCH   6  21
ATOM     21  O   UNL     1      -2.314  -2.720   0.745  0.00  0.00    -0.491 OA
ATOM     22  C   UNL     1      -3.439  -1.919   1.113  0.00  0.00    +0.277 C 
ENDBRANCH   6  21
BRANCH  10  23
ATOM     23  C   UNL     1       1.341   3.501  -0.090  0.00  0.00    -0.038 C 
BRANCH  23  24
ATOM     24  C   UNL     1       2.733   4.026   0.148  0.00  0.00    -0.015 A 
ATOM     25  C   UNL     1       3.489   4.487  -0.912  0.00  0.00    +0.038 A 
ATOM     26  C   UNL     1       4.766   4.969  -0.695  0.00  0.00    +0.127 A 
ATOM     27  C   UNL     1       5.292   4.989   0.584  0.00  0.00    +0.036 A 
ATOM     28  C   UNL     1       4.540   4.528   1.648  0.00  0.00    +0.053 A 
ATOM     29  C   UNL     1       3.256   4.050   1.433  0.00  0.00    +0.180 A 
ATOM     30  O   UNL     1       2.513   3.601   2.479  0.00  0.00    -0.288 OA
BRANCH  26  31
ATOM     31  N   UNL     1       5.573   5.463  -1.833  0.00  0.00    +0.056 N 
ATOM     32  O   UNL     1       5.112   5.446  -2.960  0.00  0.00    -0.126 OA
ATOM     33  O   UNL     1       6.699   5.887  -1.642  0.00  0.00    -0.126 OA
ENDBRANCH  26  31
ENDBRANCH  23  24
ENDBRANCH  10  23
TORSDOF 6
