REMARK  Name = ZINC35528420
REMARK  6 active torsions:
REMARK  status: ('A' for Active; 'I' for Inactive)
REMARK    1  A    between atoms: C_1  and  N_2
REMARK    2  A    between atoms: C_14  and  C_15
REMARK    3  A    between atoms: C_15  and  C_16
REMARK    4  A    between atoms: C_16  and  C_17
REMARK    5  A    between atoms: C_22  and  C_25
REMARK    6  A    between atoms: C_25  and  C_26
REMARK                            x       y       z     vdW  Elec       q    Type
REMARK                         _______ _______ _______ _____ _____    ______ ____
ROOT
ATOM      1  C   UNL     1       1.518  -4.291   3.244  0.00  0.00    +0.104 C 
ENDROOT
BRANCH   1   2
ATOM      2  C   UNL     1       1.539  -5.698   3.785  0.00  0.00    +0.216 C 
ATOM      3  O   UNL     1       0.497  -6.278   4.007  0.00  0.00    -0.276 OA
ATOM      4  N   UNL     1       2.716  -6.311   4.021  0.00  0.00    -0.301 N 
ATOM      5  C   UNL     1       3.986  -5.619   3.763  0.00  0.00    +0.108 C 
ATOM      6  C   UNL     1       4.841  -5.667   5.033  0.00  0.00    +0.023 C 
ATOM      7  C   UNL     1       4.998  -7.122   5.482  0.00  0.00    -0.004 C 
ATOM      8  C   UNL     1       3.622  -7.710   5.804  0.00  0.00    +0.023 C 
ATOM      9  C   UNL     1       2.753  -7.682   4.548  0.00  0.00    +0.108 C 
BRANCH   7  10
ATOM     10  C   UNL     1       5.880  -7.177   6.731  0.00  0.00    +0.038 C 
BRANCH  10  11
ATOM     11  C   UNL     1       6.136  -8.616   7.102  0.00  0.00    -0.047 A 
ATOM     12  C   UNL     1       5.273  -9.272   7.958  0.00  0.00    +0.003 A 
ATOM     13  C   UNL     1       5.507 -10.591   8.299  0.00  0.00    +0.000 A 
ATOM     14  C   UNL     1       6.605 -11.254   7.782  0.00  0.00    +0.000 A 
ATOM     15  C   UNL     1       7.468 -10.597   6.925  0.00  0.00    +0.000 A 
ATOM     16  C   UNL     1       7.231  -9.279   6.581  0.00  0.00    +0.003 A 
ENDBRANCH  10  11
ENDBRANCH   7  10
ENDBRANCH   1   2
BRANCH   1  17
ATOM     17  C   UNL     1       0.068  -3.835   3.068  0.00  0.00    +0.086 C 
BRANCH  17  31
ATOM     18  C   UNL     1      -0.018   1.461   0.010  0.00  0.00    +0.155 C 
ATOM     19  N   UNL     1       0.002  -0.004   0.002  0.00  0.00    -0.279 N 
ATOM     20  C   UNL     1       0.006  -0.675  -1.171  0.00  0.00    +0.269 A 
ATOM     21  O   UNL     1      -0.007  -0.066  -2.226  0.00  0.00    -0.266 OA
ATOM     22  C   UNL     1       0.025  -2.076  -1.165  0.00  0.00    +0.101 A 
ATOM     23  C   UNL     1       0.040  -2.807   0.024  0.00  0.00    +0.071 A 
ATOM     24  C   UNL     1       0.058  -4.186  -0.167  0.00  0.00    +0.034 A 
ATOM     25  C   UNL     1       0.059  -4.689  -1.421  0.00  0.00    +0.048 A 
ATOM     26  S   UNL     1       0.036  -3.334  -2.414  0.00  0.00    -0.090 S 
ATOM     27  N   UNL     1       0.036  -2.065   1.213  0.00  0.00    -0.264 N 
ATOM     28  C   UNL     1       0.023  -0.704   1.194  0.00  0.00    +0.239 A 
ATOM     29  N   UNL     1       0.029  -0.306   2.448  0.00  0.00    -0.110 NA
ATOM     30  N   UNL     1       0.050  -1.327   3.229  0.00  0.00    -0.132 NA
ATOM     31  C   UNL     1       0.046  -2.428   2.527  0.00  0.00    +0.140 A 
ENDBRANCH  17  31
ENDBRANCH   1  17
TORSDOF 5
