REMARK  Name = ZINC12378844
REMARK  6 active torsions:
REMARK  status: ('A' for Active; 'I' for Inactive)
REMARK    1  A    between atoms: C_1  and  C_2
REMARK    2  A    between atoms: C_2  and  C_23
REMARK    3  A    between atoms: N_3  and  N_4
REMARK    4  A    between atoms: C_8  and  C_11
REMARK    5  A    between atoms: C_11  and  C_12
REMARK    6  A    between atoms: N_14  and  C_15
REMARK                            x       y       z     vdW  Elec       q    Type
REMARK                         _______ _______ _______ _____ _____    ______ ____
ROOT
ATOM      1  N   UNL     1       0.048  -0.003   2.290  0.00  0.00    -0.126 NA
ATOM      2  C   UNL     1       0.065  -0.676   3.422  0.00  0.00    +0.183 C 
ATOM      3  N   UNL     1       0.065  -0.179   4.708  0.00  0.00    -0.263 N 
ATOM      4  C   UNL     1       0.082  -0.963   5.772  0.00  0.00    +0.233 C 
ATOM      5  C   UNL     1       0.101  -2.458   5.493  0.00  0.00    +0.149 C 
ATOM      6  S   UNL     1       0.084  -2.448   3.652  0.00  0.00    -0.075 S 
ATOM      7  O   UNL     1       0.082  -0.518   6.900  0.00  0.00    -0.274 OA
ATOM      8  H   UNL     1       0.053   0.782   4.836  0.00  0.00    +0.157 HD
ENDROOT
BRANCH   1  11
ATOM      9  C   UNL     1       0.013   1.540   0.062  0.00  0.00    +0.068 C 
ATOM     10  C   UNL     1       0.028   0.033   0.043  0.00  0.00    +0.068 C 
ATOM     11  N   UNL     1       0.044  -0.634   1.165  0.00  0.00    -0.152 NA
BRANCH  10  12
ATOM     12  C   UNL     1       0.023  -0.686  -1.241  0.00  0.00    -0.002 A 
ATOM     13  C   UNL     1       0.011   0.025  -2.445  0.00  0.00    +0.011 A 
ATOM     14  C   UNL     1       0.007  -0.656  -3.644  0.00  0.00    +0.020 A 
ATOM     15  C   UNL     1       0.014  -2.041  -3.658  0.00  0.00    +0.041 A 
ATOM     16  C   UNL     1       0.025  -2.752  -2.469  0.00  0.00    +0.020 A 
ATOM     17  C   UNL     1       0.036  -2.085  -1.263  0.00  0.00    +0.011 A 
ATOM     18 CL   UNL     1       0.009  -2.890  -5.172  0.00  0.00    -0.084 Cl
ENDBRANCH  10  12
ENDBRANCH   1  11
BRANCH   5  19
ATOM     19  C   UNL     1      -1.148  -3.142   6.052  0.00  0.00    +0.120 C 
BRANCH  19  20
ATOM     20  C   UNL     1      -1.031  -4.633   5.863  0.00  0.00    +0.219 C 
ATOM     21  O   UNL     1      -0.046  -5.101   5.333  0.00  0.00    -0.275 OA
ATOM     22  N   UNL     1      -2.021  -5.445   6.282  0.00  0.00    -0.283 N 
ATOM     23  H   UNL     1      -2.779  -5.077   6.764  0.00  0.00    +0.155 HD
BRANCH  22  24
ATOM     24  C   UNL     1      -1.956  -6.820   6.024  0.00  0.00    +0.069 A 
ATOM     25  C   UNL     1      -0.730  -7.471   6.025  0.00  0.00    +0.026 A 
ATOM     26  C   UNL     1      -0.669  -8.827   5.770  0.00  0.00    +0.002 A 
ATOM     27  C   UNL     1      -1.827  -9.537   5.513  0.00  0.00    +0.003 A 
ATOM     28  C   UNL     1      -3.051  -8.893   5.510  0.00  0.00    +0.040 A 
ATOM     29  C   UNL     1      -3.120  -7.537   5.771  0.00  0.00    +0.144 A 
ATOM     30  F   UNL     1      -4.316  -6.909   5.773  0.00  0.00    -0.204 F 
ENDBRANCH  22  24
ENDBRANCH  19  20
ENDBRANCH   5  19
TORSDOF 5
