REMARK  Name = ZINC57795257
REMARK  3 active torsions:
REMARK  status: ('A' for Active; 'I' for Inactive)
REMARK    1  A    between atoms: C_1  and  C_2
REMARK    2  A    between atoms: C_10  and  C_11
REMARK    3  A    between atoms: N_13  and  N_14
REMARK                            x       y       z     vdW  Elec       q    Type
REMARK                         _______ _______ _______ _____ _____    ______ ____
ROOT
ATOM      1  C   UNL     1       0.029  -0.162   2.546  0.00  0.00    +0.268 C 
ATOM      2  O   UNL     1       0.015   1.040   2.734  0.00  0.00    -0.268 OA
ATOM      3  N   UNL     1       0.051  -1.008   3.595  0.00  0.00    -0.220 N 
ATOM      4  H   UNL     1       0.063  -1.966   3.445  0.00  0.00    +0.174 HD
ENDROOT
BRANCH   1  14
ATOM      5  C   UNL     1      -0.018   1.503   0.010  0.00  0.00    +0.046 C 
ATOM      6  C   UNL     1       0.002  -0.004   0.002  0.00  0.00    -0.021 A 
ATOM      7  C   UNL     1       0.005  -0.701  -1.219  0.00  0.00    +0.028 A 
ATOM      8  C   UNL     1      -0.009  -0.167  -2.536  0.00  0.00    +0.132 A 
ATOM      9  C   UNL     1      -0.004  -0.998  -3.626  0.00  0.00    +0.039 A 
ATOM     10  C   UNL     1       0.015  -2.380  -3.483  0.00  0.00    +0.004 A 
ATOM     11  C   UNL     1       0.029  -2.934  -2.219  0.00  0.00    +0.016 A 
ATOM     12  C   UNL     1       0.025  -2.112  -1.113  0.00  0.00    +0.023 A 
ATOM     13  S   UNL     1       0.038  -2.393   0.640  0.00  0.00    -0.083 S 
ATOM     14  C   UNL     1       0.023  -0.691   1.175  0.00  0.00    +0.079 A 
ATOM     15  F   UNL     1      -0.029   1.172  -2.715  0.00  0.00    -0.205 F 
ENDBRANCH   1  14
BRANCH   3  16
ATOM     16  N   UNL     1       0.057  -0.503   4.902  0.00  0.00    -0.147 N 
ATOM     17  C   UNL     1       1.125   0.059   5.496  0.00  0.00    +0.271 C 
ATOM     18  O   UNL     1       2.221   0.207   4.992  0.00  0.00    -0.268 OA
ATOM     19  C   UNL     1       0.743   0.466   6.864  0.00  0.00    +0.051 A 
ATOM     20  C   UNL     1       1.410   1.078   7.914  0.00  0.00    +0.014 A 
ATOM     21  C   UNL     1       0.740   1.327   9.102  0.00  0.00    +0.001 A 
ATOM     22  C   UNL     1      -0.587   0.968   9.246  0.00  0.00    +0.001 A 
ATOM     23  C   UNL     1      -1.266   0.355   8.205  0.00  0.00    +0.014 A 
ATOM     24  C   UNL     1      -0.610   0.101   7.012  0.00  0.00    +0.051 A 
ATOM     25  C   UNL     1      -1.006  -0.511   5.726  0.00  0.00    +0.271 C 
ATOM     26  O   UNL     1      -2.106  -0.951   5.459  0.00  0.00    -0.268 OA
ENDBRANCH   3  16
TORSDOF 2
