REMARK  Name = ZINC40290827
REMARK  5 active torsions:
REMARK  status: ('A' for Active; 'I' for Inactive)
REMARK    1  A    between atoms: C_1  and  C_2
REMARK    2  A    between atoms: C_3  and  C_19
REMARK    3  A    between atoms: C_7  and  C_8
REMARK    4  A    between atoms: C_8  and  N_10
REMARK    5  A    between atoms: C_15  and  C_18
REMARK                            x       y       z     vdW  Elec       q    Type
REMARK                         _______ _______ _______ _____ _____    ______ ____
ROOT
ATOM      1  C   UNL     1       2.388  -0.315  -1.239  0.00  0.00    +0.046 C 
ATOM      2  C   UNL     1       1.151  -0.880  -0.591  0.00  0.00    -0.015 A 
ATOM      3  C   UNL     1      -0.112  -0.554  -1.057  0.00  0.00    +0.064 A 
ATOM      4  N   UNL     1      -1.184  -1.058  -0.477  0.00  0.00    -0.152 NA
ATOM      5  N   UNL     1      -1.118  -1.857   0.524  0.00  0.00    -0.133 NA
ATOM      6  C   UNL     1       0.038  -2.236   1.051  0.00  0.00    +0.154 A 
ATOM      7  C   UNL     1       1.241  -1.756   0.498  0.00  0.00    +0.049 A 
ATOM      8  N   UNL     1       0.062  -3.100   2.132  0.00  0.00    -0.313 N 
ATOM      9  C   UNL     1       0.004  -2.582   3.506  0.00  0.00    +0.106 C 
ATOM     10  C   UNL     1      -1.143  -3.276   4.246  0.00  0.00    +0.019 C 
ATOM     11  C   UNL     1      -0.961  -4.793   4.153  0.00  0.00    +0.006 C 
ATOM     12  C   UNL     1      -1.002  -5.225   2.686  0.00  0.00    +0.003 C 
ATOM     13  C   UNL     1       0.141  -4.553   1.927  0.00  0.00    +0.109 C 
ATOM     14  C   UNL     1      -0.853  -6.745   2.596  0.00  0.00    +0.009 C 
ATOM     15  C   UNL     1      -0.262   0.381  -2.230  0.00  0.00    +0.068 C 
ENDROOT
BRANCH   7  16
ATOM     16  C   UNL     1       2.549  -2.158   1.050  0.00  0.00    +0.081 C 
ATOM     17  S   UNL     1       3.401  -3.473   0.360  0.00  0.00    -0.035 S 
BRANCH  16  18
ATOM     18  N   UNL     1       3.073  -1.489   2.096  0.00  0.00    -0.352 N 
ATOM     19  H   UNL     1       2.629  -0.697   2.437  0.00  0.00    +0.143 HD
ATOM     20  H   UNL     1       3.894  -1.801   2.508  0.00  0.00    +0.143 HD
ENDBRANCH  16  18
ENDBRANCH   7  16
TORSDOF 2
