REMARK  Name = ZINC52918784
REMARK  4 active torsions:
REMARK  status: ('A' for Active; 'I' for Inactive)
REMARK    1  A    between atoms: C_4  and  N_21
REMARK    2  A    between atoms: C_5  and  C_7
REMARK    3  A    between atoms: C_7  and  C_8
REMARK    4  A    between atoms: C_8  and  N_9
REMARK                            x       y       z     vdW  Elec       q    Type
REMARK                         _______ _______ _______ _____ _____    ______ ____
ROOT
ATOM      1  N   UNL     1       1.391  -4.168   1.403  0.00  0.00    -0.224 N 
ATOM      2  C   UNL     1       0.290  -4.941   1.501  0.00  0.00    +0.247 C 
ATOM      3  O   UNL     1      -0.859  -4.571   1.609  0.00  0.00    -0.273 OA
ATOM      4  C   UNL     1       0.791  -6.366   1.447  0.00  0.00    +0.113 C 
ATOM      5  C   UNL     1       0.209  -7.090   0.238  0.00  0.00    +0.035 C 
ATOM      6  C   UNL     1       0.752  -8.520   0.186  0.00  0.00    +0.003 C 
ATOM      7  C   UNL     1       0.373  -9.255   1.472  0.00  0.00    +0.000 C 
ATOM      8  C   UNL     1       0.983  -8.532   2.674  0.00  0.00    +0.003 C 
ATOM      9  C   UNL     1       0.441  -7.101   2.736  0.00  0.00    +0.035 C 
ATOM     10  N   UNL     1       2.247  -6.228   1.313  0.00  0.00    -0.285 N 
ATOM     11  C   UNL     1       2.503  -4.905   1.290  0.00  0.00    +0.309 C 
ATOM     12  O   UNL     1       3.618  -4.435   1.184  0.00  0.00    -0.252 OA
ATOM     13  H   UNL     1       2.895  -6.946   1.250  0.00  0.00    +0.151 HD
ENDROOT
BRANCH   1  14
ATOM     14  C   UNL     1       1.372  -2.703   1.411  0.00  0.00    +0.123 C 
BRANCH  14  15
ATOM     15  C   UNL     1       1.226  -2.187  -0.022  0.00  0.00    +0.056 C 
BRANCH  15  20
ATOM     16  C   UNL     1      -0.017   1.378   0.010  0.00  0.00    +0.000 A 
ATOM     17  C   UNL     1       1.170   2.089   0.002  0.00  0.00    +0.002 A 
ATOM     18  C   UNL     1       2.377   1.420  -0.013  0.00  0.00    +0.023 A 
ATOM     19  C   UNL     1       2.400   0.031  -0.021  0.00  0.00    +0.028 A 
ATOM     20  C   UNL     1       1.207  -0.680  -0.013  0.00  0.00    -0.025 A 
ATOM     21  C   UNL     1       0.002  -0.004   0.002  0.00  0.00    +0.005 A 
BRANCH  19  22
ATOM     22  N   UNL     1       3.620  -0.649  -0.036  0.00  0.00    -0.358 N 
ATOM     23  H   UNL     1       4.452  -0.152  -0.042  0.00  0.00    +0.142 HD
ATOM     24  H   UNL     1       3.634  -1.619  -0.042  0.00  0.00    +0.142 HD
ENDBRANCH  19  22
ENDBRANCH  15  20
ENDBRANCH  14  15
ENDBRANCH   1  14
TORSDOF 4
