REMARK  Name = ZINC26675175
REMARK  10 active torsions:
REMARK  status: ('A' for Active; 'I' for Inactive)
REMARK    1  A    between atoms: C_1  and  N_2
REMARK    2  A    between atoms: N_2  and  C_3
REMARK    3  A    between atoms: N_2  and  S_27
REMARK    4  A    between atoms: C_6  and  O_25
REMARK    5  A    between atoms: C_7  and  C_9
REMARK    6  A    between atoms: C_9  and  N_10
REMARK    7  A    between atoms: N_10  and  C_11
REMARK    8  A    between atoms: C_17  and  C_19
REMARK    9  A    between atoms: O_25  and  C_26
REMARK   10  A    between atoms: S_27  and  C_30
REMARK                            x       y       z     vdW  Elec       q    Type
REMARK                         _______ _______ _______ _____ _____    ______ ____
ROOT
ATOM      1  N   UNL     1       0.083   0.329   5.621  0.00  0.00    -0.310 NA
ATOM      2  H   UNL     1       0.755  -0.394   5.830  0.00  0.00    +0.122 HD
ENDROOT
BRANCH   1   3
ATOM      3  C   UNL     1      -0.421   0.952   6.852  0.00  0.00    +0.044 C 
ATOM      4  C   UNL     1      -0.612  -0.121   7.927  0.00  0.00    +0.015 C 
ATOM      5  C   UNL     1       0.747  -0.744   8.259  0.00  0.00    -0.018 C 
ATOM      6  C   UNL     1       1.712   0.357   8.704  0.00  0.00    -0.082 C 
ATOM      7  N   UNL     1       1.872   1.338   7.624  0.00  0.00    +0.385 N 
ATOM      8  C   UNL     1       0.586   1.992   7.348  0.00  0.00    -0.024 C 
ATOM      9  H   UNL     1       2.549   2.033   7.900  0.00  0.00    -0.085 HD
ATOM     10  H   UNL     1       2.195   0.869   6.791  0.00  0.00    -0.085 HD
BRANCH   8  11
ATOM     11  C   UNL     1       0.776   3.050   6.293  0.00  0.00    -0.060 A 
ATOM     12  C   UNL     1       1.602   2.808   5.212  0.00  0.00    +0.002 A 
ATOM     13  C   UNL     1       1.776   3.779   4.243  0.00  0.00    +0.000 A 
ATOM     14  C   UNL     1       1.124   4.993   4.356  0.00  0.00    +0.000 A 
ATOM     15  C   UNL     1       0.297   5.235   5.437  0.00  0.00    +0.000 A 
ATOM     16  C   UNL     1       0.119   4.262   6.403  0.00  0.00    +0.002 A 
ENDBRANCH   8  11
ENDBRANCH   1   3
BRANCH   1  17
ATOM     17  C   UNL     1      -1.021  -0.197   4.807  0.00  0.00    +0.120 C 
BRANCH  17  22
ATOM     18  C   UNL     1       0.023  -0.710   1.210  0.00  0.00    +0.051 A 
ATOM     19  C   UNL     1       0.555  -1.992   1.256  0.00  0.00    +0.028 A 
ATOM     20  C   UNL     1       0.575  -2.688   2.449  0.00  0.00    +0.048 A 
ATOM     21  C   UNL     1       0.065  -2.107   3.600  0.00  0.00    +0.125 A 
ATOM     22  C   UNL     1      -0.466  -0.827   3.555  0.00  0.00    +0.010 A 
ATOM     23  C   UNL     1      -0.482  -0.127   2.364  0.00  0.00    +0.033 A 
BRANCH  18  25
ATOM     24  C   UNL     1      -0.018   1.461   0.010  0.00  0.00    +0.157 C 
ATOM     25  N   UNL     1       0.002  -0.004   0.002  0.00  0.00    -0.211 N 
BRANCH  25  26
ATOM     26  S   UNL     1      -0.000  -0.824  -1.437  0.00  0.00    +0.042 S 
ATOM     27  O   UNL     1      -0.583  -2.084  -1.135  0.00  0.00    -0.155 OA
ATOM     28  O   UNL     1      -0.624   0.060  -2.357  0.00  0.00    -0.155 OA
ATOM     29  C   UNL     1       1.752  -1.031  -1.858  0.00  0.00    +0.218 C 
ENDBRANCH  25  26
ENDBRANCH  18  25
BRANCH  21  30
ATOM     30  O   UNL     1       0.086  -2.793   4.774  0.00  0.00    -0.495 OA
ATOM     31  C   UNL     1       0.647  -4.107   4.748  0.00  0.00    +0.277 C 
ENDBRANCH  21  30
ENDBRANCH  17  22
ENDBRANCH   1  17
TORSDOF 7
