REMARK  Name = ZINC01396399
REMARK  3 active torsions:
REMARK  status: ('A' for Active; 'I' for Inactive)
REMARK    1  A    between atoms: C_7  and  C_8
REMARK    2  A    between atoms: N_9  and  C_10
REMARK    3  A    between atoms: C_15  and  O_16
REMARK                            x       y       z     vdW  Elec       q    Type
REMARK                         _______ _______ _______ _____ _____    ______ ____
ROOT
ATOM      1  C   UNL     1      -0.566   1.222  -0.201  0.00  0.00    +0.000 A 
ATOM      2  C   UNL     1       0.480   2.107  -0.394  0.00  0.00    +0.001 A 
ATOM      3  C   UNL     1       1.777   1.643  -0.485  0.00  0.00    +0.015 A 
ATOM      4  C   UNL     1       2.031   0.275  -0.381  0.00  0.00    +0.066 A 
ATOM      5  C   UNL     1       0.967  -0.610  -0.186  0.00  0.00    +0.012 A 
ATOM      6  C   UNL     1      -0.321  -0.137  -0.097  0.00  0.00    +0.008 A 
ATOM      7  C   UNL     1       1.574  -1.988  -0.117  0.00  0.00    +0.249 C 
ATOM      8  O   UNL     1       2.986  -1.825  -0.280  0.00  0.00    -0.447 OA
ATOM      9  C   UNL     1       3.271  -0.522  -0.434  0.00  0.00    +0.341 C 
ATOM     10  O   UNL     1       4.385  -0.066  -0.594  0.00  0.00    -0.245 OA
ENDROOT
BRANCH   7  11
ATOM     11  C   UNL     1       1.024  -2.850  -1.224  0.00  0.00    +0.133 C 
ATOM     12  N   UNL     1       1.821  -3.359  -2.104  0.00  0.00    -0.252 NA
BRANCH  12  13
ATOM     13  C   UNL     1       1.311  -4.053  -3.172  0.00  0.00    +0.105 A 
ATOM     14  C   UNL     1       0.264  -3.517  -3.921  0.00  0.00    +0.031 A 
ATOM     15  C   UNL     1      -0.245  -4.219  -4.994  0.00  0.00    +0.002 A 
ATOM     16  C   UNL     1       0.279  -5.455  -5.330  0.00  0.00    +0.004 A 
ATOM     17  C   UNL     1       1.317  -5.997  -4.595  0.00  0.00    +0.047 A 
ATOM     18  C   UNL     1       1.842  -5.300  -3.518  0.00  0.00    +0.142 A 
BRANCH  18  19
ATOM     19  O   UNL     1       2.866  -5.829  -2.799  0.00  0.00    -0.505 OA
ATOM     20  H   UNL     1       2.582  -6.378  -2.055  0.00  0.00    +0.292 HD
ENDBRANCH  18  19
ENDBRANCH  12  13
ENDBRANCH   7  11
TORSDOF 3
