REMARK  Name = ZINC04864382
REMARK  6 active torsions:
REMARK  status: ('A' for Active; 'I' for Inactive)
REMARK    1  A    between atoms: C_1  and  C_2
REMARK    2  A    between atoms: C_8  and  S_10
REMARK    3  A    between atoms: S_10  and  C_11
REMARK    4  A    between atoms: C_11  and  C_12
REMARK    5  A    between atoms: N_14  and  C_15
REMARK    6  A    between atoms: C_20  and  C_21
REMARK                            x       y       z     vdW  Elec       q    Type
REMARK                         _______ _______ _______ _____ _____    ______ ____
ROOT
ATOM      1  C   UNL     1       5.376  -1.973  -0.032  0.00  0.00    +0.227 C 
ATOM      2  O   UNL     1       5.549  -3.173  -0.045  0.00  0.00    -0.275 OA
ATOM      3  N   UNL     1       6.435  -1.139  -0.035  0.00  0.00    -0.284 N 
ATOM      4  H   UNL     1       6.298  -0.181  -0.105  0.00  0.00    +0.155 HD
ENDROOT
BRANCH   3   5
ATOM      5  C   UNL     1       7.732  -1.656   0.061  0.00  0.00    +0.045 A 
ATOM      6  C   UNL     1       7.947  -2.890   0.660  0.00  0.00    +0.025 A 
ATOM      7  C   UNL     1       9.228  -3.398   0.754  0.00  0.00    +0.022 A 
ATOM      8  C   UNL     1      10.297  -2.676   0.253  0.00  0.00    +0.042 A 
ATOM      9  C   UNL     1      10.087  -1.446  -0.344  0.00  0.00    +0.034 A 
ATOM     10  C   UNL     1       8.807  -0.937  -0.446  0.00  0.00    +0.077 A 
ATOM     11 CL   UNL     1      11.907  -3.316   0.374  0.00  0.00    -0.084 Cl
BRANCH  10  12
ATOM     12  C   UNL     1       8.577   0.401  -1.101  0.00  0.00    +0.419 C 
ATOM     13  F   UNL     1       9.801   0.927  -1.529  0.00  0.00    -0.166 F 
ATOM     14  F   UNL     1       7.728   0.241  -2.202  0.00  0.00    -0.166 F 
ATOM     15  F   UNL     1       7.989   1.276  -0.182  0.00  0.00    -0.166 F 
ENDBRANCH  10  12
ENDBRANCH   3   5
BRANCH   1  16
ATOM     16  C   UNL     1       3.977  -1.413  -0.010  0.00  0.00    +0.173 C 
BRANCH  16  17
ATOM     17  S   UNL     1       2.780  -2.777  -0.010  0.00  0.00    -0.078 S 
BRANCH  17  25
ATOM     18  C   UNL     1      -0.017   1.504   0.066  0.00  0.00    +0.066 C 
ATOM     19  C   UNL     1       0.003  -0.003   0.050  0.00  0.00    +0.046 A 
ATOM     20  C   UNL     1      -1.171  -0.700   0.057  0.00  0.00    +0.093 A 
ATOM     21  C   UNL     1      -1.127  -2.105   0.042  0.00  0.00    +0.252 A 
ATOM     22  O   UNL     1      -2.157  -2.759   0.047  0.00  0.00    -0.268 OA
ATOM     23  N   UNL     1       0.076  -2.717   0.022  0.00  0.00    -0.302 N 
ATOM     24  H   UNL     1       0.130  -3.686   0.011  0.00  0.00    +0.171 HD
ATOM     25  C   UNL     1       1.214  -1.970   0.016  0.00  0.00    +0.170 A 
ATOM     26  N   UNL     1       1.164  -0.651   0.025  0.00  0.00    -0.228 NA
ENDBRANCH  17  25
ENDBRANCH  16  17
ENDBRANCH   1  16
TORSDOF 5
