REMARK  Name = ZINC00510716
REMARK  5 active torsions:
REMARK  status: ('A' for Active; 'I' for Inactive)
REMARK    1  A    between atoms: C_1  and  C_2
REMARK    2  A    between atoms: C_5  and  C_9
REMARK    3  A    between atoms: N_11  and  N_12
REMARK    4  A    between atoms: C_13  and  C_14
REMARK    5  A    between atoms: C_15  and  C_19
REMARK                            x       y       z     vdW  Elec       q    Type
REMARK                         _______ _______ _______ _____ _____    ______ ____
ROOT
ATOM      1  C   UNL     1      -2.522   3.869   0.047  0.00  0.00    +0.263 C 
ATOM      2  O   UNL     1      -2.535   5.085   0.054  0.00  0.00    -0.268 OA
ATOM      3  N   UNL     1      -3.683   3.184   0.055  0.00  0.00    -0.203 N 
ATOM      4  H   UNL     1      -3.673   2.214   0.050  0.00  0.00    +0.178 HD
ENDROOT
BRANCH   1   9
ATOM      5  C   UNL     1       2.489   1.042  -0.016  0.00  0.00    +0.045 C 
ATOM      6  C   UNL     1       1.177   1.782   0.000  0.00  0.00    -0.036 A 
ATOM      7  C   UNL     1      -0.013   1.076   0.008  0.00  0.00    +0.005 A 
ATOM      8  C   UNL     1      -1.217   1.748   0.017  0.00  0.00    +0.013 A 
ATOM      9  C   UNL     1      -1.235   3.144   0.030  0.00  0.00    +0.039 A 
ATOM     10  C   UNL     1      -0.032   3.851   0.022  0.00  0.00    +0.028 A 
ATOM     11  C   UNL     1       1.167   3.167   0.007  0.00  0.00    +0.021 A 
ATOM     12 BR   UNL     1       2.799   4.122  -0.004  0.00  0.00    -0.050 Br
ENDBRANCH   1   9
BRANCH   3  13
ATOM     13  N   UNL     1      -4.903   3.872   0.071  0.00  0.00    -0.187 NA
ATOM     14  C   UNL     1      -6.023   3.210   0.078  0.00  0.00    +0.145 C 
BRANCH  14  15
ATOM     15  C   UNL     1      -7.300   3.930   0.095  0.00  0.00    +0.035 A 
ATOM     16  C   UNL     1      -8.588   3.422   0.099  0.00  0.00    -0.035 A 
ATOM     17  C   UNL     1      -9.639   4.309   0.120  0.00  0.00    +0.011 A 
ATOM     18  C   UNL     1      -9.384   5.643   0.125  0.00  0.00    +0.046 A 
ATOM     19  S   UNL     1      -7.600   5.690   0.107  0.00  0.00    -0.095 S 
ATOM     20  C   UNL     1      -8.832   1.935   0.086  0.00  0.00    +0.045 C 
ENDBRANCH  14  15
ENDBRANCH   3  13
TORSDOF 3
