REMARK  Name = ZINC05345845
REMARK  7 active torsions:
REMARK  status: ('A' for Active; 'I' for Inactive)
REMARK    1  A    between atoms: C_1  and  C_2
REMARK    2  A    between atoms: C_2  and  C_3
REMARK    3  A    between atoms: C_2  and  C_4
REMARK    4  A    between atoms: C_4  and  C_5
REMARK    5  A    between atoms: N_13  and  C_16
REMARK    6  A    between atoms: C_16  and  C_17
REMARK    7  A    between atoms: C_17  and  C_18
REMARK                            x       y       z     vdW  Elec       q    Type
REMARK                         _______ _______ _______ _____ _____    ______ ____
ROOT
ATOM      1  C   UNL     1      -2.050  -0.348  -1.381  0.00  0.00    -0.057 C 
ATOM      2  C   UNL     1      -3.470  -0.951  -1.424  0.00  0.00    +0.073 C 
ATOM      3  C   UNL     1      -4.324   0.091  -2.199  0.00  0.00    +0.088 C 
ATOM      4  C   UNL     1      -5.310   0.576  -1.160  0.00  0.00    +0.225 C 
ATOM      5  O   UNL     1      -6.176   1.402  -1.349  0.00  0.00    -0.275 OA
ATOM      6  N   UNL     1      -5.077  -0.050  -0.001  0.00  0.00    -0.241 N 
ATOM      7  C   UNL     1      -4.060  -0.941  -0.032  0.00  0.00    +0.224 C 
ATOM      8  O   UNL     1      -3.676  -1.620   0.896  0.00  0.00    -0.275 OA
ATOM      9  C   UNL     1      -3.336   1.210  -2.553  0.00  0.00    +0.050 C 
ATOM     10  N   UNL     1      -2.248   1.116  -1.552  0.00  0.00    +0.394 N 
ATOM     11  C   UNL     1      -2.829   1.071  -3.961  0.00  0.00    -0.028 A 
ATOM     12  C   UNL     1      -2.144   0.080  -4.628  0.00  0.00    +0.004 A 
ATOM     13  C   UNL     1      -1.808   0.246  -5.960  0.00  0.00    +0.000 A 
ATOM     14  C   UNL     1      -2.161   1.411  -6.618  0.00  0.00    +0.002 A 
ATOM     15  C   UNL     1      -2.846   2.406  -5.953  0.00  0.00    +0.023 A 
ATOM     16  C   UNL     1      -3.188   2.247  -4.612  0.00  0.00    +0.036 A 
ATOM     17  N   UNL     1      -3.868   3.096  -3.736  0.00  0.00    -0.286 N 
ATOM     18  C   UNL     1      -3.995   2.561  -2.507  0.00  0.00    +0.211 C 
ATOM     19  O   UNL     1      -4.537   3.070  -1.548  0.00  0.00    -0.277 OA
ATOM     20  H   UNL     1      -2.523   1.539  -0.678  0.00  0.00    -0.083 HD
ATOM     21  H   UNL     1      -4.208   3.970  -3.985  0.00  0.00    +0.155 HD
ATOM     22  H   UNL     1      -1.408   1.547  -1.906  0.00  0.00    -0.083 HD
ENDROOT
BRANCH   1  23
ATOM     23  C   UNL     1      -1.388  -0.642  -0.033  0.00  0.00    -0.012 C 
BRANCH  23  25
ATOM     24  C   UNL     1       0.638  -0.230   1.369  0.00  0.00    +0.007 C 
ATOM     25  C   UNL     1       0.029  -0.065  -0.024  0.00  0.00    -0.019 C 
ATOM     26  C   UNL     1       0.888  -0.808  -1.048  0.00  0.00    +0.007 C 
ENDBRANCH  23  25
ENDBRANCH   1  23
BRANCH   6  27
ATOM     27  C   UNL     1      -5.866   0.203   1.208  0.00  0.00    +0.121 C 
BRANCH  27  28
ATOM     28  C   UNL     1      -7.059  -0.754   1.248  0.00  0.00    +0.054 C 
BRANCH  28  29
ATOM     29  C   UNL     1      -7.870  -0.494   2.491  0.00  0.00    -0.046 A 
ATOM     30  C   UNL     1      -7.577  -1.169   3.662  0.00  0.00    +0.004 A 
ATOM     31  C   UNL     1      -8.321  -0.931   4.802  0.00  0.00    +0.000 A 
ATOM     32  C   UNL     1      -9.358  -0.017   4.772  0.00  0.00    +0.000 A 
ATOM     33  C   UNL     1      -9.650   0.659   3.602  0.00  0.00    +0.000 A 
ATOM     34  C   UNL     1      -8.903   0.423   2.463  0.00  0.00    +0.004 A 
ENDBRANCH  28  29
ENDBRANCH  27  28
ENDBRANCH   6  27
TORSDOF 5
