REMARK  Name = ZINC00552813
REMARK  8 active torsions:
REMARK  status: ('A' for Active; 'I' for Inactive)
REMARK    1  A    between atoms: C_1  and  C_2
REMARK    2  A    between atoms: C_4  and  C_25
REMARK    3  A    between atoms: C_5  and  N_9
REMARK    4  A    between atoms: C_6  and  C_8
REMARK    5  A    between atoms: C_13  and  C_17
REMARK    6  A    between atoms: C_17  and  N_18
REMARK    7  A    between atoms: C_19  and  C_24
REMARK    8  A    between atoms: C_21  and  C_23
REMARK                            x       y       z     vdW  Elec       q    Type
REMARK                         _______ _______ _______ _____ _____    ______ ____
ROOT
ATOM      1  N   UNL     1      -0.474  -4.729  -0.374  0.00  0.00    -0.210 N 
ATOM      2  C   UNL     1      -1.445  -5.633  -0.558  0.00  0.00    +0.227 C 
ATOM      3  O   UNL     1      -2.627  -5.385  -0.652  0.00  0.00    -0.275 OA
ATOM      4  C   UNL     1      -0.831  -7.015  -0.629  0.00  0.00    +0.111 C 
ATOM      5  C   UNL     1       0.678  -6.750  -0.454  0.00  0.00    +0.106 C 
ATOM      6  C   UNL     1       0.759  -5.246  -0.307  0.00  0.00    +0.232 C 
ATOM      7  O   UNL     1       1.779  -4.609  -0.150  0.00  0.00    -0.274 OA
ENDROOT
BRANCH   1  12
ATOM      8  C   UNL     1      -1.504   0.835   0.058  0.00  0.00    +0.044 C 
ATOM      9  C   UNL     1      -1.231  -0.642  -0.057  0.00  0.00    -0.050 A 
ATOM     10  C   UNL     1      -0.993  -1.206  -1.297  0.00  0.00    +0.008 A 
ATOM     11  C   UNL     1      -0.742  -2.559  -1.405  0.00  0.00    -0.028 A 
ATOM     12  C   UNL     1      -0.728  -3.355  -0.267  0.00  0.00    +0.050 A 
ATOM     13  C   UNL     1      -0.967  -2.786   0.977  0.00  0.00    -0.028 A 
ATOM     14  C   UNL     1      -1.213  -1.431   1.079  0.00  0.00    +0.008 A 
ATOM     15  C   UNL     1      -0.954  -3.646   2.214  0.00  0.00    +0.046 C 
ATOM     16  C   UNL     1      -0.483  -3.173  -2.757  0.00  0.00    +0.046 C 
ENDBRANCH   1  12
BRANCH   5  17
ATOM     17  C   UNL     1       1.454  -7.211  -1.689  0.00  0.00    +0.157 C 
BRANCH  17  18
ATOM     18  N   UNL     1       2.891  -7.077  -1.442  0.00  0.00    -0.268 N 
ATOM     19  C   UNL     1       3.679  -7.983  -0.827  0.00  0.00    +0.036 A 
ATOM     20  C   UNL     1       4.937  -7.484  -0.797  0.00  0.00    +0.047 A 
ATOM     21  C   UNL     1       4.916  -6.229  -1.415  0.00  0.00    +0.060 A 
ATOM     22  N   UNL     1       3.692  -5.986  -1.807  0.00  0.00    -0.176 NA
ATOM     23  C   UNL     1       6.101  -5.317  -1.602  0.00  0.00    +0.067 C 
ATOM     24  C   UNL     1       3.238  -9.313  -0.273  0.00  0.00    +0.065 C 
ENDBRANCH  17  18
ENDBRANCH   5  17
TORSDOF 3
