REMARK  Name = ZINC13612542
REMARK  5 active torsions:
REMARK  status: ('A' for Active; 'I' for Inactive)
REMARK    1  A    between atoms: C_3  and  C_6
REMARK    2  A    between atoms: N_16  and  C_17
REMARK    3  A    between atoms: C_17  and  C_18
REMARK    4  A    between atoms: N_23  and  C_24
REMARK    5  A    between atoms: C_24  and  C_25
REMARK                            x       y       z     vdW  Elec       q    Type
REMARK                         _______ _______ _______ _____ _____    ______ ____
ROOT
ATOM      1  C   UNL     1       3.263   1.431   0.600  0.00  0.00    +0.219 A 
ATOM      2  N   UNL     1       4.231   2.357   0.608  0.00  0.00    -0.186 NA
ATOM      3  C   UNL     1       5.383   1.799   0.277  0.00  0.00    +0.259 A 
ATOM      4  N   UNL     1       6.630   2.273   0.141  0.00  0.00    -0.179 NA
ATOM      5  C   UNL     1       7.614   1.462  -0.210  0.00  0.00    +0.199 A 
ATOM      6  N   UNL     1       7.394   0.164  -0.435  0.00  0.00    -0.300 N 
ATOM      7  C   UNL     1       6.181  -0.345  -0.312  0.00  0.00    +0.197 A 
ATOM      8  N   UNL     1       5.147   0.469   0.049  0.00  0.00    -0.166 N 
ATOM      9  N   UNL     1       3.780   0.263   0.269  0.00  0.00    -0.138 NA
ATOM     10  N   UNL     1       5.963  -1.678  -0.545  0.00  0.00    -0.329 N 
ATOM     11  N   UNL     1       8.891   1.966  -0.346  0.00  0.00    -0.316 N 
ATOM     12  H   UNL     1       6.702  -2.252  -0.802  0.00  0.00    +0.145 HD
ATOM     13  H   UNL     1       5.071  -2.047  -0.453  0.00  0.00    +0.145 HD
ATOM     14  H   UNL     1       9.619   1.378  -0.603  0.00  0.00    +0.149 HD
ATOM     15  H   UNL     1       8.132  -0.411  -0.692  0.00  0.00    +0.171 HD
ENDROOT
BRANCH   1  18
ATOM     16  C   UNL     1      -0.078   2.650   1.472  0.00  0.00    +0.042 A 
ATOM     17  C   UNL     1       1.296   2.876   1.258  0.00  0.00    +0.053 A 
ATOM     18  C   UNL     1       1.841   1.678   0.917  0.00  0.00    +0.173 A 
ATOM     19  O   UNL     1       0.860   0.755   0.918  0.00  0.00    -0.460 OA
ATOM     20  C   UNL     1      -0.301   1.339   1.253  0.00  0.00    +0.196 A 
ENDBRANCH   1  18
BRANCH  11  21
ATOM     21  C   UNL     1       9.148   3.387  -0.103  0.00  0.00    +0.089 C 
BRANCH  21  22
ATOM     22  C   UNL     1      10.652   3.654  -0.178  0.00  0.00    -0.051 C 
ATOM     23  C   UNL     1      10.921   5.172  -0.102  0.00  0.00    -0.016 C 
ATOM     24  C   UNL     1      12.204   5.257   0.767  0.00  0.00    -0.020 C 
ATOM     25  C   UNL     1      11.981   4.096   1.768  0.00  0.00    -0.078 C 
ATOM     26  N   UNL     1      11.330   3.029   0.973  0.00  0.00    +0.385 N 
ATOM     27  H   UNL     1      12.025   2.376   0.643  0.00  0.00    -0.081 HD
BRANCH  26  28
ATOM     28  C   UNL     1      10.345   2.322   1.803  0.00  0.00    -0.040 C 
BRANCH  28  29
ATOM     29  C   UNL     1      11.050   1.634   2.943  0.00  0.00    -0.024 A 
ATOM     30  C   UNL     1      11.693   0.420   2.751  0.00  0.00    +0.062 A 
ATOM     31  C   UNL     1      12.330  -0.182   3.822  0.00  0.00    +0.131 A 
ATOM     32  N   UNL     1      12.331   0.386   5.012  0.00  0.00    -0.260 NA
ATOM     33  C   UNL     1      11.730   1.539   5.231  0.00  0.00    +0.131 A 
ATOM     34  C   UNL     1      11.078   2.203   4.208  0.00  0.00    +0.062 A 
ATOM     35 CL   UNL     1      10.296   3.724   4.505  0.00  0.00    -0.082 Cl
ATOM     36 CL   UNL     1      11.697  -0.336   1.188  0.00  0.00    -0.082 Cl
ENDBRANCH  28  29
ENDBRANCH  26  28
ENDBRANCH  21  22
ENDBRANCH  11  21
TORSDOF 5
