REMARK  Name = ZINC46743464
REMARK  6 active torsions:
REMARK  status: ('A' for Active; 'I' for Inactive)
REMARK    1  A    between atoms: C_1  and  C_2
REMARK    2  A    between atoms: C_7  and  N_10
REMARK    3  A    between atoms: C_11  and  C_13
REMARK    4  A    between atoms: N_16  and  S_19
REMARK    5  A    between atoms: S_19  and  C_22
REMARK    6  A    between atoms: C_27  and  C_28
REMARK                            x       y       z     vdW  Elec       q    Type
REMARK                         _______ _______ _______ _____ _____    ______ ____
ROOT
ATOM      1  C   UNL     1       2.739  -4.213  -1.222  0.00  0.00    +0.077 C 
ATOM      2  C   UNL     1       1.745  -4.270  -2.385  0.00  0.00    +0.030 C 
ATOM      3  C   UNL     1       2.474  -4.731  -3.651  0.00  0.00    +0.110 C 
ATOM      4  N   UNL     1       3.148  -6.006  -3.372  0.00  0.00    -0.177 NA
ATOM      5  C   UNL     1       4.057  -6.086  -2.220  0.00  0.00    +0.110 C 
ATOM      6  C   UNL     1       3.311  -5.610  -0.969  0.00  0.00    +0.030 C 
ENDROOT
BRANCH   1   8
ATOM      7  N   UNL     1       1.448  -2.513   0.028  0.00  0.00    -0.312 N 
ATOM      8  C   UNL     1       2.034  -3.727   0.018  0.00  0.00    +0.216 C 
ATOM      9  O   UNL     1       1.992  -4.429   1.006  0.00  0.00    -0.276 OA
ATOM     10  H   UNL     1       1.482  -1.952  -0.763  0.00  0.00    +0.149 HD
BRANCH   7  16
ATOM     11  C   UNL     1      -0.019   1.526   0.010  0.00  0.00    +0.007 C 
ATOM     12  C   UNL     1       0.002  -0.004   0.002  0.00  0.00    -0.012 C 
ATOM     13  C   UNL     1      -1.433  -0.534   0.013  0.00  0.00    +0.003 C 
ATOM     14  C   UNL     1      -1.413  -2.063   0.004  0.00  0.00    +0.002 C 
ATOM     15  C   UNL     1      -0.673  -2.570   1.244  0.00  0.00    +0.022 C 
ATOM     16  C   UNL     1       0.763  -2.041   1.233  0.00  0.00    +0.073 C 
ATOM     17  C   UNL     1       0.742  -0.511   1.242  0.00  0.00    +0.025 C 
ENDBRANCH   7  16
ENDBRANCH   1   8
BRANCH   4  18
ATOM     18  S   UNL     1       2.889  -7.327  -4.335  0.00  0.00    +0.062 S 
ATOM     19  O   UNL     1       3.185  -8.471  -3.545  0.00  0.00    -0.153 OA
ATOM     20  O   UNL     1       1.625  -7.136  -4.955  0.00  0.00    -0.153 OA
BRANCH  18  21
ATOM     21  C   UNL     1       4.093  -7.279  -5.621  0.00  0.00    +0.123 A 
ATOM     22  C   UNL     1       5.050  -8.268  -5.710  0.00  0.00    +0.030 A 
ATOM     23  C   UNL     1       5.996  -8.231  -6.718  0.00  0.00    +0.002 A 
ATOM     24  C   UNL     1       5.990  -7.203  -7.644  0.00  0.00    +0.001 A 
ATOM     25  C   UNL     1       5.039  -6.207  -7.567  0.00  0.00    +0.021 A 
ATOM     26  C   UNL     1       4.077  -6.242  -6.556  0.00  0.00    +0.078 A 
BRANCH  26  27
ATOM     27  C   UNL     1       3.083  -5.215  -6.473  0.00  0.00    +0.101 C 
ATOM     28  N   UNL     1       2.294  -4.400  -6.408  0.00  0.00    -0.191 NA
ENDBRANCH  26  27
ENDBRANCH  18  21
ENDBRANCH   4  18
TORSDOF 5
