REMARK  Name = ZINC66948775
REMARK  7 active torsions:
REMARK  status: ('A' for Active; 'I' for Inactive)
REMARK    1  A    between atoms: C_1  and  N_2
REMARK    2  A    between atoms: N_2  and  C_3
REMARK    3  A    between atoms: N_2  and  C_4
REMARK    4  A    between atoms: C_4  and  C_5
REMARK    5  A    between atoms: C_12  and  C_14
REMARK    6  A    between atoms: C_14  and  C_15
REMARK    7  A    between atoms: C_15  and  N_16
REMARK                            x       y       z     vdW  Elec       q    Type
REMARK                         _______ _______ _______ _____ _____    ______ ____
ROOT
ATOM      1  C   UNL     1      -0.506   3.512  -0.799  0.00  0.00    +0.115 C 
ENDROOT
BRANCH   1   8
ATOM      2  C   UNL     1      -2.017   0.005  -1.153  0.00  0.00    +0.059 C 
ATOM      3  C   UNL     1      -3.523  -0.202  -0.971  0.00  0.00    +0.021 C 
ATOM      4  C   UNL     1      -4.268   0.441  -2.144  0.00  0.00    +0.003 C 
ATOM      5  C   UNL     1      -3.986   1.945  -2.166  0.00  0.00    +0.019 C 
ATOM      6  C   UNL     1      -2.484   2.176  -2.361  0.00  0.00    +0.108 C 
ATOM      7  N   UNL     1      -1.750   1.440  -1.323  0.00  0.00    -0.300 N 
ATOM      8  C   UNL     1      -0.853   2.069  -0.538  0.00  0.00    +0.217 C 
ATOM      9  O   UNL     1      -0.326   1.474   0.378  0.00  0.00    -0.276 OA
BRANCH   2  10
ATOM     10  C   UNL     1      -1.275  -0.512   0.082  0.00  0.00    -0.057 C 
BRANCH  10  12
ATOM     11  C   UNL     1      -0.914  -2.677  -0.887  0.00  0.00    -0.097 C 
ATOM     12  N   UNL     1      -1.524  -1.952   0.235  0.00  0.00    +0.377 N 
ATOM     13  C   UNL     1      -0.936  -2.418   1.498  0.00  0.00    -0.097 C 
ATOM     14  H   UNL     1      -2.519  -2.122   0.244  0.00  0.00    -0.083 HD
ENDBRANCH  10  12
ENDBRANCH   2  10
ENDBRANCH   1   8
BRANCH   1  15
ATOM     15  C   UNL     1       0.528   3.981   0.227  0.00  0.00    +0.127 C 
BRANCH  15  16
ATOM     16  N   UNL     1       0.866   5.384  -0.027  0.00  0.00    -0.224 N 
ATOM     17  C   UNL     1       1.860   5.788  -0.844  0.00  0.00    +0.247 C 
ATOM     18  O   UNL     1       2.615   5.088  -1.485  0.00  0.00    -0.273 OA
ATOM     19  C   UNL     1       1.834   7.299  -0.794  0.00  0.00    +0.113 C 
ATOM     20  C   UNL     1       3.153   7.835  -0.248  0.00  0.00    +0.035 C 
ATOM     21  C   UNL     1       3.094   9.364  -0.177  0.00  0.00    +0.003 C 
ATOM     22  C   UNL     1       2.834   9.928  -1.575  0.00  0.00    +0.000 C 
ATOM     23  C   UNL     1       1.497   9.400  -2.099  0.00  0.00    +0.003 C 
ATOM     24  C   UNL     1       1.549   7.872  -2.178  0.00  0.00    +0.035 C 
ATOM     25  N   UNL     1       0.733   7.606   0.127  0.00  0.00    -0.285 N 
ATOM     26  C   UNL     1       0.224   6.423   0.520  0.00  0.00    +0.309 C 
ATOM     27  O   UNL     1      -0.712   6.311   1.288  0.00  0.00    -0.252 OA
ATOM     28  H   UNL     1       0.429   8.487   0.396  0.00  0.00    +0.151 HD
ENDBRANCH  15  16
ENDBRANCH   1  15
TORSDOF 5
