REMARK  Name = ZINC61823897
REMARK  2 active torsions:
REMARK  status: ('A' for Active; 'I' for Inactive)
REMARK    1  A    between atoms: C_1  and  C_2
REMARK    2  A    between atoms: C_2  and  C_4
REMARK                            x       y       z     vdW  Elec       q    Type
REMARK                         _______ _______ _______ _____ _____    ______ ____
ROOT
ATOM      1  C   UNL     1       0.728  -0.506   1.224  0.00  0.00    +0.238 C 
ATOM      2  O   UNL     1       0.497  -0.018   2.309  0.00  0.00    -0.274 OA
ATOM      3  N   UNL     1       1.638  -1.494   1.108  0.00  0.00    -0.239 N 
ATOM      4  C   UNL     1       2.290  -1.940   2.200  0.00  0.00    +0.308 C 
ATOM      5  O   UNL     1       2.128  -1.390   3.272  0.00  0.00    -0.252 OA
ATOM      6  N   UNL     1       3.122  -2.996   2.103  0.00  0.00    -0.285 N 
ATOM      7  C   UNL     1       3.418  -3.598   0.797  0.00  0.00    +0.110 C 
ATOM      8  C   UNL     1       3.126  -5.100   0.869  0.00  0.00    +0.026 C 
ATOM      9  C   UNL     1       3.907  -5.713   2.035  0.00  0.00    -0.026 C 
ATOM     10  C   UNL     1       5.403  -5.465   1.833  0.00  0.00    +0.007 C 
ATOM     11  C   UNL     1       6.184  -6.080   2.995  0.00  0.00    +0.001 C 
ATOM     12  C   UNL     1       5.919  -7.586   3.048  0.00  0.00    +0.000 C 
ATOM     13  C   UNL     1       4.423  -7.833   3.252  0.00  0.00    +0.001 C 
ATOM     14  C   UNL     1       3.642  -7.219   2.089  0.00  0.00    +0.007 C 
ATOM     15  C   UNL     1       3.455  -5.068   3.347  0.00  0.00    +0.026 C 
ATOM     16  C   UNL     1       3.755  -3.562   3.302  0.00  0.00    +0.110 C 
ATOM     17  H   UNL     1       1.823  -1.884   0.240  0.00  0.00    +0.159 HD
ENDROOT
BRANCH   1  19
ATOM     18  C   UNL     1      -0.025   1.522   0.013  0.00  0.00    +0.034 C 
ATOM     19  C   UNL     1      -0.002  -0.007   0.003  0.00  0.00    +0.163 C 
ATOM     20 CL   UNL     1      -1.692  -0.635   0.015  0.00  0.00    -0.112 Cl
ENDBRANCH   1  19
TORSDOF 1
