REMARK  Name = ZINC20548963
REMARK  8 active torsions:
REMARK  status: ('A' for Active; 'I' for Inactive)
REMARK    1  A    between atoms: C_1  and  C_2
REMARK    2  A    between atoms: C_2  and  C_3
REMARK    3  A    between atoms: C_3  and  C_4
REMARK    4  A    between atoms: C_4  and  N_5
REMARK    5  A    between atoms: C_10  and  C_28
REMARK    6  A    between atoms: C_28  and  C_29
REMARK    7  A    between atoms: C_29  and  C_30
REMARK    8  A    between atoms: C_29  and  C_31
REMARK                            x       y       z     vdW  Elec       q    Type
REMARK                         _______ _______ _______ _____ _____    ______ ____
ROOT
ATOM      1  N   UNL     1       1.609  -2.274   2.554  0.00  0.00    -0.242 N 
ATOM      2  C   UNL     1       2.906  -2.600   2.506  0.00  0.00    +0.227 C 
ATOM      3  O   UNL     1       3.614  -2.513   1.526  0.00  0.00    -0.275 OA
ATOM      4  C   UNL     1       3.351  -3.093   3.864  0.00  0.00    +0.107 C 
ATOM      5  C   UNL     1       3.664  -4.602   3.777  0.00  0.00    +0.068 C 
ATOM      6  N   UNL     1       3.002  -5.198   4.968  0.00  0.00    -0.295 NA
ATOM      7  C   UNL     1       1.731  -4.458   5.082  0.00  0.00    +0.136 C 
ATOM      8  C   UNL     1       2.060  -2.988   4.723  0.00  0.00    +0.122 C 
ATOM      9  C   UNL     1       1.036  -2.449   3.750  0.00  0.00    +0.228 C 
ATOM     10  O   UNL     1      -0.124  -2.216   4.012  0.00  0.00    -0.275 OA
ATOM     11  C   UNL     1       0.676  -5.033   4.181  0.00  0.00    +0.005 A 
ATOM     12  C   UNL     1       0.592  -5.221   2.819  0.00  0.00    +0.008 A 
ATOM     13  C   UNL     1      -0.540  -5.794   2.267  0.00  0.00    +0.002 A 
ATOM     14  C   UNL     1      -1.587  -6.177   3.086  0.00  0.00    +0.022 A 
ATOM     15  C   UNL     1      -1.508  -5.990   4.451  0.00  0.00    +0.062 A 
ATOM     16  C   UNL     1      -0.371  -5.413   5.015  0.00  0.00    +0.057 A 
ATOM     17  N   UNL     1      -0.058  -5.125   6.345  0.00  0.00    -0.282 N 
ATOM     18  C   UNL     1       1.160  -4.563   6.470  0.00  0.00    +0.243 C 
ATOM     19  O   UNL     1       1.692  -4.209   7.501  0.00  0.00    -0.273 OA
ATOM     20 CL   UNL     1      -2.829  -6.474   5.469  0.00  0.00    -0.082 Cl
ATOM     21  H   UNL     1       2.835  -6.184   4.833  0.00  0.00    +0.123 HD
ATOM     22  H   UNL     1      -0.648  -5.308   7.093  0.00  0.00    +0.155 HD
ENDROOT
BRANCH   1  23
ATOM     23  C   UNL     1       0.877  -1.762   1.392  0.00  0.00    +0.116 C 
BRANCH  23  24
ATOM     24  C   UNL     1       0.981  -0.235   1.357  0.00  0.00    +0.019 C 
BRANCH  24  26
ATOM     25  C   UNL     1       0.321   1.826   0.109  0.00  0.00    +0.004 C 
ATOM     26  C   UNL     1       0.217   0.300   0.144  0.00  0.00    -0.002 C 
ENDBRANCH  24  26
ENDBRANCH  23  24
ENDBRANCH   1  23
BRANCH   5  27
ATOM     27  C   UNL     1       5.175  -4.837   3.832  0.00  0.00    +0.022 C 
BRANCH  27  28
ATOM     28  C   UNL     1       5.829  -4.240   2.584  0.00  0.00    -0.016 C 
ATOM     29  C   UNL     1       7.351  -4.341   2.709  0.00  0.00    +0.007 C 
ATOM     30  C   UNL     1       5.367  -5.012   1.347  0.00  0.00    +0.007 C 
ENDBRANCH  27  28
ENDBRANCH   5  27
TORSDOF 5
