REMARK  Name = ZINC59855216
REMARK  8 active torsions:
REMARK  status: ('A' for Active; 'I' for Inactive)
REMARK    1  A    between atoms: C_1  and  C_2
REMARK    2  A    between atoms: C_2  and  C_3
REMARK    3  A    between atoms: C_2  and  C_4
REMARK    4  A    between atoms: C_7  and  C_10
REMARK    5  A    between atoms: N_12  and  C_13
REMARK    6  A    between atoms: C_14  and  C_18
REMARK    7  A    between atoms: N_20  and  C_21
REMARK    8  A    between atoms: C_21  and  C_22
REMARK                            x       y       z     vdW  Elec       q    Type
REMARK                         _______ _______ _______ _____ _____    ______ ____
ROOT
ATOM      1  C   UNL     1      -7.134  -3.257  -0.954  0.00  0.00    +0.084 A 
ATOM      2  C   UNL     1      -7.750  -4.069  -1.895  0.00  0.00    +0.065 A 
ATOM      3  C   UNL     1      -9.127  -4.426  -1.638  0.00  0.00    +0.022 A 
ATOM      4  C   UNL     1      -9.661  -3.927  -0.507  0.00  0.00    +0.048 A 
ATOM      5  S   UNL     1      -8.321  -2.996   0.202  0.00  0.00    -0.081 S 
ENDROOT
BRANCH   1   8
ATOM      6  C   UNL     1      -5.396  -1.997   0.044  0.00  0.00    +0.249 C 
ATOM      7  O   UNL     1      -6.141  -1.715   0.962  0.00  0.00    -0.270 OA
ATOM      8  N   UNL     1      -5.834  -2.777  -0.965  0.00  0.00    -0.275 N 
ATOM      9  H   UNL     1      -5.240  -3.002  -1.697  0.00  0.00    +0.156 HD
BRANCH   6  13
ATOM     10  C   UNL     1      -1.412  -0.526   0.013  0.00  0.00    -0.045 A 
ATOM     11  C   UNL     1      -2.257  -0.202   1.059  0.00  0.00    +0.004 A 
ATOM     12  C   UNL     1      -3.553  -0.677   1.075  0.00  0.00    +0.013 A 
ATOM     13  C   UNL     1      -4.010  -1.485   0.033  0.00  0.00    +0.037 A 
ATOM     14  C   UNL     1      -3.151  -1.807  -1.020  0.00  0.00    +0.013 A 
ATOM     15  C   UNL     1      -1.860  -1.321  -1.027  0.00  0.00    +0.004 A 
BRANCH  10  17
ATOM     16  C   UNL     1      -0.019   1.526   0.010  0.00  0.00    +0.012 C 
ATOM     17  C   UNL     1       0.002  -0.004   0.002  0.00  0.00    +0.013 C 
ATOM     18  C   UNL     1       0.742  -0.511   1.242  0.00  0.00    +0.012 C 
ENDBRANCH  10  17
ENDBRANCH   6  13
ENDBRANCH   1   8
BRANCH   2  19
ATOM     19  C   UNL     1      -7.042  -4.542  -3.089  0.00  0.00    +0.247 C 
ATOM     20  O   UNL     1      -5.882  -4.222  -3.275  0.00  0.00    -0.270 OA
ATOM     21  N   UNL     1      -7.675  -5.330  -3.980  0.00  0.00    -0.304 N 
ATOM     22  H   UNL     1      -8.599  -5.585  -3.832  0.00  0.00    +0.149 HD
BRANCH  21  23
ATOM     23  C   UNL     1      -6.967  -5.801  -5.173  0.00  0.00    +0.181 C 
BRANCH  23  24
ATOM     24  C   UNL     1      -7.891  -6.658  -5.999  0.00  0.00    +0.151 A 
ATOM     25  N   UNL     1      -8.050  -7.949  -5.894  0.00  0.00    -0.133 NA
ATOM     26  N   UNL     1      -8.915  -8.351  -6.756  0.00  0.00    -0.134 NA
ATOM     27  C   UNL     1      -9.346  -7.332  -7.452  0.00  0.00    +0.134 A 
ATOM     28  N   UNL     1      -8.716  -6.231  -6.987  0.00  0.00    -0.313 N 
ATOM     29  C   UNL     1      -9.151  -5.027  -7.707  0.00  0.00    +0.125 C 
ATOM     30  C   UNL     1      -9.833  -5.539  -8.995  0.00  0.00    +0.029 C 
ATOM     31  C   UNL     1     -10.287  -6.953  -8.575  0.00  0.00    +0.078 C 
ENDBRANCH  23  24
ENDBRANCH  21  23
ENDBRANCH   2  19
TORSDOF 6
