REMARK  Name = ZINC19569255
REMARK  10 active torsions:
REMARK  status: ('A' for Active; 'I' for Inactive)
REMARK    1  A    between atoms: C_1  and  O_2
REMARK    2  A    between atoms: O_2  and  C_3
REMARK    3  A    between atoms: C_8  and  C_9
REMARK    4  A    between atoms: C_9  and  O_30
REMARK    5  A    between atoms: N_12  and  C_15
REMARK    6  A    between atoms: C_15  and  C_16
REMARK    7  A    between atoms: C_19  and  O_28
REMARK    8  A    between atoms: C_22  and  O_26
REMARK    9  A    between atoms: O_26  and  C_27
REMARK   10  A    between atoms: O_28  and  C_29
REMARK                            x       y       z     vdW  Elec       q    Type
REMARK                         _______ _______ _______ _____ _____    ______ ____
ROOT
ATOM      1  C   UNL     1       4.886   1.923   3.401  0.00  0.00    +0.091 C 
ATOM      2  C   UNL     1       4.672   0.466   2.983  0.00  0.00    +0.021 C 
ATOM      3  C   UNL     1       4.266   0.417   1.508  0.00  0.00    -0.075 C 
ATOM      4  N   UNL     1       3.031   1.188   1.314  0.00  0.00    +0.383 N 
ATOM      5  C   UNL     1       3.226   2.600   1.664  0.00  0.00    -0.075 C 
ATOM      6  C   UNL     1       3.600   2.714   3.143  0.00  0.00    +0.021 C 
ATOM      7  H   UNL     1       2.269   0.776   1.992  0.00  0.00    -0.081 HD
ENDROOT
BRANCH   1  13
ATOM      8  C   UNL     1       4.331   1.497   5.809  0.00  0.00    +0.126 A 
ATOM      9  C   UNL     1       4.650   1.548   7.158  0.00  0.00    +0.046 A 
ATOM     10  C   UNL     1       5.855   2.090   7.562  0.00  0.00    +0.004 A 
ATOM     11  C   UNL     1       6.745   2.576   6.622  0.00  0.00    +0.001 A 
ATOM     12  C   UNL     1       6.431   2.522   5.276  0.00  0.00    +0.010 A 
ATOM     13  C   UNL     1       5.227   1.981   4.868  0.00  0.00    +0.025 A 
BRANCH   8  15
ATOM     14  C   UNL     1       2.270   0.490   6.434  0.00  0.00    +0.277 C 
ATOM     15  O   UNL     1       3.144   0.970   5.410  0.00  0.00    -0.495 OA
ENDBRANCH   8  15
ENDBRANCH   1  13
BRANCH   1  16
ATOM     16  O   UNL     1       5.955   2.487   2.638  0.00  0.00    -0.384 OA
ATOM     17  H   UNL     1       5.883   2.531   1.541  0.00  0.00    +0.211 HD
ENDBRANCH   1  16
BRANCH   4  18
ATOM     18  C   UNL     1       2.536   1.049  -0.062  0.00  0.00    -0.042 C 
BRANCH  18  19
ATOM     19  C   UNL     1       1.119   1.556  -0.140  0.00  0.00    -0.053 A 
ATOM     20  C   UNL     1       0.853   2.756  -0.728  0.00  0.00    +0.006 A 
ATOM     21  C   UNL     1      -0.448   3.245  -0.805  0.00  0.00    +0.046 A 
ATOM     22  C   UNL     1      -1.498   2.529  -0.303  0.00  0.00    +0.128 A 
ATOM     23  C   UNL     1      -1.259   1.284   0.313  0.00  0.00    +0.027 A 
ATOM     24  C   UNL     1       0.068   0.794   0.394  0.00  0.00    +0.029 A 
ATOM     25  C   UNL     1       0.307  -0.452   1.010  0.00  0.00    +0.128 A 
ATOM     26  C   UNL     1      -0.743  -1.164   1.519  0.00  0.00    +0.046 A 
ATOM     27  C   UNL     1      -2.045  -0.677   1.437  0.00  0.00    +0.004 A 
ATOM     28  C   UNL     1      -2.310   0.521   0.848  0.00  0.00    +0.012 A 
BRANCH  25  29
ATOM     29  O   UNL     1       1.571  -0.940   1.098  0.00  0.00    -0.494 OA
ATOM     30  C   UNL     1       1.722  -2.257   1.631  0.00  0.00    +0.277 C 
ENDBRANCH  25  29
BRANCH  22  31
ATOM     31  O   UNL     1      -2.762   3.017  -0.390  0.00  0.00    -0.495 OA
ATOM     32  C   UNL     1      -2.925   4.285  -1.028  0.00  0.00    +0.277 C 
ENDBRANCH  22  31
ENDBRANCH  18  19
ENDBRANCH   4  18
TORSDOF 7
