REMARK  Name = ZINC19171807
REMARK  6 active torsions:
REMARK  status: ('A' for Active; 'I' for Inactive)
REMARK    1  A    between atoms: C_1  and  O_2
REMARK    2  A    between atoms: O_2  and  C_3
REMARK    3  A    between atoms: C_5  and  C_10
REMARK    4  A    between atoms: C_8  and  O_9
REMARK    5  A    between atoms: N_21  and  C_23
REMARK    6  A    between atoms: C_23  and  C_24
REMARK                            x       y       z     vdW  Elec       q    Type
REMARK                         _______ _______ _______ _____ _____    ______ ____
ROOT
ATOM      1  C   UNL     1      -4.871   0.257   0.037  0.00  0.00    +0.114 C 
ATOM      2  C   UNL     1      -5.530   0.188   1.394  0.00  0.00    +0.125 C 
ATOM      3  C   UNL     1      -6.340  -1.153   1.198  0.00  0.00    +0.173 C 
ATOM      4  C   UNL     1      -6.774  -1.386   2.571  0.00  0.00    +0.239 C 
ATOM      5  O   UNL     1      -7.821  -1.872   2.940  0.00  0.00    -0.274 OA
ATOM      6  N   UNL     1      -5.742  -0.938   3.355  0.00  0.00    -0.255 N 
ATOM      7  C   UNL     1      -4.840  -0.155   2.662  0.00  0.00    +0.226 C 
ATOM      8  O   UNL     1      -3.725   0.177   3.004  0.00  0.00    -0.275 OA
ATOM      9  N   UNL     1      -6.996  -0.889  -0.035  0.00  0.00    -0.225 NA
ATOM     10  N   UNL     1      -5.882  -0.349  -0.888  0.00  0.00    -0.245 NA
ATOM     11  H   UNL     1      -5.657  -1.140   4.300  0.00  0.00    +0.158 HD
ATOM     12  H   UNL     1      -6.231   0.337  -1.541  0.00  0.00    +0.142 HD
ENDROOT
BRANCH   1  15
ATOM     13  C   UNL     1      -1.212  -0.657   0.243  0.00  0.00    +0.162 A 
ATOM     14  C   UNL     1      -2.385   0.080   0.252  0.00  0.00    +0.054 A 
ATOM     15  C   UNL     1      -3.596  -0.546   0.027  0.00  0.00    -0.025 A 
ATOM     16  C   UNL     1      -3.641  -1.908  -0.206  0.00  0.00    +0.009 A 
ATOM     17  C   UNL     1      -2.475  -2.650  -0.216  0.00  0.00    +0.049 A 
ATOM     18  C   UNL     1      -1.256  -2.027   0.002  0.00  0.00    +0.158 A 
BRANCH  13  20
ATOM     19  C   UNL     1      -0.049   1.365   0.704  0.00  0.00    +0.277 C 
ATOM     20  O   UNL     1      -0.019  -0.043   0.464  0.00  0.00    -0.491 OA
ENDBRANCH  13  20
BRANCH  18  21
ATOM     21  O   UNL     1      -0.107  -2.754  -0.013  0.00  0.00    -0.503 OA
ATOM     22  H   UNL     1       0.142  -3.114   0.849  0.00  0.00    +0.292 HD
ENDBRANCH  18  21
ENDBRANCH   1  15
BRANCH   9  23
ATOM     23  C   UNL     1      -7.543  -2.123  -0.616  0.00  0.00    +0.138 C 
BRANCH  23  24
ATOM     24  C   UNL     1      -8.334  -1.788  -1.854  0.00  0.00    -0.032 A 
ATOM     25  C   UNL     1      -9.683  -1.504  -1.756  0.00  0.00    +0.005 A 
ATOM     26  C   UNL     1     -10.408  -1.196  -2.892  0.00  0.00    +0.000 A 
ATOM     27  C   UNL     1      -9.784  -1.173  -4.126  0.00  0.00    +0.000 A 
ATOM     28  C   UNL     1      -8.435  -1.456  -4.223  0.00  0.00    +0.000 A 
ATOM     29  C   UNL     1      -7.708  -1.759  -3.087  0.00  0.00    +0.005 A 
ENDBRANCH  23  24
ENDBRANCH   9  23
TORSDOF 5
