REMARK  Name = ZINC60335809
REMARK  12 active torsions:
REMARK  status: ('A' for Active; 'I' for Inactive)
REMARK    1  A    between atoms: C_1  and  C_2
REMARK    2  A    between atoms: C_2  and  C_3
REMARK    3  A    between atoms: C_2  and  C_4
REMARK    4  A    between atoms: C_2  and  C_5
REMARK    5  A    between atoms: C_11  and  C_14
REMARK    6  A    between atoms: C_21  and  C_23
REMARK    7  A    between atoms: C_23  and  N_24
REMARK    8  A    between atoms: C_25  and  O_27
REMARK    9  A    between atoms: O_27  and  C_28
REMARK   10  A    between atoms: C_28  and  C_29
REMARK   11  A    between atoms: C_28  and  C_30
REMARK   12  A    between atoms: C_28  and  C_31
REMARK                            x       y       z     vdW  Elec       q    Type
REMARK                         _______ _______ _______ _____ _____    ______ ____
ROOT
ATOM      1  C   UNL     1       1.149  -5.016  -5.238  0.00  0.00    +0.220 C 
ATOM      2  O   UNL     1       2.234  -4.583  -5.562  0.00  0.00    -0.275 OA
ATOM      3  N   UNL     1       0.372  -5.638  -6.147  0.00  0.00    -0.297 N 
ATOM      4  C   UNL     1      -0.982  -6.086  -5.794  0.00  0.00    +0.108 C 
ATOM      5  C   UNL     1      -1.113  -7.574  -6.136  0.00  0.00    +0.019 C 
ATOM      6  C   UNL     1      -0.742  -7.791  -7.604  0.00  0.00    +0.003 C 
ATOM      7  C   UNL     1       0.712  -7.370  -7.833  0.00  0.00    +0.024 C 
ATOM      8  C   UNL     1       0.862  -5.875  -7.512  0.00  0.00    +0.093 C 
ENDROOT
BRANCH   1  15
ATOM      9  C   UNL     1       0.945  -2.697  -1.042  0.00  0.00    +0.221 C 
ATOM     10  O   UNL     1       1.119  -1.655  -1.638  0.00  0.00    -0.275 OA
ATOM     11  N   UNL     1       1.199  -3.872  -1.651  0.00  0.00    -0.300 N 
ATOM     12  C   UNL     1       1.075  -5.138  -0.915  0.00  0.00    +0.108 C 
ATOM     13  C   UNL     1       0.144  -6.072  -1.695  0.00  0.00    +0.020 C 
ATOM     14  C   UNL     1       0.664  -6.225  -3.127  0.00  0.00    +0.016 C 
ATOM     15  C   UNL     1       0.668  -4.860  -3.818  0.00  0.00    +0.092 C 
ATOM     16  C   UNL     1       1.599  -3.912  -3.064  0.00  0.00    +0.120 C 
BRANCH   9  18
ATOM     17  C   UNL     1       0.213  -1.230   0.819  0.00  0.00    +0.020 C 
ATOM     18  C   UNL     1       0.444  -2.677   0.380  0.00  0.00    +0.039 C 
ATOM     19  C   UNL     1       1.483  -3.328   1.295  0.00  0.00    +0.020 C 
ATOM     20  C   UNL     1      -0.871  -3.454   0.468  0.00  0.00    +0.020 C 
ENDBRANCH   9  18
ENDBRANCH   1  15
BRANCH   8  21
ATOM     21  C   UNL     1       2.335  -5.473  -7.606  0.00  0.00    +0.130 C 
BRANCH  21  22
ATOM     22  N   UNL     1       2.448  -4.014  -7.551  0.00  0.00    -0.279 N 
ATOM     23  C   UNL     1       3.650  -3.425  -7.710  0.00  0.00    +0.401 C 
ATOM     24  O   UNL     1       4.639  -4.104  -7.898  0.00  0.00    -0.226 OA
ATOM     25  H   UNL     1       1.658  -3.471  -7.401  0.00  0.00    +0.152 HD
BRANCH  23  26
ATOM     26  O   UNL     1       3.754  -2.083  -7.660  0.00  0.00    -0.445 OA
BRANCH  26  27
ATOM     27  C   UNL     1       5.058  -1.526  -7.836  0.00  0.00    +0.107 C 
ATOM     28  C   UNL     1       5.604  -1.930  -9.207  0.00  0.00    +0.055 C 
ATOM     29  C   UNL     1       4.977  -0.001  -7.748  0.00  0.00    +0.055 C 
ATOM     30  C   UNL     1       5.989  -2.052  -6.742  0.00  0.00    +0.055 C 
ENDBRANCH  26  27
ENDBRANCH  23  26
ENDBRANCH  21  22
ENDBRANCH   8  21
TORSDOF 6
