REMARK  Name = ZINC41716176
REMARK  6 active torsions:
REMARK  status: ('A' for Active; 'I' for Inactive)
REMARK    1  A    between atoms: C_1  and  C_2
REMARK    2  A    between atoms: C_2  and  C_4
REMARK    3  A    between atoms: C_2  and  N_10
REMARK    4  A    between atoms: C_16  and  C_21
REMARK    5  A    between atoms: C_16  and  C_22
REMARK    6  A    between atoms: C_18  and  O_20
REMARK                            x       y       z     vdW  Elec       q    Type
REMARK                         _______ _______ _______ _____ _____    ______ ____
ROOT
ATOM      1  N   UNL     1      -1.372  -0.511   0.012  0.00  0.00    -0.345 N 
ATOM      2  C   UNL     1      -2.319  -0.266  -0.941  0.00  0.00    +0.086 A 
ATOM      3  C   UNL     1      -3.455  -0.903  -0.584  0.00  0.00    +0.025 A 
ATOM      4  C   UNL     1      -3.200  -1.562   0.628  0.00  0.00    +0.002 A 
ATOM      5  C   UNL     1      -1.915  -1.308   0.969  0.00  0.00    +0.025 A 
ATOM      6  C   UNL     1      -1.252  -1.841   2.215  0.00  0.00    +0.060 C 
ATOM      7  C   UNL     1      -2.344  -2.328   3.175  0.00  0.00    -0.027 C 
ATOM      8  C   UNL     1      -3.312  -3.247   2.426  0.00  0.00    +0.043 C 
ATOM      9  C   UNL     1      -4.143  -2.413   1.439  0.00  0.00    +0.147 C 
ATOM     10  C   UNL     1      -3.110  -1.123   3.728  0.00  0.00    +0.011 C 
ATOM     11  C   UNL     1      -1.701  -3.097   4.331  0.00  0.00    +0.011 C 
ENDROOT
BRANCH   1  13
ATOM     12  C   UNL     1      -0.019   1.526   0.010  0.00  0.00    +0.033 C 
ATOM     13  C   UNL     1       0.002  -0.004   0.002  0.00  0.00    +0.113 C 
BRANCH  13  14
ATOM     14  C   UNL     1       0.718  -0.497  -1.257  0.00  0.00    +0.141 C 
ATOM     15  C   UNL     1       2.201  -0.070  -1.218  0.00  0.00    +0.036 C 
ATOM     16  C   UNL     1       2.472   0.317  -2.697  0.00  0.00    +0.031 C 
ATOM     17  C   UNL     1       1.097   0.904  -3.104  0.00  0.00    +0.160 C 
ATOM     18  O   UNL     1       0.125   0.096  -2.418  0.00  0.00    -0.375 OA
ENDBRANCH  13  14
ENDBRANCH   1  13
BRANCH   9  19
ATOM     19  O   UNL     1      -4.866  -3.290   0.573  0.00  0.00    -0.387 OA
ATOM     20  H   UNL     1      -5.398  -2.834  -0.093  0.00  0.00    +0.210 HD
ENDBRANCH   9  19
TORSDOF 3
