REMARK  Name = ZINC30731856
REMARK  6 active torsions:
REMARK  status: ('A' for Active; 'I' for Inactive)
REMARK    1  A    between atoms: C_1  and  C_2
REMARK    2  A    between atoms: C_5  and  C_7
REMARK    3  A    between atoms: N_9  and  C_10
REMARK    4  A    between atoms: C_13  and  C_16
REMARK    5  A    between atoms: C_16  and  N_18
REMARK    6  A    between atoms: N_20  and  C_24
REMARK                            x       y       z     vdW  Elec       q    Type
REMARK                         _______ _______ _______ _____ _____    ______ ____
ROOT
ATOM      1  C   UNL     1      -4.098   2.422  -0.830  0.00  0.00    +0.033 A 
ATOM      2  C   UNL     1      -3.716   1.085  -0.797  0.00  0.00    +0.024 A 
ATOM      3  C   UNL     1      -2.405   0.748  -0.541  0.00  0.00    +0.015 A 
ATOM      4  C   UNL     1      -1.460   1.750  -0.313  0.00  0.00    +0.039 A 
ATOM      5  C   UNL     1      -1.848   3.091  -0.341  0.00  0.00    +0.015 A 
ATOM      6  C   UNL     1      -3.159   3.422  -0.603  0.00  0.00    +0.024 A 
ENDROOT
BRANCH   1   9
ATOM      7  C   UNL     1      -5.984   3.823  -0.475  0.00  0.00    +0.221 C 
ATOM      8  O   UNL     1      -5.307   4.537   0.233  0.00  0.00    -0.275 OA
ATOM      9  N   UNL     1      -5.427   2.760  -1.089  0.00  0.00    -0.285 N 
ATOM     10  H   UNL     1      -6.019   2.160  -1.796  0.00  0.00    +0.155 HD
BRANCH   7  14
ATOM     11  C   UNL     1      -9.114   6.139  -0.660  0.00  0.00    +0.008 C 
ATOM     12  C   UNL     1      -8.021   5.343   0.054  0.00  0.00    -0.002 C 
ATOM     13  C   UNL     1      -8.374   3.933   0.535  0.00  0.00    +0.017 C 
ATOM     14  C   UNL     1      -7.448   4.123  -0.669  0.00  0.00    +0.078 C 
ENDBRANCH   7  14
ENDBRANCH   1   9
BRANCH   4  15
ATOM     15  C   UNL     1      -0.052   1.391  -0.037  0.00  0.00    +0.269 C 
ATOM     16  O   UNL     1       0.284   0.220  -0.007  0.00  0.00    -0.268 OA
BRANCH  15  17
ATOM     17  N   UNL     1       0.852   2.351   0.175  0.00  0.00    -0.152 NA
ATOM     18  C   UNL     1       1.522   2.393   1.326  0.00  0.00    +0.165 A 
ATOM     19  N   UNL     1       1.346   1.636   2.447  0.00  0.00    -0.331 N 
ATOM     20  C   UNL     1       2.153   1.851   3.519  0.00  0.00    +0.094 A 
ATOM     21  C   UNL     1       3.093   2.800   3.435  0.00  0.00    +0.066 A 
ATOM     22  S   UNL     1       2.846   3.418   1.779  0.00  0.00    -0.061 S 
ATOM     23  C   UNL     1       0.303   0.608   2.496  0.00  0.00    +0.150 C 
ENDBRANCH  15  17
ENDBRANCH   4  15
TORSDOF 4
