REMARK  Name = ZINC39444818
REMARK  5 active torsions:
REMARK  status: ('A' for Active; 'I' for Inactive)
REMARK    1  A    between atoms: C_3  and  S_17
REMARK    2  A    between atoms: C_6  and  N_7
REMARK    3  A    between atoms: C_8  and  C_10
REMARK    4  A    between atoms: S_17  and  N_20
REMARK    5  A    between atoms: N_20  and  C_21
REMARK                            x       y       z     vdW  Elec       q    Type
REMARK                         _______ _______ _______ _____ _____    ______ ____
ROOT
ATOM      1  C   UNL     1      -0.097   2.273   0.556  0.00  0.00    +0.025 A 
ATOM      2  C   UNL     1       1.207   2.701   0.412  0.00  0.00    +0.030 A 
ATOM      3  C   UNL     1       2.227   1.780   0.258  0.00  0.00    +0.105 A 
ATOM      4  C   UNL     1       1.943   0.426   0.249  0.00  0.00    +0.030 A 
ATOM      5  C   UNL     1       0.641  -0.009   0.394  0.00  0.00    +0.025 A 
ATOM      6  C   UNL     1      -0.385   0.914   0.548  0.00  0.00    +0.034 A 
ENDROOT
BRANCH   6   7
ATOM      7  N   UNL     1      -1.706   0.476   0.695  0.00  0.00    -0.283 N 
ATOM      8  C   UNL     1      -2.719   1.212   0.196  0.00  0.00    +0.249 C 
ATOM      9  O   UNL     1      -2.482   2.199  -0.468  0.00  0.00    -0.273 OA
ATOM     10  H   UNL     1      -1.893  -0.357   1.155  0.00  0.00    +0.155 HD
BRANCH   8  11
ATOM     11  C   UNL     1      -4.146   0.808   0.462  0.00  0.00    +0.256 C 
ATOM     12  C   UNL     1      -4.591  -0.269  -0.512  0.00  0.00    +0.073 C 
ATOM     13  C   UNL     1      -5.604   0.297  -1.176  0.00  0.00    +0.152 C 
ATOM     14  N   UNL     1      -5.823   1.554  -0.735  0.00  0.00    -0.160 NA
ATOM     15  N   UNL     1      -5.066   1.921   0.172  0.00  0.00    -0.169 NA
ATOM     16 CL   UNL     1      -3.935  -1.864  -0.716  0.00  0.00    -0.084 Cl
ENDBRANCH   8  11
ENDBRANCH   6   7
BRANCH   3  17
ATOM     17  S   UNL     1       3.890   2.331   0.073  0.00  0.00    +0.059 S 
ATOM     18  O   UNL     1       4.649   1.202  -0.338  0.00  0.00    -0.153 OA
ATOM     19  O   UNL     1       3.838   3.531  -0.686  0.00  0.00    -0.153 OA
BRANCH  17  20
ATOM     20  N   UNL     1       4.439   2.747   1.579  0.00  0.00    -0.184 NA
ATOM     21  H   UNL     1       4.591   3.679   1.799  0.00  0.00    +0.149 HD
BRANCH  20  22
ATOM     22  C   UNL     1       4.693   1.707   2.579  0.00  0.00    +0.041 C 
ATOM     23  C   UNL     1       5.869   0.839   2.124  0.00  0.00    +0.027 C 
ATOM     24  C   UNL     1       6.135  -0.247   3.169  0.00  0.00    -0.009 C 
ATOM     25  C   UNL     1       6.472   0.407   4.510  0.00  0.00    +0.007 C 
ATOM     26  C   UNL     1       5.296   1.274   4.965  0.00  0.00    -0.009 C 
ATOM     27  C   UNL     1       5.030   2.360   3.920  0.00  0.00    +0.027 C 
ATOM     28  C   UNL     1       4.049   0.401   5.121  0.00  0.00    +0.007 C 
ATOM     29  C   UNL     1       3.712  -0.252   3.780  0.00  0.00    -0.009 C 
ATOM     30  C   UNL     1       4.888  -1.120   3.325  0.00  0.00    +0.007 C 
ATOM     31  C   UNL     1       3.446   0.834   2.736  0.00  0.00    +0.027 C 
ENDBRANCH  20  22
ENDBRANCH  17  20
ENDBRANCH   3  17
TORSDOF 5
