REMARK  Name = ZINC34947646
REMARK  10 active torsions:
REMARK  status: ('A' for Active; 'I' for Inactive)
REMARK    1  A    between atoms: C_1  and  C_2
REMARK    2  A    between atoms: C_2  and  C_3
REMARK    3  A    between atoms: C_3  and  C_4
REMARK    4  A    between atoms: C_4  and  N_5
REMARK    5  A    between atoms: N_8  and  C_9
REMARK    6  A    between atoms: C_9  and  C_11
REMARK    7  A    between atoms: C_9  and  C_22
REMARK    8  A    between atoms: C_11  and  C_12
REMARK    9  A    between atoms: C_28  and  C_31
REMARK   10  A    between atoms: C_32  and  C_34
REMARK                            x       y       z     vdW  Elec       q    Type
REMARK                         _______ _______ _______ _____ _____    ______ ____
ROOT
ATOM      1  C   UNL     1       2.669  -5.938  -4.192  0.00  0.00    +0.165 C 
ENDROOT
BRANCH   1   2
ATOM      2  C   UNL     1       3.124  -6.341  -5.571  0.00  0.00    +0.236 C 
ATOM      3  O   UNL     1       3.884  -5.628  -6.192  0.00  0.00    -0.274 OA
ATOM      4  N   UNL     1       2.687  -7.494  -6.114  0.00  0.00    -0.297 N 
ATOM      5  C   UNL     1       1.677  -8.310  -5.426  0.00  0.00    +0.127 C 
ATOM      6  C   UNL     1       2.231  -9.729  -5.249  0.00  0.00    +0.127 C 
ATOM      7  N   UNL     1       2.756 -10.193  -6.541  0.00  0.00    -0.295 N 
ATOM      8  C   UNL     1       3.766  -9.377  -7.229  0.00  0.00    +0.090 C 
ATOM      9  C   UNL     1       3.208  -7.956  -7.409  0.00  0.00    +0.130 C 
ATOM     10  C   UNL     1       4.072  -9.988  -8.599  0.00  0.00    +0.029 C 
ATOM     11  C   UNL     1       2.319 -11.347  -7.084  0.00  0.00    +0.219 C 
ATOM     12  O   UNL     1       2.694 -11.677  -8.189  0.00  0.00    -0.275 OA
BRANCH  11  13
ATOM     13  C   UNL     1       1.363 -12.226  -6.319  0.00  0.00    +0.075 C 
ATOM     14  C   UNL     1       1.888 -13.573  -5.820  0.00  0.00    +0.013 C 
ATOM     15  C   UNL     1       0.904 -13.522  -6.990  0.00  0.00    +0.013 C 
ENDBRANCH  11  13
ENDBRANCH   1   2
BRANCH   1  19
ATOM     16  N   UNL     1       2.111  -2.497  -3.023  0.00  0.00    -0.299 N 
ATOM     17  C   UNL     1       2.006  -3.834  -3.157  0.00  0.00    +0.300 C 
ATOM     18  O   UNL     1       1.212  -4.453  -2.476  0.00  0.00    -0.253 OA
ATOM     19  N   UNL     1       2.783  -4.484  -4.046  0.00  0.00    -0.288 N 
ATOM     20  H   UNL     1       2.744  -2.003  -3.566  0.00  0.00    +0.150 HD
ATOM     21  H   UNL     1       3.417  -3.990  -4.589  0.00  0.00    +0.151 HD
BRANCH  16  22
ATOM     22  C   UNL     1       1.266  -1.790  -2.056  0.00  0.00    +0.106 C 
BRANCH  22  23
ATOM     23  C   UNL     1       1.581  -0.293  -2.103  0.00  0.00    +0.018 C 
BRANCH  23  25
ATOM     24  C   UNL     1       1.015   1.942  -1.141  0.00  0.00    +0.004 C 
ATOM     25  C   UNL     1       0.700   0.445  -1.094  0.00  0.00    -0.002 C 
ENDBRANCH  23  25
ENDBRANCH  22  23
ENDBRANCH  16  22
ENDBRANCH   1  19
BRANCH   1  26
ATOM     26  C   UNL     1       3.546  -6.626  -3.144  0.00  0.00    +0.069 C 
BRANCH  26  27
ATOM     27  C   UNL     1       3.013  -6.325  -1.767  0.00  0.00    -0.020 A 
ATOM     28  C   UNL     1       3.419  -5.340  -0.951  0.00  0.00    +0.087 A 
ATOM     29  N   UNL     1       2.706  -5.378   0.216  0.00  0.00    -0.360 N 
ATOM     30  H   UNL     1       2.821  -4.765   0.960  0.00  0.00    +0.165 HD
ATOM     31  C   UNL     1       1.800  -6.414   0.178  0.00  0.00    +0.047 A 
ATOM     32  C   UNL     1       1.948  -7.049  -1.068  0.00  0.00    +0.003 A 
ATOM     33  C   UNL     1       1.146  -8.144  -1.392  0.00  0.00    +0.010 A 
ATOM     34  C   UNL     1       0.216  -8.592  -0.496  0.00  0.00    +0.001 A 
ATOM     35  C   UNL     1       0.063  -7.967   0.734  0.00  0.00    +0.002 A 
ATOM     36  C   UNL     1       0.851  -6.890   1.077  0.00  0.00    +0.026 A 
ENDBRANCH  26  27
ENDBRANCH   1  26
TORSDOF 8
