REMARK  Name = ZINC00513653
REMARK  3 active torsions:
REMARK  status: ('A' for Active; 'I' for Inactive)
REMARK    1  A    between atoms: C_3  and  N_8
REMARK    2  A    between atoms: C_9  and  C_11
REMARK    3  A    between atoms: C_13  and  N_18
REMARK                            x       y       z     vdW  Elec       q    Type
REMARK                         _______ _______ _______ _____ _____    ______ ____
ROOT
ATOM      1  N   UNL     1      -2.464   1.430   0.021  0.00  0.00    -0.281 N 
ATOM      2  C   UNL     1      -1.318   2.120  -0.147  0.00  0.00    +0.250 C 
ATOM      3  O   UNL     1      -1.351   3.326  -0.295  0.00  0.00    -0.270 OA
ATOM      4  H   UNL     1      -2.445   0.462   0.063  0.00  0.00    +0.155 HD
ENDROOT
BRANCH   1   7
ATOM      5  C   UNL     1      -6.045   2.219  -0.248  0.00  0.00    +0.005 A 
ATOM      6  C   UNL     1      -4.845   1.544  -0.362  0.00  0.00    +0.023 A 
ATOM      7  C   UNL     1      -3.680   2.112   0.137  0.00  0.00    +0.036 A 
ATOM      8  C   UNL     1      -3.725   3.355   0.754  0.00  0.00    +0.061 A 
ATOM      9  C   UNL     1      -4.928   4.028   0.861  0.00  0.00    +0.125 A 
ATOM     10  C   UNL     1      -6.088   3.459   0.363  0.00  0.00    +0.038 A 
ATOM     11  F   UNL     1      -4.973   5.240   1.457  0.00  0.00    -0.205 F 
ENDBRANCH   1   7
BRANCH   2  12
ATOM     12  C   UNL     1      -0.023   1.410  -0.151  0.00  0.00    +0.057 A 
ATOM     13  C   UNL     1       0.018   0.025   0.018  0.00  0.00    +0.047 A 
ATOM     14  C   UNL     1       1.231  -0.633   0.008  0.00  0.00    +0.127 A 
ATOM     15  C   UNL     1       2.406   0.077  -0.171  0.00  0.00    +0.034 A 
ATOM     16  C   UNL     1       2.374   1.449  -0.340  0.00  0.00    +0.023 A 
ATOM     17  C   UNL     1       1.167   2.121  -0.332  0.00  0.00    +0.053 A 
ATOM     18 CL   UNL     1       1.127   3.843  -0.544  0.00  0.00    -0.083 Cl
BRANCH  14  19
ATOM     19  N   UNL     1       1.276  -2.101   0.187  0.00  0.00    +0.056 N 
ATOM     20  O   UNL     1       0.243  -2.728   0.344  0.00  0.00    -0.126 OA
ATOM     21  O   UNL     1       2.345  -2.684   0.178  0.00  0.00    -0.126 OA
ENDBRANCH  14  19
ENDBRANCH   2  12
TORSDOF 3
