REMARK  Name = ZINC47133374
REMARK  8 active torsions:
REMARK  status: ('A' for Active; 'I' for Inactive)
REMARK    1  A    between atoms: C_1  and  C_2
REMARK    2  A    between atoms: C_5  and  C_28
REMARK    3  A    between atoms: C_6  and  C_8
REMARK    4  A    between atoms: C_14  and  C_16
REMARK    5  A    between atoms: C_16  and  C_18
REMARK    6  A    between atoms: C_16  and  O_19
REMARK    7  A    between atoms: O_19  and  C_20
REMARK    8  A    between atoms: C_24  and  C_26
REMARK                            x       y       z     vdW  Elec       q    Type
REMARK                         _______ _______ _______ _____ _____    ______ ____
ROOT
ATOM      1  C   UNL     1       0.547  -3.201   2.736  0.00  0.00    +0.156 A 
ATOM      2  C   UNL     1       0.457  -2.502   4.023  0.00  0.00    +0.197 A 
ATOM      3  N   UNL     1       0.238  -3.386   4.956  0.00  0.00    -0.033 NA
ATOM      4  O   UNL     1       0.177  -4.661   4.343  0.00  0.00    -0.240 OA
ATOM      5  N   UNL     1       0.372  -4.479   2.952  0.00  0.00    -0.047 NA
ATOM      6  N   UNL     1       0.584  -1.127   4.215  0.00  0.00    -0.263 N 
ATOM      7  C   UNL     1       0.594  -0.620   5.463  0.00  0.00    +0.259 C 
ATOM      8  O   UNL     1       0.493  -1.359   6.420  0.00  0.00    -0.271 OA
ATOM      9  H   UNL     1       0.664  -0.536   3.450  0.00  0.00    +0.156 HD
ENDROOT
BRANCH   1  15
ATOM     10  C   UNL     1       3.154  -0.056  -0.133  0.00  0.00    +0.044 C 
ATOM     11  C   UNL     1       2.039  -1.056   0.035  0.00  0.00    -0.050 A 
ATOM     12  C   UNL     1       1.237  -1.383  -1.044  0.00  0.00    +0.003 A 
ATOM     13  C   UNL     1       0.212  -2.300  -0.898  0.00  0.00    +0.004 A 
ATOM     14  C   UNL     1      -0.017  -2.893   0.327  0.00  0.00    -0.041 A 
ATOM     15  C   UNL     1       0.788  -2.567   1.417  0.00  0.00    +0.010 A 
ATOM     16  C   UNL     1       1.823  -1.647   1.262  0.00  0.00    +0.014 A 
ATOM     17  C   UNL     1      -1.135  -3.891   0.486  0.00  0.00    +0.044 C 
ENDBRANCH   1  15
BRANCH   7  18
ATOM     18  C   UNL     1       0.732   0.867   5.671  0.00  0.00    +0.256 C 
ATOM     19  C   UNL     1      -0.496   1.577   5.098  0.00  0.00    +0.062 C 
BRANCH  18  20
ATOM     20  O   UNL     1       0.833   1.145   7.069  0.00  0.00    -0.480 OA
BRANCH  20  21
ATOM     21  C   UNL     1       1.460   2.298   7.425  0.00  0.00    +0.122 A 
ATOM     22  C   UNL     1       1.701   2.573   8.763  0.00  0.00    +0.047 A 
ATOM     23  C   UNL     1       2.338   3.744   9.123  0.00  0.00    +0.024 A 
ATOM     24  C   UNL     1       2.735   4.644   8.149  0.00  0.00    +0.044 A 
ATOM     25  C   UNL     1       2.495   4.372   6.814  0.00  0.00    -0.029 A 
ATOM     26  C   UNL     1       1.864   3.198   6.450  0.00  0.00    +0.050 A 
ATOM     27  C   UNL     1       2.927   5.354   5.756  0.00  0.00    +0.045 C 
ATOM     28 CL   UNL     1       3.534   6.117   8.603  0.00  0.00    -0.083 Cl
ENDBRANCH  20  21
ENDBRANCH  18  20
ENDBRANCH   7  18
TORSDOF 4
