REMARK  Name = ZINC54079080
REMARK  6 active torsions:
REMARK  status: ('A' for Active; 'I' for Inactive)
REMARK    1  A    between atoms: C_1  and  C_2
REMARK    2  A    between atoms: C_2  and  C_3
REMARK    3  A    between atoms: C_2  and  N_14
REMARK    4  A    between atoms: C_15  and  C_17
REMARK    5  A    between atoms: N_25  and  C_26
REMARK    6  A    between atoms: N_25  and  C_27
REMARK                            x       y       z     vdW  Elec       q    Type
REMARK                         _______ _______ _______ _____ _____    ______ ____
ROOT
ATOM      1  N   UNL     1       0.711  -0.489   1.189  0.00  0.00    -0.304 N 
ATOM      2  C   UNL     1       0.051  -0.633   2.355  0.00  0.00    +0.251 C 
ATOM      3  O   UNL     1      -1.134  -0.360   2.423  0.00  0.00    -0.270 OA
ATOM      4  H   UNL     1       1.654  -0.707   1.135  0.00  0.00    +0.150 HD
ENDROOT
BRANCH   2   5
ATOM      5  C   UNL     1       0.758  -1.117   3.539  0.00  0.00    +0.077 A 
ATOM      6  C   UNL     1       0.266  -1.336   4.811  0.00  0.00    +0.038 A 
ATOM      7  C   UNL     1       1.118  -1.801   5.789  0.00  0.00    +0.049 A 
ATOM      8  C   UNL     1       2.461  -2.031   5.437  0.00  0.00    +0.118 A 
ATOM      9  S   UNL     1       2.471  -1.582   3.705  0.00  0.00    -0.064 S 
ATOM     10  N   UNL     1       3.279  -2.477   6.383  0.00  0.00    -0.218 NA
ATOM     11  C   UNL     1       2.869  -2.704   7.615  0.00  0.00    +0.162 A 
ATOM     12  S   UNL     1       1.142  -2.265   7.519  0.00  0.00    -0.052 S 
ATOM     13  N   UNL     1       3.590  -3.164   8.699  0.00  0.00    -0.316 N 
ATOM     14  C   UNL     1       5.015  -3.469   8.555  0.00  0.00    +0.131 C 
ATOM     15  C   UNL     1       2.929  -3.348   9.993  0.00  0.00    +0.131 C 
ENDBRANCH   2   5
BRANCH   1  17
ATOM     16  C   UNL     1      -0.019   1.526   0.010  0.00  0.00    +0.033 C 
ATOM     17  C   UNL     1       0.002  -0.004   0.002  0.00  0.00    +0.100 C 
BRANCH  17  18
ATOM     18  C   UNL     1       0.707  -0.490  -1.238  0.00  0.00    -0.027 A 
ATOM     19  C   UNL     1       2.090  -0.510  -1.282  0.00  0.00    +0.007 A 
ATOM     20  C   UNL     1       2.740  -0.955  -2.417  0.00  0.00    +0.024 A 
ATOM     21  C   UNL     1       2.003  -1.383  -3.514  0.00  0.00    +0.037 A 
ATOM     22  C   UNL     1       0.616  -1.361  -3.465  0.00  0.00    -0.025 A 
ATOM     23  C   UNL     1      -0.029  -0.920  -2.326  0.00  0.00    +0.011 A 
ATOM     24  C   UNL     1      -0.183  -1.826  -4.655  0.00  0.00    +0.046 C 
ATOM     25  C   UNL     1       0.561  -1.468  -5.942  0.00  0.00    +0.101 C 
ATOM     26  C   UNL     1       2.000  -1.898  -5.839  0.00  0.00    +0.218 C 
ATOM     27  O   UNL     1       2.575  -2.306  -6.825  0.00  0.00    -0.275 OA
ATOM     28  N   UNL     1       2.655  -1.835  -4.665  0.00  0.00    -0.285 N 
ATOM     29  H   UNL     1       3.585  -2.104  -4.617  0.00  0.00    +0.155 HD
ENDBRANCH  17  18
ENDBRANCH   1  17
TORSDOF 3
