REMARK  Name = ZINC42389823
REMARK  3 active torsions:
REMARK  status: ('A' for Active; 'I' for Inactive)
REMARK    1  A    between atoms: C_3  and  S_8
REMARK    2  A    between atoms: S_8  and  C_9
REMARK    3  A    between atoms: C_15  and  N_17
REMARK                            x       y       z     vdW  Elec       q    Type
REMARK                         _______ _______ _______ _____ _____    ______ ____
ROOT
ATOM      1  C   UNL     1       5.114   0.883  -0.042  0.00  0.00    +0.177 A 
ATOM      2  N   UNL     1       6.440   1.198  -0.047  0.00  0.00    -0.302 N 
ATOM      3  H   UNL     1       6.716   2.128  -0.041  0.00  0.00    +0.171 HD
ATOM      4  C   UNL     1       7.368   0.220  -0.061  0.00  0.00    +0.254 A 
ATOM      5  O   UNL     1       8.558   0.493  -0.065  0.00  0.00    -0.268 OA
ATOM      6  C   UNL     1       6.945  -1.113  -0.069  0.00  0.00    +0.113 A 
ATOM      7  C   UNL     1       5.583  -1.381  -0.063  0.00  0.00    +0.124 A 
ATOM      8  N   UNL     1       4.708  -0.369  -0.045  0.00  0.00    -0.208 NA
ENDROOT
BRANCH   7   9
ATOM      9  N   UNL     1       5.133  -2.686  -0.072  0.00  0.00    -0.343 N 
ATOM     10  H   UNL     1       5.769  -3.418  -0.082  0.00  0.00    +0.144 HD
ATOM     11  H   UNL     1       4.181  -2.871  -0.068  0.00  0.00    +0.144 HD
ENDBRANCH   7   9
BRANCH   1  12
ATOM     12  S   UNL     1       3.920   2.178  -0.024  0.00  0.00    -0.032 S 
BRANCH  12  15
ATOM     13  C   UNL     1      -0.017   1.385   0.010  0.00  0.00    +0.019 A 
ATOM     14  C   UNL     1       1.190   2.061   0.002  0.00  0.00    +0.036 A 
ATOM     15  C   UNL     1       2.374   1.332  -0.013  0.00  0.00    +0.104 A 
ATOM     16  N   UNL     1       2.351   0.008  -0.021  0.00  0.00    -0.247 NA
ATOM     17  C   UNL     1       1.216  -0.664  -0.014  0.00  0.00    +0.127 A 
ATOM     18  C   UNL     1       0.002  -0.004   0.002  0.00  0.00    +0.036 A 
ATOM     19 BR   UNL     1      -1.617  -0.982   0.013  0.00  0.00    -0.049 Br
ENDBRANCH  12  15
ENDBRANCH   1  12
TORSDOF 3
