REMARK  Name = ZINC14948281
REMARK  5 active torsions:
REMARK  status: ('A' for Active; 'I' for Inactive)
REMARK    1  A    between atoms: C_4  and  C_7
REMARK    2  A    between atoms: C_7  and  C_8
REMARK    3  A    between atoms: C_8  and  N_62
REMARK    4  A    between atoms: C_18  and  C_20
REMARK    5  A    between atoms: C_20  and  N_21
REMARK                            x       y       z     vdW  Elec       q    Type
REMARK                         _______ _______ _______ _____ _____    ______ ____
ROOT
ATOM      1  C   UNL     1      -0.344  -6.703   3.620  0.00  0.00    -0.079 C 
ATOM      2  C   UNL     1       1.084  -6.161   3.522  0.00  0.00    -0.018 C 
ATOM      3  C   UNL     1       1.065  -4.647   3.764  0.00  0.00    +0.005 C 
ATOM      4  C   UNL     1       0.120  -3.992   2.765  0.00  0.00    -0.027 C 
ATOM      5  C   UNL     1      -1.272  -4.602   2.847  0.00  0.00    -0.070 C 
ATOM      6  C   UNL     1       0.680  -4.129   1.331  0.00  0.00    +0.025 C 
ATOM      7  C   UNL     1       0.041  -2.899   0.632  0.00  0.00    +0.108 C 
ATOM      8  N   UNL     1       0.042  -1.840   1.659  0.00  0.00    -0.300 N 
ATOM      9  C   UNL     1       0.063  -2.473   2.988  0.00  0.00    +0.113 C 
ATOM     10  C   UNL     1       0.022  -0.514   1.420  0.00  0.00    +0.233 C 
ATOM     11  O   UNL     1       0.020   0.269   2.346  0.00  0.00    -0.274 OA
ATOM     12  N   UNL     1      -1.179  -6.055   2.586  0.00  0.00    +0.380 N 
ATOM     13  H   UNL     1      -0.744  -6.201   1.668  0.00  0.00    -0.082 HD
ENDROOT
BRANCH  12  14
ATOM     14  C   UNL     1      -2.529  -6.655   2.579  0.00  0.00    -0.079 C 
BRANCH  14  15
ATOM     15  C   UNL     1      -2.401  -8.179   2.585  0.00  0.00    -0.015 C 
BRANCH  15  19
ATOM     16  C   UNL     1      -5.809 -10.609   3.682  0.00  0.00    +0.000 C 
ATOM     17  C   UNL     1      -5.061 -10.957   2.394  0.00  0.00    +0.000 C 
ATOM     18  C   UNL     1      -3.666 -10.328   2.429  0.00  0.00    +0.003 C 
ATOM     19  C   UNL     1      -3.795  -8.808   2.550  0.00  0.00    -0.013 C 
ATOM     20  C   UNL     1      -4.544  -8.461   3.838  0.00  0.00    +0.003 C 
ATOM     21  C   UNL     1      -5.939  -9.090   3.803  0.00  0.00    +0.000 C 
ENDBRANCH  15  19
ENDBRANCH  14  15
ENDBRANCH  12  14
BRANCH  10  22
ATOM     22  C   UNL     1       0.002  -0.004   0.002  0.00  0.00    +0.207 C 
BRANCH  22  23
ATOM     23  N   UNL     1      -0.018   1.461   0.010  0.00  0.00    -0.255 N 
ATOM     24  C   UNL     1      -1.226   2.300   0.020  0.00  0.00    +0.152 C 
ATOM     25  C   UNL     1      -0.673   3.738   0.029  0.00  0.00    +0.253 C 
ATOM     26  O   UNL     1       0.773   3.561   0.014  0.00  0.00    -0.449 OA
ATOM     27  C   UNL     1       1.062   2.255   0.004  0.00  0.00    +0.403 C 
ATOM     28  O   UNL     1       2.199   1.827  -0.010  0.00  0.00    -0.226 OA
ENDBRANCH  22  23
ENDBRANCH  10  22
TORSDOF 5
