REMARK  Name = ZINC58162838
REMARK  8 active torsions:
REMARK  status: ('A' for Active; 'I' for Inactive)
REMARK    1  A    between atoms: C_1  and  C_2
REMARK    2  A    between atoms: N_5  and  C_11
REMARK    3  A    between atoms: C_7  and  C_10
REMARK    4  A    between atoms: C_11  and  C_12
REMARK    5  A    between atoms: N_17  and  C_18
REMARK    6  A    between atoms: C_18  and  N_19
REMARK    7  A    between atoms: N_22  and  C_31
REMARK    8  A    between atoms: C_23  and  C_25
REMARK                            x       y       z     vdW  Elec       q    Type
REMARK                         _______ _______ _______ _____ _____    ______ ____
ROOT
ATOM      1  N   UNL     1       6.260   0.643   0.532  0.00  0.00    -0.257 N 
ATOM      2  C   UNL     1       5.592   0.895   1.676  0.00  0.00    +0.181 A 
ATOM      3  S   UNL     1       4.148   1.802   1.824  0.00  0.00    -0.011 S 
ATOM      4  N   UNL     1       6.267   0.304   2.683  0.00  0.00    -0.271 N 
ATOM      5  C   UNL     1       7.375  -0.327   2.149  0.00  0.00    +0.167 A 
ATOM      6  N   UNL     1       7.379  -0.135   0.859  0.00  0.00    -0.152 NA
ENDROOT
BRANCH   4   7
ATOM      7  C   UNL     1       5.906   0.325   4.037  0.00  0.00    +0.051 A 
ATOM      8  C   UNL     1       6.565   1.172   4.918  0.00  0.00    +0.029 A 
ATOM      9  C   UNL     1       6.208   1.191   6.253  0.00  0.00    +0.040 A 
ATOM     10  C   UNL     1       5.195   0.366   6.711  0.00  0.00    +0.124 A 
ATOM     11  C   UNL     1       4.537  -0.480   5.834  0.00  0.00    +0.040 A 
ATOM     12  C   UNL     1       4.886  -0.497   4.498  0.00  0.00    +0.029 A 
ATOM     13  F   UNL     1       4.848   0.386   8.017  0.00  0.00    -0.205 F 
ENDBRANCH   4   7
BRANCH   5  14
ATOM     14  C   UNL     1       8.383  -1.095   2.912  0.00  0.00    +0.020 A 
ATOM     15  C   UNL     1       8.199  -1.333   4.274  0.00  0.00    +0.011 A 
ATOM     16  C   UNL     1       9.143  -2.050   4.980  0.00  0.00    +0.001 A 
ATOM     17  C   UNL     1      10.270  -2.533   4.340  0.00  0.00    +0.000 A 
ATOM     18  C   UNL     1      10.459  -2.300   2.989  0.00  0.00    +0.001 A 
ATOM     19  C   UNL     1       9.519  -1.590   2.271  0.00  0.00    +0.011 A 
ENDBRANCH   5  14
BRANCH   1  20
ATOM     20  C   UNL     1       5.882   1.095  -0.809  0.00  0.00    +0.072 C 
BRANCH  20  25
ATOM     21  C   UNL     1       4.798   0.451  -2.858  0.00  0.00    -0.052 C 
ATOM     22  C   UNL     1       5.585  -0.282  -3.965  0.00  0.00    -0.016 C 
ATOM     23  C   UNL     1       6.886  -0.715  -3.240  0.00  0.00    -0.020 C 
ATOM     24  C   UNL     1       6.359  -1.044  -1.821  0.00  0.00    -0.076 C 
ATOM     25  N   UNL     1       5.311  -0.030  -1.562  0.00  0.00    +0.395 N 
ATOM     26  H   UNL     1       4.559  -0.444  -1.032  0.00  0.00    -0.079 HD
BRANCH  21  27
ATOM     27  C   UNL     1       3.307   0.129  -2.979  0.00  0.00    +0.069 C 
BRANCH  27  31
ATOM     28  C   UNL     1       1.950   0.385  -7.000  0.00  0.00    +0.039 C 
ATOM     29  C   UNL     1       0.981   0.756  -5.875  0.00  0.00    +0.130 C 
ATOM     30  C   UNL     1       1.470   0.147  -4.558  0.00  0.00    +0.115 C 
ATOM     31  N   UNL     1       2.775   0.728  -4.210  0.00  0.00    -0.299 NA
ATOM     32  C   UNL     1       2.678   2.190  -4.085  0.00  0.00    +0.115 C 
ATOM     33  C   UNL     1       2.177   2.777  -5.407  0.00  0.00    +0.130 C 
ATOM     34  O   UNL     1       0.922   2.179  -5.745  0.00  0.00    -0.371 OA
ATOM     35  C   UNL     1       1.999   4.290  -5.259  0.00  0.00    +0.039 C 
ENDBRANCH  27  31
ENDBRANCH  21  27
ENDBRANCH  20  25
ENDBRANCH   1  20
TORSDOF 6
