REMARK  Name = ZINC20518764
REMARK  5 active torsions:
REMARK  status: ('A' for Active; 'I' for Inactive)
REMARK    1  A    between atoms: C_1  and  O_2
REMARK    2  A    between atoms: O_2  and  C_3
REMARK    3  A    between atoms: C_6  and  N_9
REMARK    4  A    between atoms: C_19  and  N_20
REMARK    5  A    between atoms: N_20  and  C_21
REMARK                            x       y       z     vdW  Elec       q    Type
REMARK                         _______ _______ _______ _____ _____    ______ ____
ROOT
ATOM      1  N   UNL     1      -4.946  -2.582   0.270  0.00  0.00    -0.202 N 
ATOM      2  C   UNL     1      -6.071  -1.848   0.259  0.00  0.00    +0.258 C 
ATOM      3  O   UNL     1      -5.997  -0.640   0.383  0.00  0.00    -0.269 OA
ATOM      4  C   UNL     1      -7.387  -2.479   0.100  0.00  0.00    +0.046 A 
ATOM      5  C   UNL     1      -8.559  -1.723   0.087  0.00  0.00    +0.014 A 
ATOM      6  C   UNL     1      -9.776  -2.352  -0.065  0.00  0.00    +0.001 A 
ATOM      7  C   UNL     1      -9.848  -3.731  -0.205  0.00  0.00    +0.001 A 
ATOM      8  C   UNL     1      -8.700  -4.497  -0.195  0.00  0.00    +0.009 A 
ATOM      9  C   UNL     1      -7.464  -3.880  -0.043  0.00  0.00    +0.000 A 
ATOM     10  C   UNL     1      -6.205  -4.654  -0.026  0.00  0.00    +0.059 C 
ATOM     11  C   UNL     1      -6.213  -6.025  -0.161  0.00  0.00    +0.081 C 
ATOM     12  C   UNL     1      -4.946  -3.918   0.133  0.00  0.00    +0.259 C 
ATOM     13  O   UNL     1      -3.891  -4.525   0.146  0.00  0.00    -0.269 OA
ENDROOT
BRANCH   1  17
ATOM     14  C   UNL     1      -1.291  -0.626   0.728  0.00  0.00    +0.120 A 
ATOM     15  C   UNL     1      -1.984  -1.070   1.845  0.00  0.00    +0.047 A 
ATOM     16  C   UNL     1      -3.194  -1.718   1.693  0.00  0.00    +0.027 A 
ATOM     17  C   UNL     1      -3.717  -1.924   0.424  0.00  0.00    +0.045 A 
ATOM     18  C   UNL     1      -3.023  -1.479  -0.693  0.00  0.00    +0.027 A 
ATOM     19  C   UNL     1      -1.816  -0.826  -0.540  0.00  0.00    +0.047 A 
BRANCH  14  21
ATOM     20  C   UNL     1       0.381   0.184   2.212  0.00  0.00    +0.277 C 
ATOM     21  O   UNL     1      -0.100   0.012   0.878  0.00  0.00    -0.495 OA
ENDBRANCH  14  21
ENDBRANCH   1  17
BRANCH  11  22
ATOM     22  N   UNL     1      -7.221  -6.635  -0.838  0.00  0.00    -0.345 N 
ATOM     23  H   UNL     1      -7.880  -6.102  -1.311  0.00  0.00    +0.146 HD
BRANCH  22  24
ATOM     24  C   UNL     1      -7.314  -8.097  -0.854  0.00  0.00    +0.092 C 
ATOM     25  C   UNL     1      -6.450  -8.660  -1.994  0.00  0.00    +0.046 C 
ATOM     26  C   UNL     1      -6.786 -10.153  -2.223  0.00  0.00    +0.168 C 
ATOM     27  S   UNL     1      -8.539 -10.261  -1.678  0.00  0.00    -0.029 S 
ATOM     28  O   UNL     1      -9.362 -10.495  -2.812  0.00  0.00    -0.174 OA
ATOM     29  O   UNL     1      -8.622 -11.135  -0.560  0.00  0.00    -0.174 OA
ATOM     30  C   UNL     1      -8.787  -8.527  -1.105  0.00  0.00    +0.188 C 
ENDBRANCH  22  24
ENDBRANCH  11  22
TORSDOF 4
