REMARK  Name = ZINC64034301
REMARK  4 active torsions:
REMARK  status: ('A' for Active; 'I' for Inactive)
REMARK    1  A    between atoms: C_1  and  C_2
REMARK    2  A    between atoms: N_12  and  O_24
REMARK    3  A    between atoms: C_20  and  O_23
REMARK    4  A    between atoms: O_24  and  C_25
REMARK                            x       y       z     vdW  Elec       q    Type
REMARK                         _______ _______ _______ _____ _____    ______ ____
ROOT
ATOM      1  C   UNL     1      -0.019   1.526   0.010  0.00  0.00    +0.007 C 
ATOM      2  C   UNL     1       0.002  -0.004   0.002  0.00  0.00    -0.013 C 
ATOM      3  C   UNL     1       0.690  -0.483  -1.272  0.00  0.00    +0.007 C 
ATOM      4  C   UNL     1       0.884  -2.013  -1.280  0.00  0.00    +0.046 C 
ATOM      5  C   UNL     1       1.683  -2.344  -0.042  0.00  0.00    +0.187 C 
ATOM      6  C   UNL     1       0.779  -2.006   1.175  0.00  0.00    +0.052 C 
ATOM      7  C   UNL     1       0.721  -0.501   1.270  0.00  0.00    +0.022 C 
ATOM      8  C   UNL     1      -0.607  -2.580   0.943  0.00  0.00    +0.008 C 
ATOM      9  C   UNL     1      -1.428  -2.544   1.993  0.00  0.00    +0.108 C 
ATOM     10  N   UNL     1      -1.002  -2.096   3.223  0.00  0.00    -0.260 N 
ATOM     11  C   UNL     1      -0.141  -2.932   4.069  0.00  0.00    +0.156 C 
ATOM     12  C   UNL     1       1.333  -2.598   3.734  0.00  0.00    +0.043 C 
ATOM     13  C   UNL     1       1.470  -2.797   2.242  0.00  0.00    -0.014 C 
ATOM     14  C   UNL     1       2.193  -3.721   1.623  0.00  0.00    +0.101 C 
ATOM     15  O   UNL     1       2.035  -3.678   0.269  0.00  0.00    -0.492 OA
ATOM     16  C   UNL     1       3.097  -4.664   2.388  0.00  0.00    +0.105 C 
ATOM     17  C   UNL     1       3.474  -3.949   3.694  0.00  0.00    +0.122 C 
ATOM     18  C   UNL     1       2.215  -3.591   4.492  0.00  0.00    +0.041 C 
ENDROOT
BRANCH  17  19
ATOM     19  O   UNL     1       4.301  -4.806   4.483  0.00  0.00    -0.391 OA
ATOM     20  H   UNL     1       5.126  -5.064   4.050  0.00  0.00    +0.210 HD
ENDBRANCH  17  19
BRANCH  10  21
ATOM     21  O   UNL     1      -1.397  -0.815   3.677  0.00  0.00    -0.275 OA
ATOM     22  C   UNL     1      -2.617  -0.813   4.421  0.00  0.00    +0.229 C 
ENDBRANCH  10  21
TORSDOF 2
