REMARK  Name = ZINC16024777
REMARK  7 active torsions:
REMARK  status: ('A' for Active; 'I' for Inactive)
REMARK    1  A    between atoms: C_1  and  C_2
REMARK    2  A    between atoms: C_2  and  C_3
REMARK    3  A    between atoms: C_3  and  C_4
REMARK    4  A    between atoms: C_4  and  N_5
REMARK    5  A    between atoms: C_10  and  C_28
REMARK    6  A    between atoms: C_28  and  C_29
REMARK    7  A    between atoms: C_29  and  C_30
REMARK                            x       y       z     vdW  Elec       q    Type
REMARK                         _______ _______ _______ _____ _____    ______ ____
ROOT
ATOM      1  N   UNL     1      -2.787  -2.571   0.015  0.00  0.00    -0.242 N 
ATOM      2  C   UNL     1      -3.457  -2.822   1.146  0.00  0.00    +0.227 C 
ATOM      3  O   UNL     1      -3.021  -2.669   2.267  0.00  0.00    -0.275 OA
ATOM      4  C   UNL     1      -4.841  -3.325   0.808  0.00  0.00    +0.107 C 
ATOM      5  C   UNL     1      -4.965  -4.803   1.231  0.00  0.00    +0.068 C 
ATOM      6  N   UNL     1      -4.453  -5.577   0.069  0.00  0.00    -0.295 NA
ATOM      7  C   UNL     1      -4.953  -4.839  -1.106  0.00  0.00    +0.136 C 
ATOM      8  C   UNL     1      -4.850  -3.336  -0.747  0.00  0.00    +0.122 C 
ATOM      9  C   UNL     1      -3.476  -2.815  -1.105  0.00  0.00    +0.228 C 
ATOM     10  O   UNL     1      -3.063  -2.647  -2.233  0.00  0.00    -0.275 OA
ATOM     11  C   UNL     1      -6.366  -5.225  -1.440  0.00  0.00    +0.005 A 
ATOM     12  C   UNL     1      -7.552  -5.176  -0.743  0.00  0.00    +0.008 A 
ATOM     13  C   UNL     1      -8.723  -5.615  -1.335  0.00  0.00    +0.002 A 
ATOM     14  C   UNL     1      -8.699  -6.103  -2.628  0.00  0.00    +0.022 A 
ATOM     15  C   UNL     1      -7.512  -6.155  -3.332  0.00  0.00    +0.062 A 
ATOM     16  C   UNL     1      -6.329  -5.714  -2.742  0.00  0.00    +0.057 A 
ATOM     17  N   UNL     1      -5.024  -5.666  -3.239  0.00  0.00    -0.282 N 
ATOM     18  C   UNL     1      -4.156  -5.165  -2.339  0.00  0.00    +0.243 C 
ATOM     19  O   UNL     1      -2.963  -5.006  -2.494  0.00  0.00    -0.273 OA
ATOM     20 CL   UNL     1      -7.494  -6.771  -4.955  0.00  0.00    -0.082 Cl
ATOM     21  H   UNL     1      -3.444  -5.610   0.073  0.00  0.00    +0.123 HD
ATOM     22  H   UNL     1      -4.772  -5.959  -4.129  0.00  0.00    +0.155 HD
ENDROOT
BRANCH   1  23
ATOM     23  C   UNL     1      -1.413  -2.063   0.004  0.00  0.00    +0.116 C 
BRANCH  23  24
ATOM     24  C   UNL     1      -1.433  -0.534   0.013  0.00  0.00    +0.019 C 
BRANCH  24  26
ATOM     25  C   UNL     1      -0.019   1.526   0.010  0.00  0.00    +0.004 C 
ATOM     26  C   UNL     1       0.002  -0.004   0.002  0.00  0.00    -0.002 C 
ENDBRANCH  24  26
ENDBRANCH  23  24
ENDBRANCH   1  23
BRANCH   5  27
ATOM     27  C   UNL     1      -4.113  -5.075   2.472  0.00  0.00    +0.028 C 
BRANCH  27  28
ATOM     28  C   UNL     1      -4.346  -6.511   2.947  0.00  0.00    +0.097 C 
BRANCH  28  29
ATOM     29  C   UNL     1      -3.506  -6.778   4.169  0.00  0.00    +0.211 C 
ATOM     30  O   UNL     1      -2.791  -5.907   4.616  0.00  0.00    -0.276 OA
ATOM     31  N   UNL     1      -3.550  -7.986   4.765  0.00  0.00    -0.329 N 
ATOM     32  H   UNL     1      -4.122  -8.684   4.407  0.00  0.00    +0.145 HD
ATOM     33  H   UNL     1      -3.009  -8.159   5.552  0.00  0.00    +0.145 HD
ENDBRANCH  28  29
ENDBRANCH  27  28
ENDBRANCH   5  27
TORSDOF 6
