REMARK  Name = ZINC46719490
REMARK  5 active torsions:
REMARK  status: ('A' for Active; 'I' for Inactive)
REMARK    1  A    between atoms: C_4  and  N_6
REMARK    2  A    between atoms: N_6  and  C_7
REMARK    3  A    between atoms: N_6  and  C_26
REMARK    4  A    between atoms: C_7  and  N_8
REMARK    5  A    between atoms: N_13  and  C_16
REMARK                            x       y       z     vdW  Elec       q    Type
REMARK                         _______ _______ _______ _____ _____    ______ ____
ROOT
ATOM      1  N   UNL     1       2.090  -2.562  -3.612  0.00  0.00    -0.235 N 
ATOM      2  C   UNL     1       1.875  -3.894  -3.666  0.00  0.00    +0.308 C 
ATOM      3  O   UNL     1       1.898  -4.680  -2.741  0.00  0.00    -0.265 OA
ATOM      4  C   UNL     1       1.602  -4.197  -5.109  0.00  0.00    +0.310 C 
ATOM      5  O   UNL     1       1.357  -5.279  -5.599  0.00  0.00    -0.264 OA
ATOM      6  N   UNL     1       1.686  -3.010  -5.747  0.00  0.00    -0.212 N 
ATOM      7  C   UNL     1       1.970  -2.053  -4.849  0.00  0.00    +0.317 C 
ATOM      8  O   UNL     1       2.104  -0.877  -5.121  0.00  0.00    -0.252 OA
ENDROOT
BRANCH   6   9
ATOM      9  C   UNL     1       1.494  -2.800  -7.184  0.00  0.00    +0.047 C 
ATOM     10  C   UNL     1       2.770  -2.211  -7.789  0.00  0.00    +0.030 C 
ATOM     11  C   UNL     1       2.569  -1.992  -9.290  0.00  0.00    -0.008 C 
ATOM     12  C   UNL     1       2.256  -3.329  -9.963  0.00  0.00    +0.007 C 
ATOM     13  C   UNL     1       0.979  -3.918  -9.359  0.00  0.00    -0.008 C 
ATOM     14  C   UNL     1       1.180  -4.138  -7.858  0.00  0.00    +0.030 C 
ATOM     15  C   UNL     1      -0.184  -2.950  -9.581  0.00  0.00    +0.007 C 
ATOM     16  C   UNL     1       0.129  -1.612  -8.908  0.00  0.00    -0.008 C 
ATOM     17  C   UNL     1       1.405  -1.024  -9.512  0.00  0.00    +0.007 C 
ATOM     18  C   UNL     1       0.330  -1.832  -7.407  0.00  0.00    +0.030 C 
ENDBRANCH   6   9
BRANCH   1  19
ATOM     19  C   UNL     1       2.399  -1.796  -2.402  0.00  0.00    +0.044 C 
BRANCH  19  20
ATOM     20  N   UNL     1       1.148  -1.353  -1.771  0.00  0.00    +0.394 N 
ATOM     21  H   UNL     1       1.361  -0.785  -0.965  0.00  0.00    -0.079 HD
BRANCH  20  25
ATOM     22  C   UNL     1      -0.992  -2.585   0.709  0.00  0.00    -0.002 C 
ATOM     23  C   UNL     1      -0.002  -3.777   0.708  0.00  0.00    -0.002 C 
ATOM     24  C   UNL     1       1.119  -3.290  -0.242  0.00  0.00    -0.015 C 
ATOM     25  C   UNL     1       0.369  -2.525  -1.352  0.00  0.00    -0.066 C 
ATOM     26  C   UNL     1      -0.973  -2.077  -0.747  0.00  0.00    -0.015 C 
ENDBRANCH  20  25
BRANCH  20  27
ATOM     27  C   UNL     1       0.367  -0.564  -2.734  0.00  0.00    -0.066 C 
ATOM     28  C   UNL     1      -0.248   0.746  -2.239  0.00  0.00    -0.017 C 
ATOM     29  C   UNL     1       0.951   0.775  -3.188  0.00  0.00    -0.017 C 
ENDBRANCH  20  27
ENDBRANCH  19  20
ENDBRANCH   1  19
TORSDOF 5
