REMARK  Name = ZINC17214501
REMARK  6 active torsions:
REMARK  status: ('A' for Active; 'I' for Inactive)
REMARK    1  A    between atoms: C_1  and  C_2
REMARK    2  A    between atoms: C_3  and  O_22
REMARK    3  A    between atoms: N_5  and  C_11
REMARK    4  A    between atoms: C_16  and  C_19
REMARK    5  A    between atoms: C_19  and  O_20
REMARK    6  A    between atoms: O_22  and  C_23
REMARK                            x       y       z     vdW  Elec       q    Type
REMARK                         _______ _______ _______ _____ _____    ______ ____
ROOT
ATOM      1  C   UNL     1      -0.765   2.307  -1.226  0.00  0.00    +0.042 C 
ATOM      2  C   UNL     1      -0.022   1.799   0.012  0.00  0.00    +0.161 C 
ATOM      3  C   UNL     1      -0.732   2.294   1.274  0.00  0.00    +0.241 C 
ATOM      4  N   UNL     1      -0.478   3.725   1.449  0.00  0.00    -0.231 N 
ATOM      5  C   UNL     1       0.708   4.261   1.118  0.00  0.00    +0.312 C 
ATOM      6  O   UNL     1       0.921   5.431   1.372  0.00  0.00    -0.252 OA
ATOM      7  N   UNL     1       1.663   3.536   0.513  0.00  0.00    -0.238 N 
ATOM      8  C   UNL     1       1.392   2.322   0.001  0.00  0.00    +0.245 C 
ATOM      9  O   UNL     1       2.284   1.649  -0.469  0.00  0.00    -0.273 OA
ATOM     10 CL   UNL     1       0.002  -0.004   0.002  0.00  0.00    -0.104 Cl
ATOM     11  H   UNL     1       2.562   3.894   0.445  0.00  0.00    +0.159 HD
ENDROOT
BRANCH   4  12
ATOM     12  C   UNL     1      -1.534   4.584   1.992  0.00  0.00    +0.215 C 
ATOM     13  C   UNL     1      -1.098   5.150   3.357  0.00  0.00    +0.091 C 
ATOM     14  C   UNL     1      -1.148   6.686   3.165  0.00  0.00    +0.201 C 
ATOM     15  C   UNL     1      -2.098   6.830   1.949  0.00  0.00    +0.180 C 
ATOM     16  O   UNL     1      -1.752   5.703   1.115  0.00  0.00    -0.350 OA
ATOM     17  F   UNL     1       0.122   7.194   2.869  0.00  0.00    -0.243 F 
BRANCH  15  18
ATOM     18  C   UNL     1      -1.838   8.147   1.215  0.00  0.00    +0.190 C 
BRANCH  18  19
ATOM     19  O   UNL     1      -2.801   8.309   0.172  0.00  0.00    -0.392 OA
ATOM     20  H   UNL     1      -2.696   9.125  -0.337  0.00  0.00    +0.210 HD
ENDBRANCH  18  19
ENDBRANCH  15  18
ENDBRANCH   4  12
BRANCH   3  21
ATOM     21  O   UNL     1      -0.237   1.580   2.409  0.00  0.00    -0.359 OA
ATOM     22  C   UNL     1      -1.050   1.711   3.578  0.00  0.00    +0.196 C 
ENDBRANCH   3  21
TORSDOF 4
