REMARK  Name = ZINC64026062
REMARK  5 active torsions:
REMARK  status: ('A' for Active; 'I' for Inactive)
REMARK    1  A    between atoms: C_1  and  C_2
REMARK    2  A    between atoms: C_3  and  C_26
REMARK    3  A    between atoms: N_5  and  C_11
REMARK    4  A    between atoms: C_8  and  C_9
REMARK    5  A    between atoms: C_11  and  C_12
REMARK                            x       y       z     vdW  Elec       q    Type
REMARK                         _______ _______ _______ _____ _____    ______ ____
ROOT
ATOM      1  C   UNL     1      -0.225  -4.542   1.475  0.00  0.00    +0.154 A 
ATOM      2  N   UNL     1       0.913  -4.840   2.077  0.00  0.00    -0.215 NA
ATOM      3  C   UNL     1       0.951  -5.458   3.246  0.00  0.00    +0.128 A 
ATOM      4  C   UNL     1      -0.271  -5.814   3.881  0.00  0.00    +0.051 A 
ATOM      5  C   UNL     1      -0.475  -6.495   5.161  0.00  0.00    -0.025 A 
ATOM      6  C   UNL     1      -1.750  -6.716   5.540  0.00  0.00    -0.004 A 
ATOM      7  S   UNL     1      -2.744  -6.040   4.237  0.00  0.00    -0.073 S 
ATOM      8  C   UNL     1      -1.442  -5.462   3.180  0.00  0.00    +0.114 A 
ATOM      9  N   UNL     1      -1.389  -4.841   2.018  0.00  0.00    -0.223 NA
ATOM     10  C   UNL     1      -2.220  -7.389   6.794  0.00  0.00    +0.043 C 
ATOM     11  C   UNL     1      -1.032  -8.130   7.422  0.00  0.00    +0.005 C 
ATOM     12  C   UNL     1       0.172  -7.183   7.460  0.00  0.00    +0.005 C 
ATOM     13  C   UNL     1       0.689  -6.944   6.041  0.00  0.00    +0.037 C 
ATOM     14  N   UNL     1       2.163  -5.753   3.844  0.00  0.00    -0.343 N 
ATOM     15  H   UNL     1       2.974  -5.319   3.536  0.00  0.00    +0.144 HD
ATOM     16  H   UNL     1       2.203  -6.396   4.569  0.00  0.00    +0.144 HD
ENDROOT
BRANCH   1  17
ATOM     17  C   UNL     1      -0.192  -3.838   0.143  0.00  0.00    +0.223 C 
BRANCH  17  22
ATOM     18  C   UNL     1      -0.416   1.809   0.970  0.00  0.00    +0.047 C 
ATOM     19  C   UNL     1      -0.288   0.323   0.754  0.00  0.00    -0.005 A 
ATOM     20  C   UNL     1      -1.422  -0.485   0.607  0.00  0.00    +0.063 A 
ATOM     21  N   UNL     1      -1.315  -1.770   0.420  0.00  0.00    -0.173 NA
ATOM     22  N   UNL     1      -0.195  -2.389   0.356  0.00  0.00    -0.221 N 
ATOM     23  C   UNL     1       0.982  -1.742   0.480  0.00  0.00    +0.285 A 
ATOM     24  O   UNL     1       2.037  -2.349   0.417  0.00  0.00    -0.265 OA
ATOM     25  C   UNL     1       0.963  -0.288   0.688  0.00  0.00    +0.122 A 
ATOM     26  C   UNL     1      -2.791   0.143   0.667  0.00  0.00    +0.068 C 
BRANCH  25  27
ATOM     27  C   UNL     1       2.173   0.465   0.823  0.00  0.00    +0.105 C 
ATOM     28  N   UNL     1       3.133   1.063   0.929  0.00  0.00    -0.191 NA
ENDBRANCH  25  27
ENDBRANCH  17  22
ENDBRANCH   1  17
TORSDOF 3
