REMARK  Name = ZINC43221873
REMARK  12 active torsions:
REMARK  status: ('A' for Active; 'I' for Inactive)
REMARK    1  A    between atoms: C_1  and  C_2
REMARK    2  A    between atoms: C_2  and  C_3
REMARK    3  A    between atoms: C_7  and  C_41
REMARK    4  A    between atoms: C_8  and  N_9
REMARK    5  A    between atoms: C_14  and  C_29
REMARK    6  A    between atoms: C_17  and  C_22
REMARK    7  A    between atoms: C_17  and  C_26
REMARK    8  A    between atoms: C_22  and  C_24
REMARK    9  A    between atoms: C_22  and  O_25
REMARK   10  A    between atoms: C_32  and  O_39
REMARK   11  A    between atoms: O_39  and  C_40
REMARK   12  A    between atoms: C_41  and  C_42
REMARK                            x       y       z     vdW  Elec       q    Type
REMARK                         _______ _______ _______ _____ _____    ______ ____
ROOT
ATOM      1  N   UNL     1      -1.410  -0.124  -2.622  0.00  0.00    -0.209 N 
ATOM      2  C   UNL     1      -1.404   1.082  -3.277  0.00  0.00    +0.229 C 
ATOM      3  O   UNL     1      -1.737   2.164  -2.843  0.00  0.00    -0.275 OA
ATOM      4  C   UNL     1      -0.913   0.775  -4.601  0.00  0.00    +0.077 C 
ATOM      5  C   UNL     1      -0.326   1.445  -5.769  0.00  0.00    -0.026 C 
ATOM      6  N   UNL     1       0.322   0.337  -6.546  0.00  0.00    +0.397 N 
ATOM      7  C   UNL     1       0.193  -0.917  -5.735  0.00  0.00    +0.074 C 
ATOM      8  C   UNL     1       0.139  -0.365  -4.294  0.00  0.00    +0.089 C 
ATOM      9  C   UNL     1      -0.710  -1.090  -3.286  0.00  0.00    +0.229 C 
ATOM     10  O   UNL     1      -0.763  -2.288  -3.103  0.00  0.00    -0.275 OA
ATOM     11  H   UNL     1      -0.146   0.221  -7.432  0.00  0.00    -0.083 HD
ATOM     12  H   UNL     1       1.297   0.548  -6.697  0.00  0.00    -0.083 HD
ENDROOT
BRANCH   5  13
ATOM     13  C   UNL     1       0.702   2.458  -5.335  0.00  0.00    -0.053 A 
ATOM     14  C   UNL     1       2.012   2.100  -5.230  0.00  0.00    +0.006 A 
ATOM     15  C   UNL     1       2.978   3.020  -4.831  0.00  0.00    +0.046 A 
ATOM     16  C   UNL     1       2.639   4.309  -4.532  0.00  0.00    +0.128 A 
ATOM     17  C   UNL     1       1.292   4.714  -4.630  0.00  0.00    +0.024 A 
ATOM     18  C   UNL     1       0.313   3.776  -5.042  0.00  0.00    -0.013 A 
ATOM     19  C   UNL     1      -1.029   4.181  -5.144  0.00  0.00    +0.009 A 
ATOM     20  C   UNL     1      -1.369   5.466  -4.851  0.00  0.00    +0.001 A 
ATOM     21  C   UNL     1      -0.405   6.389  -4.452  0.00  0.00    +0.001 A 
ATOM     22  C   UNL     1       0.902   6.030  -4.331  0.00  0.00    +0.012 A 
BRANCH  16  23
ATOM     23  O   UNL     1       3.592   5.194  -4.143  0.00  0.00    -0.495 OA
ATOM     24  C   UNL     1       4.935   4.710  -4.067  0.00  0.00    +0.277 C 
ENDBRANCH  16  23
ENDBRANCH   5  13
BRANCH   1  30
ATOM     25  C   UNL     1      -1.383  -0.125  -0.204  0.00  0.00    -0.026 A 
ATOM     26  C   UNL     1      -2.027  -0.332   1.000  0.00  0.00    +0.005 A 
ATOM     27  C   UNL     1      -3.343  -0.757   1.017  0.00  0.00    +0.001 A 
ATOM     28  C   UNL     1      -4.018  -0.976  -0.170  0.00  0.00    +0.005 A 
ATOM     29  C   UNL     1      -3.379  -0.770  -1.377  0.00  0.00    -0.026 A 
ATOM     30  C   UNL     1      -2.059  -0.339  -1.398  0.00  0.00    +0.050 A 
BRANCH  25  32
ATOM     31  C   UNL     1       0.093   1.862  -0.349  0.00  0.00    +0.009 C 
ATOM     32  C   UNL     1       0.051   0.338  -0.223  0.00  0.00    +0.033 C 
ENDBRANCH  25  32
BRANCH  29  33
ATOM     33  C   UNL     1      -4.115  -1.008  -2.670  0.00  0.00    +0.033 C 
ATOM     34  C   UNL     1      -3.820  -2.423  -3.172  0.00  0.00    +0.009 C 
ENDBRANCH  29  33
ENDBRANCH   1  30
BRANCH   7  35
ATOM     35  C   UNL     1       1.403  -1.797  -5.916  0.00  0.00    +0.349 C 
ATOM     36  O   UNL     1       2.299  -1.455  -6.668  0.00  0.00    -0.248 OA
ATOM     37  O   UNL     1       1.486  -2.852  -5.309  0.00  0.00    -0.248 OA
ENDBRANCH   7  35
BRANCH   7  38
ATOM     38  C   UNL     1      -1.087  -1.671  -6.101  0.00  0.00    +0.112 C 
ATOM     39  C   UNL     1      -1.091  -1.970  -7.602  0.00  0.00    +0.037 C 
BRANCH  38  40
ATOM     40  O   UNL     1      -1.144  -2.898  -5.371  0.00  0.00    -0.393 OA
ATOM     41  H   UNL     1      -0.402  -3.494  -5.545  0.00  0.00    +0.210 HD
ENDBRANCH  38  40
ENDBRANCH   7  38
TORSDOF 8
