REMARK  Name = ZINC00195599
REMARK  2 active torsions:
REMARK  status: ('A' for Active; 'I' for Inactive)
REMARK    1  A    between atoms: C_12  and  C_23
REMARK    2  A    between atoms: N_14  and  C_15
REMARK                            x       y       z     vdW  Elec       q    Type
REMARK                         _______ _______ _______ _____ _____    ______ ____
ROOT
ATOM      1  C   UNL     1       4.788   1.599  -0.033  0.00  0.00    +0.001 A 
ATOM      2  C   UNL     1       4.857   0.210  -0.038  0.00  0.00    +0.001 A 
ATOM      3  C   UNL     1       3.722  -0.548  -0.038  0.00  0.00    +0.009 A 
ATOM      4  C   UNL     1       2.473   0.079  -0.032  0.00  0.00    -0.007 A 
ATOM      5  C   UNL     1       2.398   1.492  -0.026  0.00  0.00    -0.017 A 
ATOM      6  C   UNL     1       3.586   2.241  -0.028  0.00  0.00    +0.008 A 
ATOM      7  C   UNL     1       1.138   2.121  -0.018  0.00  0.00    +0.012 A 
ATOM      8  C   UNL     1      -0.009   1.393  -0.008  0.00  0.00    +0.047 A 
ATOM      9  C   UNL     1       0.007  -0.003  -0.009  0.00  0.00    +0.138 A 
ATOM     10  C   UNL     1       1.228  -0.692  -0.034  0.00  0.00    +0.026 A 
ATOM     11  C   UNL     1       1.251  -2.102  -0.067  0.00  0.00    +0.030 A 
ATOM     12  C   UNL     1       0.051  -2.772  -0.282  0.00  0.00    +0.099 A 
ATOM     13  C   UNL     1      -1.153  -1.945  -0.493  0.00  0.00    +0.233 A 
ATOM     14  N   UNL     1      -2.184  -2.402  -1.171  0.00  0.00    -0.210 NA
ATOM     15  O   UNL     1      -1.158  -0.696   0.038  0.00  0.00    -0.437 OA
ENDROOT
BRANCH  14  16
ATOM     16  C   UNL     1      -3.328  -1.658  -1.261  0.00  0.00    +0.103 A 
ATOM     17  C   UNL     1      -4.295  -1.733  -0.257  0.00  0.00    +0.031 A 
ATOM     18  C   UNL     1      -5.444  -0.975  -0.351  0.00  0.00    +0.002 A 
ATOM     19  C   UNL     1      -5.645  -0.149  -1.443  0.00  0.00    +0.003 A 
ATOM     20  C   UNL     1      -4.694  -0.072  -2.446  0.00  0.00    +0.040 A 
ATOM     21  C   UNL     1      -3.537  -0.821  -2.362  0.00  0.00    +0.149 A 
ATOM     22  F   UNL     1      -2.609  -0.746  -3.342  0.00  0.00    -0.203 F 
ENDBRANCH  14  16
BRANCH  12  23
ATOM     23  C   UNL     1      -0.015  -4.242  -0.299  0.00  0.00    +0.247 C 
ATOM     24  O   UNL     1       0.994  -4.898  -0.122  0.00  0.00    -0.270 OA
ATOM     25  N   UNL     1      -1.193  -4.862  -0.510  0.00  0.00    -0.325 N 
ATOM     26  H   UNL     1      -1.997  -4.339  -0.652  0.00  0.00    +0.145 HD
ATOM     27  H   UNL     1      -1.236  -5.831  -0.521  0.00  0.00    +0.145 HD
ENDBRANCH  12  23
TORSDOF 2
