REMARK  Name = ZINC63818686
REMARK  3 active torsions:
REMARK  status: ('A' for Active; 'I' for Inactive)
REMARK    1  A    between atoms: C_1  and  N_2
REMARK    2  A    between atoms: C_10  and  C_11
REMARK    3  A    between atoms: N_13  and  C_14
REMARK                            x       y       z     vdW  Elec       q    Type
REMARK                         _______ _______ _______ _____ _____    ______ ____
ROOT
ATOM      1  C   UNL     1       0.206  -4.607   1.135  0.00  0.00    +0.249 C 
ATOM      2  O   UNL     1       0.328  -4.867  -0.047  0.00  0.00    -0.270 OA
ATOM      3  N   UNL     1       0.087  -5.604   2.035  0.00  0.00    -0.281 N 
ATOM      4  H   UNL     1       0.063  -5.401   2.983  0.00  0.00    +0.155 HD
ENDROOT
BRANCH   1  14
ATOM      5  C   UNL     1       0.465   1.440  -0.028  0.00  0.00    +0.149 C 
ATOM      6  N   UNL     1       0.432  -0.024  -0.025  0.00  0.00    -0.350 N 
ATOM      7  C   UNL     1       0.534  -0.823  -1.130  0.00  0.00    +0.086 A 
ATOM      8  C   UNL     1       0.466  -2.114  -0.760  0.00  0.00    +0.028 A 
ATOM      9  C   UNL     1       0.313  -2.156   0.647  0.00  0.00    +0.012 A 
ATOM     10  C   UNL     1       0.300  -0.822   1.092  0.00  0.00    +0.050 A 
ATOM     11  C   UNL     1       0.167  -0.550   2.447  0.00  0.00    +0.026 A 
ATOM     12  C   UNL     1       0.051  -1.583   3.357  0.00  0.00    +0.003 A 
ATOM     13  C   UNL     1       0.066  -2.900   2.937  0.00  0.00    +0.014 A 
ATOM     14  C   UNL     1       0.188  -3.204   1.583  0.00  0.00    +0.046 A 
ENDBRANCH   1  14
BRANCH   3  15
ATOM     15  C   UNL     1      -0.002  -6.918   1.605  0.00  0.00    +0.034 C 
ATOM     16  C   UNL     1       0.910  -7.862   2.058  0.00  0.00    +0.029 C 
ATOM     17  C   UNL     1       0.757  -9.142   1.513  0.00  0.00    -0.016 C 
ATOM     18  C   UNL     1       1.008 -10.377   1.992  0.00  0.00    +0.025 C 
ATOM     19  C   UNL     1       0.410 -11.335   1.150  0.00  0.00    +0.106 C 
ATOM     20  N   UNL     1      -0.135 -10.793   0.096  0.00  0.00    -0.279 NA
ATOM     21  C   UNL     1       0.163  -9.368   0.132  0.00  0.00    +0.158 C 
ATOM     22  C   UNL     1      -1.025  -8.466  -0.010  0.00  0.00    +0.006 C 
ATOM     23  C   UNL     1      -1.063  -7.320   0.676  0.00  0.00    +0.021 C 
ENDBRANCH   3  15
TORSDOF 2
