REMARK  Name = ZINC19793450
REMARK  10 active torsions:
REMARK  status: ('A' for Active; 'I' for Inactive)
REMARK    1  A    between atoms: C_1  and  C_2
REMARK    2  A    between atoms: C_2  and  C_3
REMARK    3  A    between atoms: C_3  and  O_4
REMARK    4  A    between atoms: O_4  and  C_5
REMARK    5  A    between atoms: C_5  and  C_7
REMARK    6  A    between atoms: C_14  and  C_18
REMARK    7  A    between atoms: C_15  and  C_17
REMARK    8  A    between atoms: C_18  and  N_19
REMARK    9  A    between atoms: C_24  and  C_26
REMARK   10  A    between atoms: C_26  and  C_27
REMARK                            x       y       z     vdW  Elec       q    Type
REMARK                         _______ _______ _______ _____ _____    ______ ____
ROOT
ATOM      1  C   UNL     1      -1.397   0.505  -0.631  0.00  0.00    +0.060 A 
ATOM      2  C   UNL     1      -1.115   1.883  -0.614  0.00  0.00    +0.017 A 
ATOM      3  C   UNL     1      -2.112   2.797  -0.502  0.00  0.00    +0.027 A 
ATOM      4  C   UNL     1      -3.451   2.373  -0.401  0.00  0.00    +0.050 A 
ATOM      5  C   UNL     1      -3.745   0.987  -0.417  0.00  0.00    +0.046 A 
ATOM      6  C   UNL     1      -2.707   0.057  -0.539  0.00  0.00    +0.028 A 
ATOM      7  C   UNL     1      -5.093   0.572  -0.316  0.00  0.00    +0.191 A 
ATOM      8  C   UNL     1      -6.066   1.550  -0.204  0.00  0.00    +0.002 A 
ATOM      9  C   UNL     1      -5.697   2.889  -0.196  0.00  0.00    +0.018 A 
ATOM     10  N   UNL     1      -4.442   3.263  -0.291  0.00  0.00    -0.358 N 
ATOM     11  C   UNL     1      -6.768   3.942  -0.075  0.00  0.00    +0.063 C 
ATOM     12  O   UNL     1      -5.423  -0.743  -0.326  0.00  0.00    -0.287 OA
ATOM     13  H   UNL     1      -4.216   4.339  -0.278  0.00  0.00    +0.166 HD
ENDROOT
BRANCH   1  14
ATOM     14  C   UNL     1      -0.295  -0.469  -0.754  0.00  0.00    +0.339 C 
ATOM     15  O   UNL     1      -0.535  -1.659  -0.769  0.00  0.00    -0.245 OA
BRANCH  14  16
ATOM     16  O   UNL     1       0.977  -0.037  -0.855  0.00  0.00    -0.461 OA
BRANCH  16  17
ATOM     17  C   UNL     1       2.009  -1.050  -0.979  0.00  0.00    +0.232 C 
BRANCH  17  19
ATOM     18  C   UNL     1       4.466  -1.442  -1.211  0.00  0.00    +0.007 C 
ATOM     19  C   UNL     1       3.378  -0.374  -1.081  0.00  0.00    +0.038 C 
ENDBRANCH  17  19
ENDBRANCH  16  17
ENDBRANCH  14  16
ENDBRANCH   1  14
BRANCH   8  20
ATOM     20  C   UNL     1      -7.519   1.165  -0.093  0.00  0.00    -0.037 C 
BRANCH  20  21
ATOM     21  N   UNL     1      -7.874   0.998   1.322  0.00  0.00    +0.384 N 
ATOM     22  C   UNL     1      -7.065  -0.055   1.948  0.00  0.00    -0.078 C 
ATOM     23  C   UNL     1      -7.358  -0.101   3.449  0.00  0.00    -0.019 C 
ATOM     24  C   UNL     1      -8.848  -0.380   3.666  0.00  0.00    -0.003 C 
ATOM     25  C   UNL     1      -9.669   0.704   2.963  0.00  0.00    -0.015 C 
ATOM     26  C   UNL     1      -9.309   0.727   1.476  0.00  0.00    -0.068 C 
ATOM     27  H   UNL     1      -7.654   1.943   1.841  0.00  0.00    -0.081 HD
BRANCH  26  28
ATOM     28  C   UNL     1     -10.114   1.823   0.774  0.00  0.00    -0.019 C 
ATOM     29  C   UNL     1     -11.604   1.481   0.835  0.00  0.00    +0.002 C 
ENDBRANCH  26  28
ENDBRANCH  20  21
ENDBRANCH   8  20
TORSDOF 7
