REMARK  Name = ZINC40149732
REMARK  9 active torsions:
REMARK  status: ('A' for Active; 'I' for Inactive)
REMARK    1  A    between atoms: C_1  and  C_2
REMARK    2  A    between atoms: C_2  and  N_3
REMARK    3  A    between atoms: N_3  and  C_4
REMARK    4  A    between atoms: N_3  and  S_6
REMARK    5  A    between atoms: C_4  and  C_5
REMARK    6  A    between atoms: S_6  and  C_9
REMARK    7  A    between atoms: C_12  and  S_15
REMARK    8  A    between atoms: S_15  and  N_18
REMARK    9  A    between atoms: C_21  and  N_24
REMARK                            x       y       z     vdW  Elec       q    Type
REMARK                         _______ _______ _______ _____ _____    ______ ____
ROOT
ATOM      1  S   UNL     1      -4.952   4.231   3.638  0.00  0.00    +0.061 S 
ATOM      2  O   UNL     1      -6.346   3.960   3.623  0.00  0.00    -0.153 OA
ATOM      3  O   UNL     1      -4.261   4.605   4.823  0.00  0.00    -0.153 OA
ENDROOT
BRANCH   1   7
ATOM      4  C   UNL     1      -2.894   0.521   2.060  0.00  0.00    +0.106 A 
ATOM      5  C   UNL     1      -2.206   1.399   2.877  0.00  0.00    +0.030 A 
ATOM      6  C   UNL     1      -2.834   2.532   3.359  0.00  0.00    +0.030 A 
ATOM      7  C   UNL     1      -4.150   2.788   3.023  0.00  0.00    +0.106 A 
ATOM      8  C   UNL     1      -4.838   1.911   2.205  0.00  0.00    +0.030 A 
ATOM      9  C   UNL     1      -4.208   0.780   1.720  0.00  0.00    +0.030 A 
BRANCH   4  10
ATOM     10  S   UNL     1      -2.093  -0.923   1.445  0.00  0.00    +0.061 S 
ATOM     11  O   UNL     1      -3.119  -1.858   1.141  0.00  0.00    -0.153 OA
ATOM     12  O   UNL     1      -1.037  -1.218   2.350  0.00  0.00    -0.153 OA
BRANCH  10  13
ATOM     13  N   UNL     1      -1.383  -0.514   0.006  0.00  0.00    -0.177 NA
BRANCH  13  15
ATOM     14  C   UNL     1      -0.029   1.522  -0.010  0.00  0.00    +0.022 C 
ATOM     15  C   UNL     1      -0.009  -0.007  -0.015  0.00  0.00    +0.106 C 
ENDBRANCH  13  15
BRANCH  13  16
ATOM     16  C   UNL     1      -2.129  -0.660  -1.246  0.00  0.00    +0.106 C 
ATOM     17  C   UNL     1      -1.797  -2.010  -1.884  0.00  0.00    +0.022 C 
ENDBRANCH  13  16
ENDBRANCH  10  13
ENDBRANCH   4  10
ENDBRANCH   1   7
BRANCH   1  18
ATOM     18  N   UNL     1      -4.693   5.442   2.538  0.00  0.00    -0.177 NA
ATOM     19  C   UNL     1      -3.514   6.312   2.646  0.00  0.00    +0.108 C 
ATOM     20  C   UNL     1      -3.979   7.772   2.649  0.00  0.00    +0.002 C 
ATOM     21  C   UNL     1      -4.840   8.032   1.412  0.00  0.00    -0.066 C 
ATOM     22  C   UNL     1      -6.077   7.132   1.451  0.00  0.00    +0.002 C 
ATOM     23  C   UNL     1      -5.634   5.661   1.431  0.00  0.00    +0.108 C 
BRANCH  21  24
ATOM     24  N   UNL     1      -5.260   9.440   1.394  0.00  0.00    +0.385 N 
ATOM     25  C   UNL     1      -5.968   9.727   0.137  0.00  0.00    -0.073 C 
ATOM     26  C   UNL     1      -6.658  11.086   0.265  0.00  0.00    +0.017 C 
ATOM     27  C   UNL     1      -5.668  12.117   0.744  0.00  0.00    -0.048 A 
ATOM     28  C   UNL     1      -5.983  13.459   0.600  0.00  0.00    +0.004 A 
ATOM     29  C   UNL     1      -5.102  14.431   1.029  0.00  0.00    +0.000 A 
ATOM     30  C   UNL     1      -3.901  14.064   1.607  0.00  0.00    +0.000 A 
ATOM     31  C   UNL     1      -3.586  12.728   1.750  0.00  0.00    +0.002 A 
ATOM     32  C   UNL     1      -4.468  11.750   1.317  0.00  0.00    -0.061 A 
ATOM     33  C   UNL     1      -4.080  10.304   1.485  0.00  0.00    -0.042 C 
ATOM     34  H   UNL     1      -5.872   9.619   2.176  0.00  0.00    -0.081 HD
ENDBRANCH  21  24
ENDBRANCH   1  18
TORSDOF 7
