REMARK  Name = ZINC13940913
REMARK  4 active torsions:
REMARK  status: ('A' for Active; 'I' for Inactive)
REMARK    1  A    between atoms: C_1  and  C_2
REMARK    2  A    between atoms: C_7  and  N_8
REMARK    3  A    between atoms: C_10  and  C_19
REMARK    4  A    between atoms: C_22  and  C_24
REMARK                            x       y       z     vdW  Elec       q    Type
REMARK                         _______ _______ _______ _____ _____    ______ ____
ROOT
ATOM      1  N   UNL     1      -3.886   2.763   0.542  0.00  0.00    -0.212 NA
ATOM      2  C   UNL     1      -3.783   1.525   0.109  0.00  0.00    +0.233 A 
ATOM      3  C   UNL     1      -2.478   0.835   0.081  0.00  0.00    +0.100 A 
ATOM      4  C   UNL     1      -2.493  -0.551   0.166  0.00  0.00    +0.030 A 
ATOM      5  C   UNL     1      -3.799  -1.204   0.288  0.00  0.00    +0.018 A 
ATOM      6  C   UNL     1      -3.897  -2.552   0.651  0.00  0.00    +0.011 A 
ATOM      7  C   UNL     1      -5.128  -3.137   0.759  0.00  0.00    +0.001 A 
ATOM      8  C   UNL     1      -6.280  -2.405   0.512  0.00  0.00    +0.004 A 
ATOM      9  C   UNL     1      -6.205  -1.074   0.151  0.00  0.00    +0.047 A 
ATOM     10  C   UNL     1      -4.967  -0.461   0.033  0.00  0.00    +0.138 A 
ATOM     11  O   UNL     1      -4.873   0.843  -0.325  0.00  0.00    -0.437 OA
ENDROOT
BRANCH   1  18
ATOM     12  C   UNL     1      -4.402   4.234  -1.834  0.00  0.00    +0.046 C 
ATOM     13  C   UNL     1      -5.387   4.162  -0.696  0.00  0.00    -0.025 A 
ATOM     14  C   UNL     1      -6.594   4.824  -0.783  0.00  0.00    +0.005 A 
ATOM     15  C   UNL     1      -7.500   4.758   0.261  0.00  0.00    +0.000 A 
ATOM     16  C   UNL     1      -7.203   4.027   1.398  0.00  0.00    +0.002 A 
ATOM     17  C   UNL     1      -6.003   3.355   1.496  0.00  0.00    +0.028 A 
ATOM     18  C   UNL     1      -5.080   3.422   0.449  0.00  0.00    +0.071 A 
ENDBRANCH   1  18
BRANCH   3  19
ATOM     19  C   UNL     1      -1.216   1.583  -0.039  0.00  0.00    +0.255 C 
ATOM     20  O   UNL     1      -1.234   2.797  -0.117  0.00  0.00    -0.270 OA
ATOM     21  N   UNL     1      -0.041   0.924  -0.061  0.00  0.00    -0.252 N 
ATOM     22  C   UNL     1       1.114   1.609  -0.176  0.00  0.00    +0.216 C 
ATOM     23  O   UNL     1       1.096   2.818  -0.255  0.00  0.00    -0.276 OA
ATOM     24  C   UNL     1       2.428   0.871  -0.208  0.00  0.00    +0.109 C 
ATOM     25  H   UNL     1      -0.027  -0.044   0.001  0.00  0.00    +0.158 HD
ENDBRANCH   3  19
TORSDOF 2
