REMARK  Name = ZINC63885150
REMARK  5 active torsions:
REMARK  status: ('A' for Active; 'I' for Inactive)
REMARK    1  A    between atoms: C_1  and  C_2
REMARK    2  A    between atoms: C_2  and  C_3
REMARK    3  A    between atoms: C_2  and  C_4
REMARK    4  A    between atoms: C_19  and  C_21
REMARK    5  A    between atoms: C_21  and  N_22
REMARK                            x       y       z     vdW  Elec       q    Type
REMARK                         _______ _______ _______ _____ _____    ______ ____
ROOT
ATOM      1  C   UNL     1      -1.359  -0.196  -0.207  0.00  0.00    +0.105 C 
ATOM      2  C   UNL     1      -1.559  -1.703  -0.407  0.00  0.00    +0.127 C 
ATOM      3  C   UNL     1      -3.062  -1.951  -0.375  0.00  0.00    -0.035 C 
ATOM      4  C   UNL     1      -3.365  -2.563  -1.513  0.00  0.00    -0.001 A 
ATOM      5  C   UNL     1      -4.633  -3.111  -2.022  0.00  0.00    +0.010 A 
ATOM      6  C   UNL     1      -4.589  -3.673  -3.259  0.00  0.00    +0.001 A 
ATOM      7  C   UNL     1      -3.426  -3.743  -4.031  0.00  0.00    +0.002 A 
ATOM      8  C   UNL     1      -2.216  -3.268  -3.641  0.00  0.00    +0.026 A 
ATOM      9  C   UNL     1      -2.134  -2.658  -2.355  0.00  0.00    +0.043 A 
ATOM     10  N   UNL     1      -1.094  -2.143  -1.724  0.00  0.00    -0.376 N 
ATOM     11  C   UNL     1      -3.938  -1.470   0.756  0.00  0.00    +0.052 C 
ATOM     12  C   UNL     1      -3.619   0.023   0.959  0.00  0.00    +0.112 C 
ATOM     13  N   UNL     1      -2.165   0.216   0.952  0.00  0.00    -0.294 N 
ATOM     14  C   UNL     1      -1.561   0.776   2.019  0.00  0.00    +0.234 C 
ATOM     15  O   UNL     1      -0.352   0.850   2.062  0.00  0.00    -0.274 OA
ATOM     16  H   UNL     1      -0.189  -2.061  -2.063  0.00  0.00    +0.160 HD
ENDROOT
BRANCH   1  18
ATOM     17  C   UNL     1       0.655  -0.879   1.103  0.00  0.00    +0.009 C 
ATOM     18  C   UNL     1       0.118   0.100   0.057  0.00  0.00    +0.006 C 
ATOM     19  C   UNL     1       0.910  -0.058  -1.242  0.00  0.00    +0.009 C 
ENDBRANCH   1  18
BRANCH  14  20
ATOM     20  C   UNL     1      -2.389   1.310   3.160  0.00  0.00    +0.213 C 
BRANCH  20  21
ATOM     21  N   UNL     1      -1.505   1.862   4.189  0.00  0.00    -0.216 N 
ATOM     22  C   UNL     1      -1.000   1.150   5.215  0.00  0.00    +0.241 C 
ATOM     23  O   UNL     1      -1.185  -0.024   5.453  0.00  0.00    -0.273 OA
ATOM     24  C   UNL     1      -0.152   2.123   6.011  0.00  0.00    +0.202 C 
ATOM     25  N   UNL     1      -0.291   3.389   5.271  0.00  0.00    -0.290 N 
ATOM     26  C   UNL     1      -1.094   3.135   4.222  0.00  0.00    +0.309 C 
ATOM     27  O   UNL     1      -1.414   3.970   3.398  0.00  0.00    -0.252 OA
ATOM     28  H   UNL     1       0.120   4.239   5.494  0.00  0.00    +0.151 HD
ENDBRANCH  20  21
ENDBRANCH  14  20
TORSDOF 3
