REMARK  Name = ZINC36153491
REMARK  2 active torsions:
REMARK  status: ('A' for Active; 'I' for Inactive)
REMARK    1  A    between atoms: C_3  and  C_6
REMARK    2  A    between atoms: C_13  and  C_16
REMARK                            x       y       z     vdW  Elec       q    Type
REMARK                         _______ _______ _______ _____ _____    ______ ____
ROOT
ATOM      1  C   UNL     1       3.761   1.845  -0.024  0.00  0.00    +0.134 C 
ATOM      2  C   UNL     1       4.301   1.803  -1.462  0.00  0.00    +0.106 C 
ATOM      3  S   UNL     1       5.893   2.699  -1.461  0.00  0.00    -0.082 S 
ATOM      4  C   UNL     1       6.591   2.120   0.056  0.00  0.00    +0.209 A 
ATOM      5  N   UNL     1       7.799   2.264   0.513  0.00  0.00    -0.121 NA
ATOM      6  N   UNL     1       7.887   1.698   1.669  0.00  0.00    -0.129 NA
ATOM      7  C   UNL     1       6.741   1.166   1.999  0.00  0.00    +0.180 A 
ATOM      8  N   UNL     1       5.870   1.407   0.976  0.00  0.00    -0.222 N 
ATOM      9  N   UNL     1       4.575   1.018   0.864  0.00  0.00    -0.272 N 
ATOM     10  H   UNL     1       4.145   0.931   1.772  0.00  0.00    +0.167 HD
ENDROOT
BRANCH   1  13
ATOM     11  C   UNL     1      -0.016   1.351   0.009  0.00  0.00    +0.008 A 
ATOM     12  C   UNL     1       1.183   2.038   0.002  0.00  0.00    +0.013 A 
ATOM     13  C   UNL     1       2.343   1.336  -0.013  0.00  0.00    +0.012 A 
ATOM     14  S   UNL     1       1.754  -0.349  -0.017  0.00  0.00    -0.100 S 
ATOM     15  C   UNL     1       0.002  -0.004   0.002  0.00  0.00    +0.045 A 
ENDBRANCH   1  13
BRANCH   7  16
ATOM     16  C   UNL     1       6.436   0.423   3.274  0.00  0.00    +0.187 C 
ATOM     17  C   UNL     1       6.304   1.423   4.443  0.00  0.00    +0.042 C 
ATOM     18  C   UNL     1       6.997   0.661   5.607  0.00  0.00    +0.031 C 
ATOM     19  C   UNL     1       8.107  -0.100   4.840  0.00  0.00    +0.161 C 
ATOM     20  O   UNL     1       7.511  -0.470   3.585  0.00  0.00    -0.369 OA
ENDBRANCH   7  16
TORSDOF 2
