REMARK  Name = ZINC62320933
REMARK  6 active torsions:
REMARK  status: ('A' for Active; 'I' for Inactive)
REMARK    1  A    between atoms: C_1  and  C_2
REMARK    2  A    between atoms: C_9  and  C_11
REMARK    3  A    between atoms: N_13  and  C_23
REMARK    4  A    between atoms: C_18  and  N_22
REMARK    5  A    between atoms: C_23  and  C_24
REMARK    6  A    between atoms: C_23  and  C_25
REMARK                            x       y       z     vdW  Elec       q    Type
REMARK                         _______ _______ _______ _____ _____    ______ ____
ROOT
ATOM      1  C   UNL     1       2.100   0.046   2.960  0.00  0.00    +0.100 A 
ATOM      2  C   UNL     1       2.739   0.911   3.823  0.00  0.00    +0.103 A 
ATOM      3  N   UNL     1       3.597   0.482   4.759  0.00  0.00    -0.343 N 
ATOM      4  C   UNL     1       3.908  -0.850   4.931  0.00  0.00    +0.055 A 
ATOM      5  C   UNL     1       4.806  -1.244   5.919  0.00  0.00    +0.026 A 
ATOM      6  C   UNL     1       5.111  -2.578   6.085  0.00  0.00    +0.004 A 
ATOM      7  C   UNL     1       4.535  -3.545   5.279  0.00  0.00    +0.023 A 
ATOM      8  C   UNL     1       3.637  -3.181   4.287  0.00  0.00    +0.037 A 
ATOM      9  C   UNL     1       3.319  -1.827   4.110  0.00  0.00    +0.067 A 
ATOM     10  C   UNL     1       2.366  -1.398   3.074  0.00  0.00    +0.203 A 
ATOM     11  O   UNL     1       1.823  -2.203   2.338  0.00  0.00    -0.286 OA
ENDROOT
BRANCH   1  19
ATOM     12  C   UNL     1      -0.366   1.650   0.027  0.00  0.00    +0.028 C 
ATOM     13  C   UNL     1      -0.874   0.330   0.610  0.00  0.00    +0.073 C 
ATOM     14  C   UNL     1      -2.283   0.528   1.178  0.00  0.00    +0.022 C 
ATOM     15  C   UNL     1      -2.729  -0.755   1.883  0.00  0.00    +0.003 C 
ATOM     16  C   UNL     1      -1.779  -1.059   3.043  0.00  0.00    +0.019 C 
ATOM     17  C   UNL     1      -0.364  -1.275   2.496  0.00  0.00    +0.108 C 
ATOM     18  N   UNL     1       0.019  -0.106   1.693  0.00  0.00    -0.295 N 
ATOM     19  C   UNL     1       1.165   0.557   1.946  0.00  0.00    +0.252 C 
ATOM     20  O   UNL     1       1.426   1.576   1.336  0.00  0.00    -0.270 OA
ENDBRANCH   1  19
BRANCH   8  21
ATOM     21  N   UNL     1       3.057  -4.149   3.477  0.00  0.00    -0.357 N 
ATOM     22  H   UNL     1       3.184  -5.090   3.677  0.00  0.00    +0.142 HD
ATOM     23  H   UNL     1       2.525  -3.885   2.710  0.00  0.00    +0.142 HD
ENDBRANCH   8  21
BRANCH   3  24
ATOM     24  C   UNL     1       4.232   1.470   5.634  0.00  0.00    +0.081 C 
ATOM     25  C   UNL     1       5.127   2.390   4.801  0.00  0.00    +0.030 C 
ATOM     26  C   UNL     1       3.154   2.302   6.331  0.00  0.00    +0.030 C 
ENDBRANCH   3  24
TORSDOF 3
