REMARK  Name = ZINC04454700
REMARK  4 active torsions:
REMARK  status: ('A' for Active; 'I' for Inactive)
REMARK    1  A    between atoms: C_1  and  C_2
REMARK    2  A    between atoms: C_5  and  C_8
REMARK    3  A    between atoms: N_10  and  C_11
REMARK    4  A    between atoms: C_12  and  C_19
REMARK                            x       y       z     vdW  Elec       q    Type
REMARK                         _______ _______ _______ _____ _____    ______ ____
ROOT
ATOM      1  C   UNL     1      -1.305   2.117   0.020  0.00  0.00    +0.249 C 
ATOM      2  O   UNL     1      -2.351   1.497   0.021  0.00  0.00    -0.270 OA
ATOM      3  N   UNL     1      -1.320   3.464   0.027  0.00  0.00    -0.275 N 
ATOM      4  H   UNL     1      -0.485   3.958   0.026  0.00  0.00    +0.156 HD
ENDROOT
BRANCH   3   5
ATOM      5  C   UNL     1      -2.528   4.144   0.037  0.00  0.00    +0.090 A 
ATOM      6  C   UNL     1      -2.746   5.511   0.045  0.00  0.00    +0.084 A 
ATOM      7  C   UNL     1      -4.132   5.976   0.053  0.00  0.00    -0.018 A 
ATOM      8  C   UNL     1      -5.061   5.003   0.053  0.00  0.00    -0.004 A 
ATOM      9  S   UNL     1      -4.130   3.490   0.033  0.00  0.00    -0.077 S 
ATOM     10  C   UNL     1      -6.460   5.558   0.064  0.00  0.00    +0.043 C 
ATOM     11  C   UNL     1      -6.291   7.029   0.507  0.00  0.00    +0.010 C 
ATOM     12  C   UNL     1      -4.847   7.328   0.058  0.00  0.00    +0.037 C 
BRANCH   6  13
ATOM     13  C   UNL     1      -1.653   6.436   0.047  0.00  0.00    +0.102 C 
ATOM     14  N   UNL     1      -0.786   7.170   0.048  0.00  0.00    -0.191 NA
ENDBRANCH   6  13
ENDBRANCH   3   5
BRANCH   1  19
ATOM     15  C   UNL     1       3.710  -0.705  -0.038  0.00  0.00    +0.044 C 
ATOM     16  C   UNL     1       2.396   0.034  -0.021  0.00  0.00    -0.050 A 
ATOM     17  C   UNL     1       1.208  -0.674  -0.013  0.00  0.00    +0.004 A 
ATOM     18  C   UNL     1       0.002  -0.004   0.002  0.00  0.00    +0.013 A 
ATOM     19  C   UNL     1      -0.017   1.392   0.010  0.00  0.00    +0.037 A 
ATOM     20  C   UNL     1       1.186   2.100   0.002  0.00  0.00    +0.013 A 
ATOM     21  C   UNL     1       2.385   1.417  -0.013  0.00  0.00    +0.004 A 
ENDBRANCH   1  19
TORSDOF 3
