REMARK  Name = ZINC01141255
REMARK  6 active torsions:
REMARK  status: ('A' for Active; 'I' for Inactive)
REMARK    1  A    between atoms: C_1  and  C_2
REMARK    2  A    between atoms: C_7  and  N_8
REMARK    3  A    between atoms: C_9  and  C_11
REMARK    4  A    between atoms: C_11  and  C_13
REMARK    5  A    between atoms: C_11  and  C_14
REMARK    6  A    between atoms: C_17  and  N_20
REMARK                            x       y       z     vdW  Elec       q    Type
REMARK                         _______ _______ _______ _____ _____    ______ ____
ROOT
ATOM      1  N   UNL     1       0.026  -0.014   2.417  0.00  0.00    -0.285 N 
ATOM      2  C   UNL     1      -0.056  -0.694   3.578  0.00  0.00    +0.224 C 
ATOM      3  O   UNL     1      -0.040  -1.906   3.574  0.00  0.00    -0.275 OA
ATOM      4  H   UNL     1       0.079   0.955   2.425  0.00  0.00    +0.155 HD
ENDROOT
BRANCH   1  11
ATOM      5  C   UNL     1      -1.266   1.183   0.182  0.00  0.00    +0.046 C 
ATOM      6  C   UNL     1      -0.584  -0.158   0.085  0.00  0.00    -0.028 A 
ATOM      7  C   UNL     1      -0.570  -0.840  -1.116  0.00  0.00    +0.020 A 
ATOM      8  C   UNL     1       0.055  -2.071  -1.206  0.00  0.00    +0.018 A 
ATOM      9  C   UNL     1       0.667  -2.623  -0.094  0.00  0.00    +0.017 A 
ATOM     10  C   UNL     1       0.655  -1.945   1.109  0.00  0.00    +0.024 A 
ATOM     11  C   UNL     1       0.034  -0.706   1.201  0.00  0.00    +0.036 A 
ATOM     12 BR   UNL     1       0.073  -3.002  -2.852  0.00  0.00    -0.050 Br
ENDBRANCH   1  11
BRANCH   2  13
ATOM     13  C   UNL     1      -0.167   0.054   4.882  0.00  0.00    +0.102 C 
ATOM     14  C   UNL     1       1.061   0.949   5.063  0.00  0.00    +0.022 C 
BRANCH  13  15
ATOM     15  C   UNL     1      -0.242  -0.931   6.021  0.00  0.00    -0.036 A 
ATOM     16  C   UNL     1       0.795  -1.819   6.237  0.00  0.00    +0.006 A 
ATOM     17  C   UNL     1       0.725  -2.722   7.281  0.00  0.00    +0.033 A 
ATOM     18  C   UNL     1      -0.381  -2.737   8.109  0.00  0.00    +0.126 A 
ATOM     19  C   UNL     1      -1.418  -1.849   7.893  0.00  0.00    +0.033 A 
ATOM     20  C   UNL     1      -1.347  -0.943   6.852  0.00  0.00    +0.006 A 
BRANCH  18  21
ATOM     21  N   UNL     1      -0.456  -3.705   9.227  0.00  0.00    +0.056 N 
ATOM     22  O   UNL     1       0.451  -4.482   9.415  0.00  0.00    -0.126 OA
ATOM     23  O   UNL     1      -1.424  -3.718   9.951  0.00  0.00    -0.126 OA
ENDBRANCH  18  21
ENDBRANCH  13  15
ENDBRANCH   2  13
TORSDOF 4
