REMARK  Name = ZINC17147537
REMARK  5 active torsions:
REMARK  status: ('A' for Active; 'I' for Inactive)
REMARK    1  A    between atoms: C_1  and  O_2
REMARK    2  A    between atoms: O_2  and  C_3
REMARK    3  A    between atoms: C_3  and  C_5
REMARK    4  A    between atoms: C_14  and  S_17
REMARK    5  A    between atoms: S_17  and  C_18
REMARK                            x       y       z     vdW  Elec       q    Type
REMARK                         _______ _______ _______ _____ _____    ______ ____
ROOT
ATOM      1  C   UNL     1      -3.711   1.955  -0.422  0.00  0.00    +0.103 C 
ATOM      2  C   UNL     1      -3.711   3.248   0.403  0.00  0.00    +0.021 C 
ATOM      3  C   UNL     1      -2.503   4.084  -0.003  0.00  0.00    +0.057 C 
ATOM      4  C   UNL     1      -1.247   3.255   0.022  0.00  0.00    +0.052 A 
ATOM      5  C   UNL     1      -1.257   1.913   0.017  0.00  0.00    +0.039 A 
ATOM      6  C   UNL     1      -0.015   1.218   0.008  0.00  0.00    +0.256 A 
ATOM      7  O   UNL     1       0.002  -0.004   0.001  0.00  0.00    -0.267 OA
ATOM      8  N   UNL     1       1.134   1.902   0.001  0.00  0.00    -0.302 N 
ATOM      9  C   UNL     1       1.126   3.221   0.008  0.00  0.00    +0.169 A 
ATOM     10  N   UNL     1      -0.043   3.912   0.019  0.00  0.00    -0.228 NA
ATOM     11  H   UNL     1       2.090   1.358  -0.010  0.00  0.00    +0.171 HD
ATOM     12  C   UNL     1      -2.524   1.102   0.022  0.00  0.00    +0.057 C 
ENDROOT
BRANCH   1  13
ATOM     13  C   UNL     1      -4.995   1.202  -0.186  0.00  0.00    +0.310 C 
ATOM     14  O   UNL     1      -5.837   1.660   0.549  0.00  0.00    -0.251 OA
BRANCH  13  16
ATOM     15  C   UNL     1      -6.462  -0.646  -0.518  0.00  0.00    +0.280 C 
ATOM     16  O   UNL     1      -5.203   0.023  -0.792  0.00  0.00    -0.468 OA
ENDBRANCH  13  16
ENDBRANCH   1  13
BRANCH   9  17
ATOM     17  S   UNL     1       2.654   4.098   0.001  0.00  0.00    -0.091 S 
ATOM     18  C   UNL     1       3.814   2.709  -0.014  0.00  0.00    +0.093 C 
ENDBRANCH   9  17
TORSDOF 3
