REMARK  Name = ZINC63730428
REMARK  9 active torsions:
REMARK  status: ('A' for Active; 'I' for Inactive)
REMARK    1  A    between atoms: C_1  and  O_2
REMARK    2  A    between atoms: O_2  and  C_3
REMARK    3  A    between atoms: C_6  and  N_11
REMARK    4  A    between atoms: C_7  and  O_9
REMARK    5  A    between atoms: O_9  and  C_10
REMARK    6  A    between atoms: C_12  and  C_14
REMARK    7  A    between atoms: C_14  and  S_15
REMARK    8  A    between atoms: S_15  and  C_16
REMARK    9  A    between atoms: N_26  and  C_27
REMARK                            x       y       z     vdW  Elec       q    Type
REMARK                         _______ _______ _______ _____ _____    ______ ____
ROOT
ATOM      1  C   UNL     1       5.627  -2.157   8.570  0.00  0.00    +0.261 C 
ATOM      2  N   UNL     1       4.631  -2.901   9.346  0.00  0.00    -0.230 NA
ATOM      3  C   UNL     1       4.689  -4.191   9.426  0.00  0.00    +0.186 C 
ATOM      4  C   UNL     1       5.771  -4.937   8.729  0.00  0.00    +0.103 C 
ATOM      5  C   UNL     1       5.535  -6.243   9.019  0.00  0.00    +0.151 C 
ATOM      6  N   UNL     1       4.442  -6.310   9.801  0.00  0.00    -0.155 NA
ATOM      7  N   UNL     1       3.941  -5.153  10.048  0.00  0.00    -0.129 NA
ATOM      8  C   UNL     1       6.776  -4.212   7.946  0.00  0.00    +0.258 C 
ATOM      9  O   UNL     1       7.664  -4.814   7.373  0.00  0.00    -0.269 OA
ATOM     10  N   UNL     1       6.703  -2.865   7.872  0.00  0.00    -0.236 N 
ENDROOT
BRANCH  10  11
ATOM     11  C   UNL     1       7.651  -2.150   7.133  0.00  0.00    +0.039 A 
ATOM     12  C   UNL     1       8.524  -1.282   7.775  0.00  0.00    +0.025 A 
ATOM     13  C   UNL     1       9.459  -0.578   7.041  0.00  0.00    +0.017 A 
ATOM     14  C   UNL     1       9.526  -0.736   5.668  0.00  0.00    +0.018 A 
ATOM     15  C   UNL     1       8.656  -1.600   5.026  0.00  0.00    +0.017 A 
ATOM     16  C   UNL     1       7.723  -2.311   5.755  0.00  0.00    +0.025 A 
ATOM     17 BR   UNL     1      10.806   0.230   4.668  0.00  0.00    -0.050 Br
ENDBRANCH  10  11
BRANCH   1  18
ATOM     18  S   UNL     1       4.726  -1.189   7.328  0.00  0.00    -0.105 S 
BRANCH  18  19
ATOM     19  C   UNL     1       3.982  -2.444   6.250  0.00  0.00    +0.168 C 
BRANCH  19  21
ATOM     20  N   UNL     1       2.549  -2.504   4.234  0.00  0.00    -0.282 N 
ATOM     21  C   UNL     1       3.194  -1.766   5.159  0.00  0.00    +0.227 C 
ATOM     22  O   UNL     1       3.140  -0.555   5.113  0.00  0.00    -0.275 OA
ATOM     23  H   UNL     1       2.525  -3.470   4.316  0.00  0.00    +0.155 HD
BRANCH  20  27
ATOM     24  C   UNL     1       0.658  -0.634   1.016  0.00  0.00    +0.124 A 
ATOM     25  C   UNL     1       1.714  -0.008   1.662  0.00  0.00    +0.047 A 
ATOM     26  C   UNL     1       2.340  -0.626   2.728  0.00  0.00    +0.030 A 
ATOM     27  C   UNL     1       1.913  -1.876   3.153  0.00  0.00    +0.076 A 
ATOM     28  C   UNL     1       0.853  -2.506   2.506  0.00  0.00    +0.145 A 
ATOM     29  C   UNL     1       0.224  -1.880   1.442  0.00  0.00    +0.093 A 
BRANCH  24  31
ATOM     30  C   UNL     1       0.544   1.260  -0.418  0.00  0.00    +0.277 C 
ATOM     31  O   UNL     1       0.045  -0.023  -0.032  0.00  0.00    -0.495 OA
ENDBRANCH  24  31
BRANCH  28  32
ATOM     32  O   UNL     1       0.433  -3.730   2.921  0.00  0.00    -0.493 OA
ATOM     33  C   UNL     1      -0.660  -4.316   2.210  0.00  0.00    +0.277 C 
ENDBRANCH  28  32
ENDBRANCH  20  27
ENDBRANCH  19  21
ENDBRANCH  18  19
ENDBRANCH   1  18
TORSDOF 7
