REMARK  Name = ZINC04104062
REMARK  9 active torsions:
REMARK  status: ('A' for Active; 'I' for Inactive)
REMARK    1  A    between atoms: C_1  and  C_2
REMARK    2  A    between atoms: C_5  and  N_9
REMARK    3  A    between atoms: C_6  and  C_8
REMARK    4  A    between atoms: N_9  and  C_10
REMARK    5  A    between atoms: N_9  and  S_21
REMARK    6  A    between atoms: C_10  and  C_11
REMARK    7  A    between atoms: N_13  and  N_14
REMARK    8  A    between atoms: C_20  and  N_51
REMARK    9  A    between atoms: S_21  and  C_24
REMARK                            x       y       z     vdW  Elec       q    Type
REMARK                         _______ _______ _______ _____ _____    ______ ____
ROOT
ATOM      1  C   UNL     1      -1.736   0.651   1.117  0.00  0.00    +0.228 C 
ENDROOT
BRANCH   1   2
ATOM      2  C   UNL     1      -1.369  -0.257   2.262  0.00  0.00    +0.251 C 
ATOM      3  O   UNL     1      -0.426   0.015   2.974  0.00  0.00    -0.272 OA
ATOM      4  N   UNL     1      -2.090  -1.372   2.496  0.00  0.00    -0.206 N 
ATOM      5  H   UNL     1      -2.845  -1.589   1.926  0.00  0.00    +0.177 HD
BRANCH   4   6
ATOM      6  N   UNL     1      -1.750  -2.216   3.561  0.00  0.00    -0.189 NA
ATOM      7  C   UNL     1      -2.378  -3.318   3.730  0.00  0.00    +0.033 C 
ATOM      8  C   UNL     1      -3.406  -3.795   2.726  0.00  0.00    +0.034 C 
ATOM      9  C   UNL     1      -3.095  -5.261   2.386  0.00  0.00    -0.073 C 
ATOM     10  C   UNL     1      -1.896  -5.625   4.466  0.00  0.00    -0.073 C 
ATOM     11  C   UNL     1      -2.122  -4.187   4.944  0.00  0.00    +0.034 C 
ATOM     12  C   UNL     1      -2.965  -7.482   3.339  0.00  0.00    -0.096 C 
ATOM     13  N   UNL     1      -3.054  -6.040   3.643  0.00  0.00    +0.378 N 
ATOM     14  H   UNL     1      -3.917  -5.864   4.171  0.00  0.00    -0.082 HD
ENDBRANCH   4   6
ENDBRANCH   1   2
BRANCH   1  15
ATOM     15  N   UNL     1      -0.808   1.784   1.075  0.00  0.00    -0.198 N 
BRANCH  15  20
ATOM     16  C   UNL     1      -1.766   6.356   4.290  0.00  0.00    +0.044 C 
ATOM     17  C   UNL     1      -1.512   5.140   3.437  0.00  0.00    -0.050 A 
ATOM     18  C   UNL     1      -0.489   4.269   3.764  0.00  0.00    +0.005 A 
ATOM     19  C   UNL     1      -0.253   3.155   2.983  0.00  0.00    +0.025 A 
ATOM     20  C   UNL     1      -1.044   2.910   1.868  0.00  0.00    +0.054 A 
ATOM     21  C   UNL     1      -2.067   3.790   1.539  0.00  0.00    -0.028 A 
ATOM     22  C   UNL     1      -2.301   4.900   2.327  0.00  0.00    +0.008 A 
ATOM     23  C   UNL     1      -2.924   3.531   0.327  0.00  0.00    +0.046 C 
ENDBRANCH  15  20
BRANCH  15  24
ATOM     24  S   UNL     1       0.521   1.730   0.089  0.00  0.00    +0.043 S 
ATOM     25  O   UNL     1       0.756   0.345  -0.127  0.00  0.00    -0.155 OA
ATOM     26  O   UNL     1       1.492   2.535   0.745  0.00  0.00    -0.155 OA
ATOM     27  C   UNL     1      -0.010   2.522  -1.453  0.00  0.00    +0.218 C 
ENDBRANCH  15  24
ENDBRANCH   1  15
TORSDOF 5
