REMARK  Name = ZINC07984895
REMARK  2 active torsions:
REMARK  status: ('A' for Active; 'I' for Inactive)
REMARK    1  A    between atoms: C_1  and  C_2
REMARK    2  A    between atoms: C_11  and  N_15
REMARK                            x       y       z     vdW  Elec       q    Type
REMARK                         _______ _______ _______ _____ _____    ______ ____
ROOT
ATOM      1  C   UNL     1      -0.863   2.928  -0.788  0.00  0.00    +0.008 C 
ATOM      2  C   UNL     1      -0.110   2.149   0.292  0.00  0.00    -0.009 C 
ATOM      3  C   UNL     1      -0.750   2.409   1.659  0.00  0.00    +0.008 C 
ATOM      4  C   UNL     1      -0.167   1.450   2.696  0.00  0.00    +0.037 C 
ATOM      5  C   UNL     1       1.356   1.543   2.657  0.00  0.00    -0.025 A 
ATOM      6  C   UNL     1       1.985   2.071   1.583  0.00  0.00    -0.004 A 
ATOM      7  S   UNL     1       3.717   1.980   1.962  0.00  0.00    -0.073 S 
ATOM      8  C   UNL     1       3.599   1.237   3.557  0.00  0.00    +0.114 A 
ATOM      9  C   UNL     1       2.202   1.082   3.746  0.00  0.00    +0.051 A 
ATOM     10  C   UNL     1       1.780   0.496   4.974  0.00  0.00    +0.134 A 
ATOM     11  N   UNL     1       2.753   0.152   5.817  0.00  0.00    -0.220 NA
ATOM     12  C   UNL     1       4.036   0.327   5.572  0.00  0.00    +0.224 A 
ATOM     13  N   UNL     1       4.496   0.868   4.449  0.00  0.00    -0.228 NA
ATOM     14  C   UNL     1       1.353   2.614   0.338  0.00  0.00    +0.046 C 
ENDROOT
BRANCH  10  15
ATOM     15  N   UNL     1       0.445   0.294   5.272  0.00  0.00    -0.304 N 
ATOM     16  C   UNL     1       0.180   0.535   6.699  0.00  0.00    +0.126 C 
ATOM     17  C   UNL     1      -1.333   0.605   6.914  0.00  0.00    +0.123 C 
ATOM     18  N   UNL     1      -1.979  -0.552   6.300  0.00  0.00    -0.313 N 
ATOM     19  C   UNL     1      -1.384  -1.309   5.372  0.00  0.00    +0.230 C 
ATOM     20  O   UNL     1      -2.004  -2.233   4.891  0.00  0.00    -0.274 OA
ATOM     21  C   UNL     1       0.021  -1.062   4.900  0.00  0.00    +0.202 C 
ATOM     22  H   UNL     1      -2.879  -0.781   6.577  0.00  0.00    +0.149 HD
ENDBRANCH  10  15
TORSDOF 1
