REMARK  Name = ZINC12535780
REMARK  5 active torsions:
REMARK  status: ('A' for Active; 'I' for Inactive)
REMARK    1  A    between atoms: C_6  and  N_7
REMARK    2  A    between atoms: C_11  and  C_12
REMARK    3  A    between atoms: N_14  and  N_15
REMARK    4  A    between atoms: N_15  and  S_16
REMARK    5  A    between atoms: S_16  and  C_19
REMARK                            x       y       z     vdW  Elec       q    Type
REMARK                         _______ _______ _______ _____ _____    ______ ____
ROOT
ATOM      1  C   UNL     1      -0.921   2.304  -0.430  0.00  0.00    +0.277 C 
ATOM      2  O   UNL     1      -1.991   1.731  -0.344  0.00  0.00    -0.267 OA
ATOM      3  N   UNL     1       0.182   1.622  -0.794  0.00  0.00    -0.227 N 
ATOM      4  H   UNL     1       1.044   2.066  -0.809  0.00  0.00    +0.171 HD
ENDROOT
BRANCH   1   9
ATOM      5  N   UNL     1       0.321   4.497  -0.041  0.00  0.00    -0.295 N 
ATOM      6  C   UNL     1      -0.059   5.759   0.238  0.00  0.00    +0.204 A 
ATOM      7  N   UNL     1      -1.365   5.806   0.321  0.00  0.00    -0.243 NA
ATOM      8  C   UNL     1      -1.874   4.594   0.098  0.00  0.00    +0.144 A 
ATOM      9  C   UNL     1      -0.833   3.739  -0.138  0.00  0.00    +0.129 A 
BRANCH   5  15
ATOM     10  C   UNL     1       2.123   3.022   0.609  0.00  0.00    +0.029 A 
ATOM     11  C   UNL     1       3.416   2.568   0.444  0.00  0.00    +0.040 A 
ATOM     12  C   UNL     1       4.231   3.133  -0.523  0.00  0.00    +0.124 A 
ATOM     13  C   UNL     1       3.748   4.149  -1.331  0.00  0.00    +0.040 A 
ATOM     14  C   UNL     1       2.454   4.602  -1.172  0.00  0.00    +0.029 A 
ATOM     15  C   UNL     1       1.635   4.038  -0.203  0.00  0.00    +0.048 A 
ATOM     16  F   UNL     1       5.498   2.691  -0.679  0.00  0.00    -0.205 F 
ENDBRANCH   5  15
ENDBRANCH   1   9
BRANCH   3  17
ATOM     17  N   UNL     1       0.083   0.272  -1.157  0.00  0.00    -0.108 NA
ATOM     18  H   UNL     1       0.241  -0.420  -0.496  0.00  0.00    +0.172 HD
BRANCH  17  19
ATOM     19  S   UNL     1      -0.305  -0.141  -2.713  0.00  0.00    +0.075 S 
ATOM     20  O   UNL     1      -0.265  -1.560  -2.779  0.00  0.00    -0.152 OA
ATOM     21  O   UNL     1      -1.466   0.605  -3.054  0.00  0.00    -0.152 OA
BRANCH  19  22
ATOM     22  C   UNL     1       0.994   0.448  -3.748  0.00  0.00    +0.125 A 
ATOM     23  C   UNL     1       1.836  -0.450  -4.378  0.00  0.00    +0.033 A 
ATOM     24  C   UNL     1       2.855   0.011  -5.190  0.00  0.00    +0.040 A 
ATOM     25  C   UNL     1       3.032   1.372  -5.373  0.00  0.00    +0.125 A 
ATOM     26  C   UNL     1       2.190   2.270  -4.742  0.00  0.00    +0.060 A 
ATOM     27  C   UNL     1       1.167   1.808  -3.933  0.00  0.00    +0.070 A 
ATOM     28 CL   UNL     1       0.105   2.933  -3.148  0.00  0.00    -0.081 Cl
ATOM     29  F   UNL     1       4.028   1.822  -6.167  0.00  0.00    -0.205 F 
ENDBRANCH  19  22
ENDBRANCH  17  19
ENDBRANCH   3  17
TORSDOF 5
