REMARK  Name = ZINC36546940
REMARK  13 active torsions:
REMARK  status: ('A' for Active; 'I' for Inactive)
REMARK    1  A    between atoms: C_1  and  C_2
REMARK    2  A    between atoms: C_2  and  C_31
REMARK    3  A    between atoms: C_3  and  C_4
REMARK    4  A    between atoms: N_6  and  C_7
REMARK    5  A    between atoms: N_6  and  C_14
REMARK    6  A    between atoms: C_14  and  C_16
REMARK    7  A    between atoms: C_14  and  C_24
REMARK    8  A    between atoms: C_19  and  O_22
REMARK    9  A    between atoms: O_22  and  C_23
REMARK   10  A    between atoms: N_26  and  C_27
REMARK   11  A    between atoms: C_27  and  C_28
REMARK   12  A    between atoms: C_27  and  C_29
REMARK   13  A    between atoms: C_27  and  C_30
REMARK                            x       y       z     vdW  Elec       q    Type
REMARK                         _______ _______ _______ _____ _____    ______ ____
ROOT
ATOM      1  C   UNL     1       0.189  -0.078   4.904  0.00  0.00    +0.197 C 
ENDROOT
BRANCH   1   2
ATOM      2  C   UNL     1       1.629  -0.517   4.856  0.00  0.00    -0.018 A 
ATOM      3  C   UNL     1       2.012  -1.534   4.001  0.00  0.00    +0.009 A 
ATOM      4  C   UNL     1       3.332  -1.939   3.955  0.00  0.00    +0.046 A 
ATOM      5  C   UNL     1       4.274  -1.324   4.767  0.00  0.00    +0.120 A 
ATOM      6  C   UNL     1       3.887  -0.304   5.623  0.00  0.00    +0.046 A 
ATOM      7  C   UNL     1       2.567   0.101   5.662  0.00  0.00    +0.009 A 
BRANCH   5   8
ATOM      8  O   UNL     1       5.573  -1.721   4.723  0.00  0.00    -0.495 OA
ATOM      9  C   UNL     1       6.488  -1.043   5.587  0.00  0.00    +0.277 C 
ENDBRANCH   5   8
ENDBRANCH   1   2
BRANCH   1  10
ATOM     10  C   UNL     1      -0.625  -1.106   5.647  0.00  0.00    +0.239 C 
ATOM     11  O   UNL     1      -0.942  -2.140   5.098  0.00  0.00    -0.273 OA
ATOM     12  N   UNL     1      -1.001  -0.877   6.921  0.00  0.00    -0.309 N 
ATOM     13  H   UNL     1      -0.747  -0.050   7.360  0.00  0.00    +0.149 HD
BRANCH  12  14
ATOM     14  C   UNL     1      -1.792  -1.877   7.643  0.00  0.00    +0.026 C 
ATOM     15  C   UNL     1      -1.009  -3.189   7.719  0.00  0.00    +0.031 C 
ATOM     16  C   UNL     1      -2.082  -1.373   9.058  0.00  0.00    +0.031 C 
ATOM     17  C   UNL     1      -3.112  -2.112   6.905  0.00  0.00    +0.031 C 
ENDBRANCH  12  14
ENDBRANCH   1  10
BRANCH   1  20
ATOM     18  C   UNL     1       0.147   1.033   2.736  0.00  0.00    +0.245 C 
ATOM     19  O   UNL     1       1.001   1.797   3.144  0.00  0.00    -0.270 OA
ATOM     20  N   UNL     1      -0.326   0.060   3.540  0.00  0.00    -0.250 N 
BRANCH  20  21
ATOM     21  C   UNL     1      -1.309  -0.819   3.071  0.00  0.00    +0.056 A 
ATOM     22  C   UNL     1      -0.945  -1.953   2.358  0.00  0.00    +0.025 A 
ATOM     23  C   UNL     1      -1.917  -2.818   1.896  0.00  0.00    +0.002 A 
ATOM     24  C   UNL     1      -3.253  -2.556   2.143  0.00  0.00    +0.002 A 
ATOM     25  C   UNL     1      -3.619  -1.427   2.852  0.00  0.00    +0.022 A 
ATOM     26  C   UNL     1      -2.651  -0.560   3.323  0.00  0.00    +0.062 A 
ATOM     27 CL   UNL     1      -3.111   0.853   4.220  0.00  0.00    -0.082 Cl
ENDBRANCH  20  21
BRANCH  18  30
ATOM     28  C   UNL     1       0.738   3.363   1.243  0.00  0.00    +0.039 C 
ATOM     29  C   UNL     1      -0.004   2.209   0.619  0.00  0.00    -0.071 C 
ATOM     30  C   UNL     1      -0.370   1.171   1.367  0.00  0.00    +0.066 C 
ATOM     31  C   UNL     1      -0.331   2.231  -0.852  0.00  0.00    +0.039 C 
ENDBRANCH  18  30
ENDBRANCH   1  20
TORSDOF 7
