REMARK  Name = ZINC07035988
REMARK  7 active torsions:
REMARK  status: ('A' for Active; 'I' for Inactive)
REMARK    1  A    between atoms: C_1  and  C_2
REMARK    2  A    between atoms: C_2  and  C_4
REMARK    3  A    between atoms: C_2  and  S_15
REMARK    4  A    between atoms: N_6  and  C_7
REMARK    5  A    between atoms: S_15  and  C_16
REMARK    6  A    between atoms: N_20  and  C_21
REMARK    7  A    between atoms: C_24  and  O_27
REMARK                            x       y       z     vdW  Elec       q    Type
REMARK                         _______ _______ _______ _____ _____    ______ ____
ROOT
ATOM      1  C   UNL     1      -0.710   1.564   1.262  0.00  0.00    +0.029 C 
ATOM      2  C   UNL     1      -0.002   1.076  -0.003  0.00  0.00    +0.137 C 
ENDROOT
BRANCH   2   3
ATOM      3  C   UNL     1      -0.738   1.581  -1.217  0.00  0.00    +0.230 C 
ATOM      4  O   UNL     1      -0.326   2.554  -1.815  0.00  0.00    -0.274 OA
ATOM      5  N   UNL     1      -1.854   0.954  -1.639  0.00  0.00    -0.283 N 
ATOM      6  H   UNL     1      -2.147   0.139  -1.201  0.00  0.00    +0.155 HD
BRANCH   5   7
ATOM      7  C   UNL     1      -2.590   1.478  -2.709  0.00  0.00    +0.052 A 
ATOM      8  C   UNL     1      -1.937   2.113  -3.757  0.00  0.00    +0.026 A 
ATOM      9  C   UNL     1      -2.665   2.629  -4.811  0.00  0.00    +0.022 A 
ATOM     10  C   UNL     1      -4.044   2.513  -4.824  0.00  0.00    +0.042 A 
ATOM     11  C   UNL     1      -4.698   1.881  -3.781  0.00  0.00    +0.041 A 
ATOM     12  C   UNL     1      -3.974   1.357  -2.727  0.00  0.00    +0.064 A 
ATOM     13 CL   UNL     1      -4.793   0.557  -1.422  0.00  0.00    -0.082 Cl
ATOM     14 CL   UNL     1      -4.956   3.163  -6.151  0.00  0.00    -0.083 Cl
ENDBRANCH   5   7
ENDBRANCH   2   3
BRANCH   2  15
ATOM     15  S   UNL     1       1.697   1.700  -0.024  0.00  0.00    -0.072 S 
BRANCH  15  16
ATOM     16  C   UNL     1       2.349   0.857   1.379  0.00  0.00    +0.215 A 
ATOM     17  N   UNL     1       1.698   0.028   2.166  0.00  0.00    -0.101 NA
ATOM     18  N   UNL     1       2.471  -0.413   3.093  0.00  0.00    -0.022 NA
ATOM     19  N   UNL     1       3.649   0.098   2.977  0.00  0.00    -0.038 NA
ATOM     20  N   UNL     1       3.617   0.945   1.855  0.00  0.00    -0.187 N 
BRANCH  20  21
ATOM     21  C   UNL     1       4.669   1.717   1.340  0.00  0.00    +0.070 A 
ATOM     22  C   UNL     1       4.789   1.902  -0.031  0.00  0.00    +0.031 A 
ATOM     23  C   UNL     1       5.822   2.665  -0.537  0.00  0.00    +0.047 A 
ATOM     24  C   UNL     1       6.746   3.240   0.323  0.00  0.00    +0.117 A 
ATOM     25  C   UNL     1       6.630   3.051   1.693  0.00  0.00    +0.047 A 
ATOM     26  C   UNL     1       5.595   2.292   2.200  0.00  0.00    +0.031 A 
BRANCH  24  27
ATOM     27  O   UNL     1       7.766   3.987  -0.176  0.00  0.00    -0.507 OA
ATOM     28  H   UNL     1       8.564   3.480  -0.378  0.00  0.00    +0.292 HD
ENDBRANCH  24  27
ENDBRANCH  20  21
ENDBRANCH  15  16
ENDBRANCH   2  15
TORSDOF 6
