REMARK  Name = ZINC13010332
REMARK  3 active torsions:
REMARK  status: ('A' for Active; 'I' for Inactive)
REMARK    1  A    between atoms: C_4  and  C_7
REMARK    2  A    between atoms: C_7  and  C_9
REMARK    3  A    between atoms: C_7  and  N_14
REMARK                            x       y       z     vdW  Elec       q    Type
REMARK                         _______ _______ _______ _____ _____    ______ ____
ROOT
ATOM      1  C   UNL     1       5.420  -2.980  -0.065  0.00  0.00    +0.139 C 
ENDROOT
BRANCH   1   2
ATOM      2  N   UNL     1       3.957  -2.913  -0.050  0.00  0.00    -0.316 N 
ATOM      3  C   UNL     1       3.318  -1.678  -0.038  0.00  0.00    +0.142 A 
ATOM      4  C   UNL     1       4.084  -0.498  -0.040  0.00  0.00    +0.049 A 
ATOM      5  C   UNL     1       3.469   0.715  -0.027  0.00  0.00    +0.055 A 
ATOM      6  C   UNL     1       2.063   0.770  -0.013  0.00  0.00    +0.200 A 
ATOM      7  N   UNL     1       1.180   1.759   0.000  0.00  0.00    -0.107 NA
ATOM      8  N   UNL     1      -0.015   1.286   0.009  0.00  0.00    -0.021 NA
ATOM      9  N   UNL     1       0.002  -0.004   0.002  0.00  0.00    -0.021 NA
ATOM     10  N   UNL     1       1.347  -0.396  -0.013  0.00  0.00    -0.108 N 
ATOM     11  N   UNL     1       2.004  -1.625  -0.026  0.00  0.00    -0.131 NA
ATOM     12  H   UNL     1       3.433  -3.729  -0.050  0.00  0.00    +0.148 HD
ENDBRANCH   1   2
BRANCH   1  16
ATOM     13  C   UNL     1       6.658  -6.684  -1.797  0.00  0.00    +0.000 A 
ATOM     14  C   UNL     1       7.343  -5.520  -2.091  0.00  0.00    +0.000 A 
ATOM     15  C   UNL     1       6.943  -4.321  -1.530  0.00  0.00    +0.006 A 
ATOM     16  C   UNL     1       5.856  -4.287  -0.676  0.00  0.00    -0.022 A 
ATOM     17  C   UNL     1       5.174  -5.451  -0.378  0.00  0.00    +0.006 A 
ATOM     18  C   UNL     1       5.572  -6.649  -0.942  0.00  0.00    +0.000 A 
ENDBRANCH   1  16
BRANCH   1  19
ATOM     19  C   UNL     1       5.941  -2.887   1.346  0.00  0.00    +0.014 A 
ATOM     20  C   UNL     1       7.026  -2.222   1.813  0.00  0.00    +0.013 A 
ATOM     21  C   UNL     1       7.314  -2.274   3.164  0.00  0.00    +0.008 A 
ATOM     22  C   UNL     1       6.509  -2.998   3.980  0.00  0.00    +0.045 A 
ATOM     23  S   UNL     1       5.294  -3.630   2.835  0.00  0.00    -0.099 S 
ENDBRANCH   1  19
TORSDOF 3
