REMARK  Name = ZINC01156436
REMARK  5 active torsions:
REMARK  status: ('A' for Active; 'I' for Inactive)
REMARK    1  A    between atoms: C_1  and  N_2
REMARK    2  A    between atoms: N_2  and  C_3
REMARK    3  A    between atoms: N_2  and  C_4
REMARK    4  A    between atoms: C_7  and  C_10
REMARK    5  A    between atoms: C_13  and  C_20
REMARK                            x       y       z     vdW  Elec       q    Type
REMARK                         _______ _______ _______ _____ _____    ______ ____
ROOT
ATOM      1  C   UNL     1      -0.006  -2.813  -4.924  0.00  0.00    +0.147 C 
ATOM      2  C   UNL     1      -1.256  -2.442  -5.731  0.00  0.00    +0.087 C 
ATOM      3  C   UNL     1      -1.094  -2.807  -7.179  0.00  0.00    +0.055 C 
ATOM      4  N   UNL     1       0.057  -2.751  -7.794  0.00  0.00    -0.215 NA
ATOM      5  C   UNL     1       1.165  -2.418  -7.079  0.00  0.00    +0.249 A 
ATOM      6  N   UNL     1       1.168  -2.436  -5.710  0.00  0.00    -0.222 N 
ATOM      7  N   UNL     1       2.441  -2.045  -5.309  0.00  0.00    -0.156 NA
ATOM      8  C   UNL     1       3.135  -1.836  -6.404  0.00  0.00    +0.247 A 
ATOM      9  N   UNL     1       2.365  -2.067  -7.470  0.00  0.00    -0.198 NA
ENDROOT
BRANCH   3  10
ATOM     10  C   UNL     1      -2.277  -3.247  -7.934  0.00  0.00    -0.003 A 
ATOM     11  C   UNL     1      -3.526  -3.314  -7.307  0.00  0.00    +0.011 A 
ATOM     12  C   UNL     1      -4.630  -3.727  -8.021  0.00  0.00    +0.016 A 
ATOM     13  C   UNL     1      -4.506  -4.075  -9.356  0.00  0.00    +0.018 A 
ATOM     14  C   UNL     1      -3.273  -4.012  -9.983  0.00  0.00    +0.016 A 
ATOM     15  C   UNL     1      -2.160  -3.595  -9.284  0.00  0.00    +0.011 A 
ATOM     16 BR   UNL     1      -6.027  -4.640 -10.326  0.00  0.00    -0.050 Br
ENDBRANCH   3  10
BRANCH   1  20
ATOM     17  C   UNL     1       0.000  -0.696  -1.211  0.00  0.00    +0.029 A 
ATOM     18  C   UNL     1       0.013  -2.085  -1.221  0.00  0.00    +0.023 A 
ATOM     19  C   UNL     1       0.010  -2.766  -2.422  0.00  0.00    +0.007 A 
ATOM     20  C   UNL     1      -0.005  -2.066  -3.615  0.00  0.00    -0.022 A 
ATOM     21  C   UNL     1      -0.018  -0.684  -3.609  0.00  0.00    +0.007 A 
ATOM     22  C   UNL     1      -0.021   0.004  -2.411  0.00  0.00    +0.023 A 
BRANCH  17  24
ATOM     23  C   UNL     1      -0.018   1.461   0.010  0.00  0.00    +0.129 C 
ATOM     24  N   UNL     1       0.002  -0.004   0.002  0.00  0.00    -0.336 N 
ATOM     25  C   UNL     1       0.024  -0.743   1.267  0.00  0.00    +0.129 C 
ENDBRANCH  17  24
ENDBRANCH   1  20
TORSDOF 3
