REMARK  Name = ZINC65404371
REMARK  5 active torsions:
REMARK  status: ('A' for Active; 'I' for Inactive)
REMARK    1  A    between atoms: C_4  and  C_7
REMARK    2  A    between atoms: C_9  and  C_28
REMARK    3  A    between atoms: N_11  and  C_14
REMARK    4  A    between atoms: C_14  and  C_15
REMARK    5  A    between atoms: C_20  and  C_21
REMARK                            x       y       z     vdW  Elec       q    Type
REMARK                         _______ _______ _______ _____ _____    ______ ____
ROOT
ATOM      1  C   UNL     1       3.706  -0.679   0.161  0.00  0.00    +0.110 C 
ATOM      2  C   UNL     1       3.957  -1.313   1.546  0.00  0.00    +0.144 C 
ATOM      3  N   UNL     1       4.596  -2.619   1.279  0.00  0.00    -0.277 NA
ATOM      4  C   UNL     1       4.738  -2.736  -0.189  0.00  0.00    +0.169 C 
ATOM      5  N   UNL     1       3.691  -1.848  -0.760  0.00  0.00    -0.295 NA
ATOM      6  H   UNL     1       2.790  -2.302  -0.754  0.00  0.00    +0.124 HD
ENDROOT
BRANCH   2   7
ATOM      7  C   UNL     1       4.876  -0.439   2.360  0.00  0.00    +0.104 A 
ATOM      8  N   UNL     1       6.064  -0.002   1.974  0.00  0.00    -0.349 N 
ATOM      9  C   UNL     1       6.580   0.750   2.969  0.00  0.00    +0.101 A 
ATOM     10  C   UNL     1       5.680   0.763   3.972  0.00  0.00    +0.101 A 
ATOM     11  N   UNL     1       4.624   0.023   3.574  0.00  0.00    -0.349 N 
ATOM     12  H   UNL     1       3.820  -0.144   4.091  0.00  0.00    +0.166 HD
ATOM     13  H   UNL     1       6.490  -0.189   1.124  0.00  0.00    +0.166 HD
ENDBRANCH   2   7
BRANCH   1  17
ATOM     14  C   UNL     1      -0.057   1.342   0.088  0.00  0.00    +0.000 A 
ATOM     15  C   UNL     1       1.114   2.065   0.216  0.00  0.00    +0.000 A 
ATOM     16  C   UNL     1       2.332   1.411   0.239  0.00  0.00    +0.005 A 
ATOM     17  C   UNL     1       2.378   0.034   0.136  0.00  0.00    -0.029 A 
ATOM     18  C   UNL     1       1.207  -0.690   0.009  0.00  0.00    +0.005 A 
ATOM     19  C   UNL     1      -0.010  -0.036  -0.016  0.00  0.00    +0.000 A 
ENDBRANCH   1  17
BRANCH   3  20
ATOM     20  C   UNL     1       5.904  -2.711   1.942  0.00  0.00    +0.101 C 
BRANCH  20  21
ATOM     21  C   UNL     1       6.375  -4.166   1.943  0.00  0.00    +0.097 C 
ATOM     22  C   UNL     1       5.505  -5.009   2.854  0.00  0.00    +0.118 C 
ATOM     23  N   UNL     1       6.290  -5.471   3.773  0.00  0.00    -0.161 NA
ATOM     24  N   UNL     1       7.606  -5.050   3.610  0.00  0.00    -0.153 NA
ATOM     25  C   UNL     1       7.754  -4.282   2.561  0.00  0.00    +0.080 C 
BRANCH  25  26
ATOM     26  C   UNL     1       8.997  -3.658   2.081  0.00  0.00    -0.001 A 
ATOM     27  C   UNL     1       8.982  -2.853   0.938  0.00  0.00    +0.012 A 
ATOM     28  C   UNL     1      10.150  -2.272   0.494  0.00  0.00    +0.039 A 
ATOM     29  C   UNL     1      11.338  -2.484   1.177  0.00  0.00    +0.123 A 
ATOM     30  C   UNL     1      11.359  -3.281   2.312  0.00  0.00    +0.039 A 
ATOM     31  C   UNL     1      10.197  -3.864   2.770  0.00  0.00    +0.012 A 
ATOM     32  F   UNL     1      12.479  -1.912   0.736  0.00  0.00    -0.205 F 
ENDBRANCH  25  26
ENDBRANCH  20  21
ENDBRANCH   3  20
TORSDOF 5
