REMARK  Name = ZINC06698720
REMARK  3 active torsions:
REMARK  status: ('A' for Active; 'I' for Inactive)
REMARK    1  A    between atoms: C_4  and  N_9
REMARK    2  A    between atoms: C_5  and  C_7
REMARK    3  A    between atoms: C_10  and  C_12
REMARK                            x       y       z     vdW  Elec       q    Type
REMARK                         _______ _______ _______ _____ _____    ______ ____
ROOT
ATOM      1  N   UNL     1      -1.191   1.871   0.018  0.00  0.00    -0.280 N 
ATOM      2  C   UNL     1      -0.015   1.212   0.014  0.00  0.00    +0.255 C 
ATOM      3  O   UNL     1       0.002  -0.004   0.003  0.00  0.00    -0.269 OA
ATOM      4  H   UNL     1      -1.205   2.838   0.093  0.00  0.00    +0.155 HD
ENDROOT
BRANCH   2   5
ATOM      5  C   UNL     1       1.245   1.962   0.017  0.00  0.00    +0.075 A 
ATOM      6  C   UNL     1       2.543   1.486   0.008  0.00  0.00    +0.024 A 
ATOM      7  C   UNL     1       3.578   2.407   0.013  0.00  0.00    -0.036 A 
ATOM      8  C   UNL     1       3.226   3.727   0.026  0.00  0.00    -0.006 A 
ATOM      9  S   UNL     1       1.504   3.728   0.024  0.00  0.00    -0.088 S 
ATOM     10  C   UNL     1       4.148   4.907   0.035  0.00  0.00    +0.043 C 
ATOM     11  C   UNL     1       5.556   4.418   0.402  0.00  0.00    +0.005 C 
ATOM     12  C   UNL     1       5.889   3.190  -0.450  0.00  0.00    +0.005 C 
ATOM     13  C   UNL     1       5.048   1.997   0.004  0.00  0.00    +0.036 C 
ENDBRANCH   2   5
BRANCH   1  17
ATOM     14  C   UNL     1      -4.767  -0.252  -0.291  0.00  0.00    +0.001 A 
ATOM     15  C   UNL     1      -3.693  -0.789   0.399  0.00  0.00    +0.002 A 
ATOM     16  C   UNL     1      -2.506  -0.091   0.499  0.00  0.00    +0.024 A 
ATOM     17  C   UNL     1      -2.386   1.163  -0.086  0.00  0.00    +0.051 A 
ATOM     18  C   UNL     1      -3.471   1.710  -0.785  0.00  0.00    +0.073 A 
ATOM     19  C   UNL     1      -4.664   0.989  -0.882  0.00  0.00    +0.021 A 
BRANCH  18  20
ATOM     20  C   UNL     1      -3.358   3.000  -1.397  0.00  0.00    +0.101 C 
ATOM     21  N   UNL     1      -3.267   4.023  -1.883  0.00  0.00    -0.191 NA
ENDBRANCH  18  20
ENDBRANCH   1  17
TORSDOF 3
