REMARK  Name = ZINC13638131
REMARK  7 active torsions:
REMARK  status: ('A' for Active; 'I' for Inactive)
REMARK    1  A    between atoms: C_1  and  O_2
REMARK    2  A    between atoms: O_2  and  C_3
REMARK    3  A    between atoms: C_6  and  C_11
REMARK    4  A    between atoms: C_8  and  O_9
REMARK    5  A    between atoms: O_9  and  C_10
REMARK    6  A    between atoms: C_19  and  S_27
REMARK    7  A    between atoms: S_27  and  C_30
REMARK                            x       y       z     vdW  Elec       q    Type
REMARK                         _______ _______ _______ _____ _____    ______ ____
ROOT
ATOM      1  C   UNL     1      -4.953  -2.608   0.035  0.00  0.00    +0.024 C 
ATOM      2  C   UNL     1      -6.112  -1.876   0.149  0.00  0.00    +0.079 C 
ATOM      3  C   UNL     1      -7.446  -2.529   0.280  0.00  0.00    +0.136 C 
ATOM      4  N   UNL     1      -7.630  -3.664   0.898  0.00  0.00    -0.284 NA
ATOM      5  N   UNL     1      -8.491  -1.799  -0.332  0.00  0.00    -0.233 N 
ATOM      6  C   UNL     1      -9.681  -2.354  -0.753  0.00  0.00    +0.056 A 
ATOM      7  C   UNL     1     -10.014  -3.722  -0.701  0.00  0.00    +0.027 A 
ATOM      8  C   UNL     1     -11.259  -4.099  -1.165  0.00  0.00    +0.029 A 
ATOM      9  C   UNL     1     -12.179  -3.202  -1.672  0.00  0.00    +0.089 A 
ATOM     10  C   UNL     1     -11.882  -1.845  -1.741  0.00  0.00    +0.044 A 
ATOM     11  C   UNL     1     -10.643  -1.468  -1.281  0.00  0.00    +0.039 A 
ATOM     12  S   UNL     1      -9.849   0.109  -1.187  0.00  0.00    -0.054 S 
ATOM     13  C   UNL     1      -8.303  -0.443  -0.510  0.00  0.00    +0.164 C 
ATOM     14  N   UNL     1      -7.219   0.248  -0.257  0.00  0.00    -0.154 NA
ATOM     15  C   UNL     1      -6.103  -0.392   0.156  0.00  0.00    +0.273 C 
ATOM     16  O   UNL     1      -5.118   0.229   0.519  0.00  0.00    -0.268 OA
ATOM     17  H   UNL     1      -6.878  -4.124   1.302  0.00  0.00    +0.188 HD
ENDROOT
BRANCH   1  21
ATOM     18  C   UNL     1      -1.296  -0.656  -0.858  0.00  0.00    +0.162 A 
ATOM     19  C   UNL     1      -2.479  -0.212  -1.436  0.00  0.00    +0.050 A 
ATOM     20  C   UNL     1      -3.669  -0.842  -1.149  0.00  0.00    +0.012 A 
ATOM     21  C   UNL     1      -3.689  -1.936  -0.272  0.00  0.00    -0.021 A 
ATOM     22  C   UNL     1      -2.494  -2.383   0.310  0.00  0.00    +0.057 A 
ATOM     23  C   UNL     1      -1.306  -1.747   0.012  0.00  0.00    +0.162 A 
BRANCH  18  25
ATOM     24  C   UNL     1      -0.188   1.080  -2.042  0.00  0.00    +0.277 C 
ATOM     25  O   UNL     1      -0.126  -0.030  -1.145  0.00  0.00    -0.491 OA
ENDBRANCH  18  25
BRANCH  23  26
ATOM     26  O   UNL     1      -0.144  -2.181   0.571  0.00  0.00    -0.491 OA
ATOM     27  C   UNL     1      -0.228  -3.303   1.452  0.00  0.00    +0.277 C 
ENDBRANCH  23  26
ENDBRANCH   1  21
BRANCH   9  28
ATOM     28  S   UNL     1     -13.744  -3.783  -2.238  0.00  0.00    -0.006 S 
ATOM     29  O   UNL     1     -14.159  -2.825  -3.202  0.00  0.00    -0.170 OA
ATOM     30  O   UNL     1     -13.516  -5.135  -2.611  0.00  0.00    -0.170 OA
ATOM     31  C   UNL     1     -14.823  -3.710  -0.781  0.00  0.00    +0.200 C 
ENDBRANCH   9  28
TORSDOF 4
