REMARK  Name = ZINC67631231
REMARK  4 active torsions:
REMARK  status: ('A' for Active; 'I' for Inactive)
REMARK    1  A    between atoms: C_1  and  C_2
REMARK    2  A    between atoms: C_5  and  N_9
REMARK    3  A    between atoms: C_10  and  C_12
REMARK    4  A    between atoms: C_22  and  C_25
REMARK                            x       y       z     vdW  Elec       q    Type
REMARK                         _______ _______ _______ _____ _____    ______ ____
ROOT
ATOM      1  C   UNL     1      -0.132  -6.306  -1.192  0.00  0.00    +0.101 A 
ATOM      2  C   UNL     1      -0.125  -7.018  -2.386  0.00  0.00    +0.023 A 
ATOM      3  C   UNL     1      -0.217  -8.416  -2.361  0.00  0.00    -0.027 A 
ATOM      4  C   UNL     1      -0.316  -9.065  -1.177  0.00  0.00    +0.022 A 
ATOM      5  N   UNL     1      -0.313  -8.368  -0.005  0.00  0.00    -0.325 N 
ATOM      6  H   UNL     1      -0.374  -8.855   0.832  0.00  0.00    +0.169 HD
ATOM      7  C   UNL     1      -0.223  -7.029   0.026  0.00  0.00    +0.261 A 
ATOM      8  O   UNL     1      -0.225  -6.439   1.092  0.00  0.00    -0.267 OA
ATOM      9  C   UNL     1      -0.443 -10.564  -1.081  0.00  0.00    +0.054 C 
ATOM     10  C   UNL     1       0.001 -11.230  -2.381  0.00  0.00    +0.009 C 
ATOM     11  C   UNL     1      -0.736 -10.553  -3.544  0.00  0.00    -0.009 C 
ATOM     12  C   UNL     1      -0.196  -9.132  -3.687  0.00  0.00    +0.040 C 
ATOM     13  C   UNL     1      -0.487 -11.333  -4.836  0.00  0.00    +0.008 C 
ENDROOT
BRANCH   1  15
ATOM     14  N   UNL     1       0.076  -4.172  -0.024  0.00  0.00    -0.280 N 
ATOM     15  C   UNL     1      -0.040  -4.838  -1.190  0.00  0.00    +0.254 C 
ATOM     16  O   UNL     1      -0.070  -4.226  -2.241  0.00  0.00    -0.270 OA
ATOM     17  H   UNL     1       0.164  -4.662   0.808  0.00  0.00    +0.155 HD
BRANCH  14  22
ATOM     18  C   UNL     1       0.044   1.502   0.012  0.00  0.00    +0.044 C 
ATOM     19  C   UNL     1       0.052  -0.005   0.003  0.00  0.00    -0.049 A 
ATOM     20  C   UNL     1       0.534  -0.686  -1.100  0.00  0.00    +0.005 A 
ATOM     21  C   UNL     1       0.543  -2.067  -1.112  0.00  0.00    +0.025 A 
ATOM     22  C   UNL     1       0.068  -2.773  -0.015  0.00  0.00    +0.052 A 
ATOM     23  C   UNL     1      -0.415  -2.086   1.093  0.00  0.00    +0.062 A 
ATOM     24  C   UNL     1      -0.417  -0.704   1.100  0.00  0.00    +0.025 A 
ATOM     25 CL   UNL     1      -1.011  -2.963   2.467  0.00  0.00    -0.082 Cl
ENDBRANCH  14  22
ENDBRANCH   1  15
TORSDOF 2
