REMARK  Name = ZINC04166107
REMARK  4 active torsions:
REMARK  status: ('A' for Active; 'I' for Inactive)
REMARK    1  A    between atoms: C_1  and  C_2
REMARK    2  A    between atoms: C_12  and  C_14
REMARK    3  A    between atoms: N_19  and  S_20
REMARK    4  A    between atoms: S_20  and  C_23
REMARK                            x       y       z     vdW  Elec       q    Type
REMARK                         _______ _______ _______ _____ _____    ______ ____
ROOT
ATOM      1  C   UNL     1       2.512  -0.748   2.946  0.00  0.00    +0.166 C 
ATOM      2  C   UNL     1       1.689  -0.160   4.111  0.00  0.00    +0.031 C 
ATOM      3  C   UNL     1       2.773   0.169   5.171  0.00  0.00    +0.019 C 
ATOM      4  C   UNL     1       3.956   0.618   4.278  0.00  0.00    +0.110 C 
ATOM      5  N   UNL     1       3.892  -0.264   3.094  0.00  0.00    -0.165 NA
ENDROOT
BRANCH   1  16
ATOM      6  C   UNL     1      -0.287   1.137   0.073  0.00  0.00    +0.029 C 
ATOM      7  C   UNL     1       0.080  -0.345  -0.028  0.00  0.00    +0.083 C 
ATOM      8  C   UNL     1      -1.192  -1.205  -0.101  0.00  0.00    +0.059 C 
ATOM      9  C   UNL     1      -1.121  -2.093   1.121  0.00  0.00    -0.024 A 
ATOM     10  C   UNL     1      -1.983  -3.070   1.584  0.00  0.00    +0.005 A 
ATOM     11  C   UNL     1      -1.694  -3.756   2.748  0.00  0.00    +0.000 A 
ATOM     12  C   UNL     1      -0.539  -3.464   3.450  0.00  0.00    +0.002 A 
ATOM     13  C   UNL     1       0.324  -2.491   2.993  0.00  0.00    +0.024 A 
ATOM     14  C   UNL     1       0.039  -1.793   1.818  0.00  0.00    +0.040 A 
ATOM     15  N   UNL     1       0.773  -0.781   1.187  0.00  0.00    -0.267 N 
ATOM     16  C   UNL     1       1.944  -0.282   1.630  0.00  0.00    +0.239 C 
ATOM     17  O   UNL     1       2.540   0.543   0.970  0.00  0.00    -0.273 OA
ENDBRANCH   1  16
BRANCH   5  18
ATOM     18  S   UNL     1       5.161  -0.645   2.100  0.00  0.00    +0.062 S 
ATOM     19  O   UNL     1       6.329  -0.633   2.909  0.00  0.00    -0.153 OA
ATOM     20  O   UNL     1       4.763  -1.786   1.353  0.00  0.00    -0.153 OA
BRANCH  18  21
ATOM     21  C   UNL     1       5.333   0.676   0.947  0.00  0.00    +0.106 A 
ATOM     22  C   UNL     1       4.763   0.576  -0.309  0.00  0.00    +0.030 A 
ATOM     23  C   UNL     1       4.899   1.612  -1.214  0.00  0.00    +0.022 A 
ATOM     24  C   UNL     1       5.605   2.749  -0.863  0.00  0.00    +0.041 A 
ATOM     25  C   UNL     1       6.175   2.848   0.394  0.00  0.00    +0.022 A 
ATOM     26  C   UNL     1       6.035   1.814   1.300  0.00  0.00    +0.030 A 
ATOM     27 CL   UNL     1       5.776   4.050  -1.999  0.00  0.00    -0.084 Cl
ENDBRANCH  18  21
ENDBRANCH   5  18
TORSDOF 3
