REMARK  Name = ZINC13959561
REMARK  14 active torsions:
REMARK  status: ('A' for Active; 'I' for Inactive)
REMARK    1  A    between atoms: C_1  and  C_2
REMARK    2  A    between atoms: C_2  and  N_3
REMARK    3  A    between atoms: C_7  and  C_8
REMARK    4  A    between atoms: N_10  and  C_14
REMARK    5  A    between atoms: C_12  and  C_13
REMARK    6  A    between atoms: C_16  and  S_17
REMARK    7  A    between atoms: S_17  and  C_18
REMARK    8  A    between atoms: C_18  and  C_19
REMARK    9  A    between atoms: N_21  and  C_22
REMARK   10  A    between atoms: C_23  and  C_31
REMARK   11  A    between atoms: C_31  and  O_33
REMARK   12  A    between atoms: O_33  and  C_34
REMARK   13  A    between atoms: C_34  and  C_35
REMARK   14  A    between atoms: C_34  and  C_36
REMARK                            x       y       z     vdW  Elec       q    Type
REMARK                         _______ _______ _______ _____ _____    ______ ____
ROOT
ATOM      1  C   UNL     1      -2.598   5.489   0.220  0.00  0.00    +0.228 C 
ATOM      2  O   UNL     1      -3.312   4.533   0.438  0.00  0.00    -0.275 OA
ATOM      3  N   UNL     1      -1.285   5.307  -0.025  0.00  0.00    -0.279 N 
ATOM      4  H   UNL     1      -0.714   6.071  -0.199  0.00  0.00    +0.155 HD
ENDROOT
BRANCH   3   5
ATOM      5  C   UNL     1      -0.751   4.028  -0.027  0.00  0.00    +0.086 A 
ATOM      6  C   UNL     1       0.563   3.641  -0.256  0.00  0.00    +0.091 A 
ATOM      7  C   UNL     1       0.864   2.220  -0.201  0.00  0.00    -0.021 A 
ATOM      8  C   UNL     1      -0.189   1.419   0.070  0.00  0.00    -0.004 A 
ATOM      9  S   UNL     1      -1.564   2.522   0.246  0.00  0.00    -0.077 S 
ATOM     10  C   UNL     1      -0.182  -0.074   0.187  0.00  0.00    +0.043 C 
ATOM     11  C   UNL     1       1.129  -0.600  -0.416  0.00  0.00    +0.005 C 
ATOM     12  C   UNL     1       2.294   0.221   0.144  0.00  0.00    +0.005 C 
ATOM     13  C   UNL     1       2.254   1.639  -0.428  0.00  0.00    +0.037 C 
BRANCH   6  14
ATOM     14  C   UNL     1       1.606   4.628  -0.541  0.00  0.00    +0.342 C 
ATOM     15  O   UNL     1       1.836   4.955  -1.690  0.00  0.00    -0.245 OA
BRANCH  14  16
ATOM     16  O   UNL     1       2.312   5.175   0.470  0.00  0.00    -0.458 OA
BRANCH  16  17
ATOM     17  C   UNL     1       3.331   6.146   0.113  0.00  0.00    +0.171 C 
ATOM     18  C   UNL     1       2.716   7.547   0.095  0.00  0.00    +0.052 C 
ATOM     19  C   UNL     1       4.463   6.099   1.141  0.00  0.00    +0.052 C 
ENDBRANCH  16  17
ENDBRANCH  14  16
ENDBRANCH   6  14
ENDBRANCH   3   5
BRANCH   1  20
ATOM     20  C   UNL     1      -3.178   6.880   0.222  0.00  0.00    +0.173 C 
BRANCH  20  21
ATOM     21  S   UNL     1      -4.951   6.793   0.579  0.00  0.00    -0.081 S 
BRANCH  21  28
ATOM     22  N   UNL     1      -6.617   9.013   0.724  0.00  0.00    -0.246 N 
ATOM     23  C   UNL     1      -6.560  10.357   0.608  0.00  0.00    +0.271 C 
ATOM     24  O   UNL     1      -7.479  11.147   0.725  0.00  0.00    -0.268 OA
ATOM     25  C   UNL     1      -5.152  10.666   0.306  0.00  0.00    +0.129 C 
ATOM     26  C   UNL     1      -4.603  11.911   0.097  0.00  0.00    +0.044 C 
ATOM     27  N   UNL     1      -4.502   9.463   0.275  0.00  0.00    -0.221 NA
ATOM     28  C   UNL     1      -5.358   8.507   0.521  0.00  0.00    +0.164 C 
BRANCH  26  29
ATOM     29  C   UNL     1      -5.471  13.088  -0.001  0.00  0.00    +0.018 A 
ATOM     30  C   UNL     1      -6.736  13.134  -0.564  0.00  0.00    +0.116 A 
ATOM     31  N   UNL     1      -7.181  14.397  -0.444  0.00  0.00    -0.274 N 
ATOM     32  N   UNL     1      -6.194  15.160   0.188  0.00  0.00    -0.176 NA
ATOM     33  C   UNL     1      -5.172  14.394   0.457  0.00  0.00    +0.067 A 
ATOM     34  C   UNL     1      -3.897  14.825   1.135  0.00  0.00    +0.068 C 
ATOM     35  C   UNL     1      -8.481  14.893  -0.905  0.00  0.00    +0.172 C 
ENDBRANCH  26  29
BRANCH  22  37
ATOM     36  C   UNL     1      -7.965   8.068   2.533  0.00  0.00    +0.025 C 
ATOM     37  C   UNL     1      -7.819   8.228   1.018  0.00  0.00    +0.112 C 
ENDBRANCH  22  37
ENDBRANCH  21  28
ENDBRANCH  20  21
ENDBRANCH   1  20
TORSDOF 9
