REMARK  Name = ZINC35507054
REMARK  4 active torsions:
REMARK  status: ('A' for Active; 'I' for Inactive)
REMARK    1  A    between atoms: C_1  and  O_2
REMARK    2  A    between atoms: O_2  and  C_3
REMARK    3  A    between atoms: C_6  and  N_10
REMARK    4  A    between atoms: C_11  and  C_13
REMARK                            x       y       z     vdW  Elec       q    Type
REMARK                         _______ _______ _______ _____ _____    ______ ____
ROOT
ATOM      1  C   UNL     1      -6.374  -4.437   0.059  0.00  0.00    +0.247 C 
ATOM      2  N   UNL     1      -6.957  -4.367  -1.279  0.00  0.00    -0.319 N 
ATOM      3  C   UNL     1      -6.506  -5.132  -2.351  0.00  0.00    +0.058 A 
ATOM      4  C   UNL     1      -6.777  -4.698  -3.647  0.00  0.00    +0.063 A 
ATOM      5  C   UNL     1      -6.359  -5.444  -4.732  0.00  0.00    +0.125 A 
ATOM      6  C   UNL     1      -5.667  -6.628  -4.538  0.00  0.00    +0.040 A 
ATOM      7  C   UNL     1      -5.388  -7.060  -3.255  0.00  0.00    +0.033 A 
ATOM      8  C   UNL     1      -5.798  -6.313  -2.170  0.00  0.00    +0.126 A 
ATOM      9  S   UNL     1      -5.405  -6.851  -0.532  0.00  0.00    +0.062 S 
ATOM     10  O   UNL     1      -5.933  -8.162  -0.388  0.00  0.00    -0.153 OA
ATOM     11  O   UNL     1      -4.035  -6.545  -0.313  0.00  0.00    -0.153 OA
ATOM     12  N   UNL     1      -6.295  -5.853   0.470  0.00  0.00    -0.161 NA
ATOM     13  F   UNL     1      -6.625  -5.017  -5.986  0.00  0.00    -0.205 F 
ATOM     14  H   UNL     1      -7.696  -3.756  -1.428  0.00  0.00    +0.148 HD
ATOM     15  H   UNL     1      -6.734  -6.182   1.270  0.00  0.00    +0.151 HD
ENDROOT
BRANCH   1  17
ATOM     16  N   UNL     1      -4.367  -3.549   1.199  0.00  0.00    -0.283 N 
ATOM     17  C   UNL     1      -4.992  -3.837   0.040  0.00  0.00    +0.254 C 
ATOM     18  O   UNL     1      -4.441  -3.615  -1.018  0.00  0.00    -0.272 OA
ATOM     19  H   UNL     1      -4.774  -3.796   2.044  0.00  0.00    +0.155 HD
BRANCH  16  23
ATOM     20  C   UNL     1      -0.681  -1.597   1.151  0.00  0.00    +0.138 A 
ATOM     21  C   UNL     1      -1.627  -1.319   0.174  0.00  0.00    +0.049 A 
ATOM     22  C   UNL     1      -2.847  -1.965   0.190  0.00  0.00    +0.027 A 
ATOM     23  C   UNL     1      -3.128  -2.894   1.183  0.00  0.00    +0.035 A 
ATOM     24  C   UNL     1      -2.182  -3.173   2.160  0.00  0.00    +0.047 A 
ATOM     25  C   UNL     1      -0.959  -2.530   2.140  0.00  0.00    +0.084 A 
ATOM     26 CL   UNL     1       0.227  -2.883   3.358  0.00  0.00    -0.080 Cl
BRANCH  20  28
ATOM     27  C   UNL     1       0.738  -0.013   0.087  0.00  0.00    +0.277 C 
ATOM     28  O   UNL     1       0.520  -0.960   1.135  0.00  0.00    -0.494 OA
ENDBRANCH  20  28
ENDBRANCH  16  23
ENDBRANCH   1  17
TORSDOF 3
