REMARK  Name = ZINC09514981
REMARK  4 active torsions:
REMARK  status: ('A' for Active; 'I' for Inactive)
REMARK    1  A    between atoms: C_4  and  N_7
REMARK    2  A    between atoms: C_8  and  C_10
REMARK    3  A    between atoms: C_13  and  C_16
REMARK    4  A    between atoms: C_16  and  N_17
REMARK                            x       y       z     vdW  Elec       q    Type
REMARK                         _______ _______ _______ _____ _____    ______ ____
ROOT
ATOM      1  C   UNL     1      -0.348   5.995   2.214  0.00  0.00    +0.153 C 
ENDROOT
BRANCH   1   2
ATOM      2  N   UNL     1       0.215   5.152   1.156  0.00  0.00    -0.220 N 
ATOM      3  C   UNL     1       1.171   4.219   1.357  0.00  0.00    +0.251 C 
ATOM      4  O   UNL     1       1.708   3.929   2.404  0.00  0.00    -0.272 OA
ATOM      5  C   UNL     1       1.427   3.617  -0.000  0.00  0.00    +0.138 C 
ATOM      6  C   UNL     1       2.889   3.804  -0.424  0.00  0.00    +0.045 C 
ATOM      7  C   UNL     1       3.523   2.456  -0.012  0.00  0.00    +0.038 C 
ATOM      8  C   UNL     1       2.382   1.460  -0.023  0.00  0.00    -0.042 A 
ATOM      9  C   UNL     1       1.172   2.134  -0.007  0.00  0.00    -0.012 A 
ATOM     10  C   UNL     1      -0.012   1.417  -0.005  0.00  0.00    +0.006 A 
ATOM     11  C   UNL     1       0.009   0.036  -0.022  0.00  0.00    +0.000 A 
ATOM     12  C   UNL     1       1.217  -0.636  -0.042  0.00  0.00    +0.000 A 
ATOM     13  C   UNL     1       2.401   0.077  -0.042  0.00  0.00    +0.004 A 
ATOM     14  N   UNL     1       0.517   4.329  -0.898  0.00  0.00    -0.281 N 
ATOM     15  C   UNL     1      -0.155   5.211  -0.130  0.00  0.00    +0.310 C 
ATOM     16  O   UNL     1      -1.000   5.973  -0.557  0.00  0.00    -0.252 OA
ATOM     17  H   UNL     1       0.416   4.193  -1.853  0.00  0.00    +0.152 HD
ENDBRANCH   1   2
BRANCH   1  21
ATOM     18  C   UNL     1      -3.742   4.044   3.936  0.00  0.00    +0.037 A 
ATOM     19  C   UNL     1      -2.467   3.828   4.463  0.00  0.00    +0.013 A 
ATOM     20  C   UNL     1      -1.377   4.460   3.902  0.00  0.00    +0.006 A 
ATOM     21  C   UNL     1      -1.544   5.307   2.821  0.00  0.00    -0.030 A 
ATOM     22  C   UNL     1      -2.806   5.530   2.298  0.00  0.00    +0.006 A 
ATOM     23  C   UNL     1      -3.904   4.899   2.845  0.00  0.00    +0.013 A 
BRANCH  18  25
ATOM     24  N   UNL     1      -6.144   3.581   4.021  0.00  0.00    -0.282 N 
ATOM     25  C   UNL     1      -4.915   3.370   4.532  0.00  0.00    +0.248 C 
ATOM     26  O   UNL     1      -4.771   2.626   5.482  0.00  0.00    -0.270 OA
ATOM     27  H   UNL     1      -6.269   4.225   3.307  0.00  0.00    +0.155 HD
BRANCH  24  31
ATOM     28  C   UNL     1      -9.409   1.465   5.510  0.00  0.00    +0.000 A 
ATOM     29  C   UNL     1      -8.388   1.846   6.361  0.00  0.00    +0.002 A 
ATOM     30  C   UNL     1      -7.304   2.548   5.871  0.00  0.00    +0.023 A 
ATOM     31  C   UNL     1      -7.240   2.870   4.521  0.00  0.00    +0.034 A 
ATOM     32  C   UNL     1      -8.270   2.490   3.670  0.00  0.00    +0.023 A 
ATOM     33  C   UNL     1      -9.348   1.784   4.166  0.00  0.00    +0.002 A 
ENDBRANCH  24  31
ENDBRANCH  18  25
ENDBRANCH   1  21
TORSDOF 4
