REMARK  Name = ZINC00755376
REMARK  9 active torsions:
REMARK  status: ('A' for Active; 'I' for Inactive)
REMARK    1  A    between atoms: C_1  and  C_2
REMARK    2  A    between atoms: C_2  and  O_3
REMARK    3  A    between atoms: O_3  and  C_4
REMARK    4  A    between atoms: C_4  and  C_6
REMARK    5  A    between atoms: C_7  and  C_26
REMARK    6  A    between atoms: C_11  and  C_15
REMARK    7  A    between atoms: N_16  and  C_17
REMARK    8  A    between atoms: C_22  and  O_23
REMARK    9  A    between atoms: O_23  and  C_24
REMARK                            x       y       z     vdW  Elec       q    Type
REMARK                         _______ _______ _______ _____ _____    ______ ____
ROOT
ATOM      1  C   UNL     1      -3.726   0.172   6.612  0.00  0.00    +0.102 A 
ATOM      2  C   UNL     1      -2.967   0.790   5.665  0.00  0.00    -0.017 A 
ATOM      3  C   UNL     1      -2.701   2.161   5.771  0.00  0.00    +0.051 A 
ATOM      4  C   UNL     1      -1.940   3.003   4.904  0.00  0.00    +0.135 A 
ATOM      5  N   UNL     1      -1.813   4.286   5.201  0.00  0.00    -0.217 NA
ATOM      6  C   UNL     1      -2.375   4.822   6.269  0.00  0.00    +0.129 A 
ATOM      7  N   UNL     1      -3.090   4.098   7.108  0.00  0.00    -0.225 NA
ATOM      8  C   UNL     1      -3.266   2.810   6.896  0.00  0.00    +0.115 A 
ATOM      9  S   UNL     1      -4.123   1.502   7.734  0.00  0.00    -0.062 S 
ATOM     10  C   UNL     1      -2.191   6.294   6.537  0.00  0.00    +0.088 C 
ATOM     11  N   UNL     1      -1.340   2.484   3.775  0.00  0.00    -0.296 N 
ATOM     12  C   UNL     1      -2.414   0.000   4.506  0.00  0.00    +0.046 C 
ATOM     13  H   UNL     1      -1.350   1.527   3.616  0.00  0.00    +0.154 HD
ENDROOT
BRANCH  11  14
ATOM     14  C   UNL     1      -0.717   3.338   2.858  0.00  0.00    +0.076 A 
ATOM     15  C   UNL     1      -1.046   4.686   2.828  0.00  0.00    +0.047 A 
ATOM     16  C   UNL     1      -0.433   5.527   1.917  0.00  0.00    +0.043 A 
ATOM     17  C   UNL     1       0.513   5.028   1.038  0.00  0.00    +0.024 A 
ATOM     18  C   UNL     1       0.849   3.688   1.067  0.00  0.00    +0.049 A 
ATOM     19  C   UNL     1       0.239   2.839   1.976  0.00  0.00    +0.141 A 
ATOM     20 CL   UNL     1      -0.851   7.211   1.876  0.00  0.00    -0.083 Cl
BRANCH  19  21
ATOM     21  O   UNL     1       0.569   1.520   2.004  0.00  0.00    -0.493 OA
ATOM     22  C   UNL     1       1.553   1.077   1.067  0.00  0.00    +0.277 C 
ENDBRANCH  19  21
ENDBRANCH  11  14
BRANCH   1  23
ATOM     23  C   UNL     1      -4.120  -1.238   6.691  0.00  0.00    +0.346 C 
ATOM     24  O   UNL     1      -3.759  -2.019   5.831  0.00  0.00    -0.244 OA
BRANCH  23  25
ATOM     25  O   UNL     1      -4.883  -1.669   7.716  0.00  0.00    -0.461 OA
BRANCH  25  27
ATOM     26  C   UNL     1      -6.097  -3.377   8.957  0.00  0.00    +0.048 C 
ATOM     27  C   UNL     1      -5.235  -3.078   7.729  0.00  0.00    +0.229 C 
ENDBRANCH  25  27
ENDBRANCH  23  25
ENDBRANCH   1  23
TORSDOF 5
