REMARK  Name = ZINC38737971
REMARK  10 active torsions:
REMARK  status: ('A' for Active; 'I' for Inactive)
REMARK    1  A    between atoms: C_1  and  C_2
REMARK    2  A    between atoms: C_2  and  C_3
REMARK    3  A    between atoms: C_2  and  C_4
REMARK    4  A    between atoms: C_7  and  O_27
REMARK    5  A    between atoms: C_8  and  C_10
REMARK    6  A    between atoms: C_10  and  N_11
REMARK    7  A    between atoms: C_16  and  C_18
REMARK    8  A    between atoms: N_20  and  C_21
REMARK    9  A    between atoms: C_21  and  C_22
REMARK   10  A    between atoms: O_27  and  C_28
REMARK                            x       y       z     vdW  Elec       q    Type
REMARK                         _______ _______ _______ _____ _____    ______ ____
ROOT
ATOM      1  N   UNL     1      -3.988  -3.784  -2.004  0.00  0.00    +0.390 N 
ATOM      2  C   UNL     1      -5.029  -4.044  -1.003  0.00  0.00    -0.077 C 
ATOM      3  C   UNL     1      -4.610  -5.221  -0.119  0.00  0.00    -0.019 C 
ATOM      4  C   UNL     1      -4.416  -6.464  -0.992  0.00  0.00    -0.003 C 
ATOM      5  C   UNL     1      -3.381  -6.157  -2.079  0.00  0.00    -0.006 C 
ATOM      6  C   UNL     1      -3.846  -4.945  -2.890  0.00  0.00    +0.020 C 
ATOM      7  H   UNL     1      -3.111  -3.610  -1.537  0.00  0.00    -0.080 HD
ENDROOT
BRANCH   6   8
ATOM      8  C   UNL     1      -2.831  -4.639  -3.961  0.00  0.00    +0.200 C 
ATOM      9  O   UNL     1      -1.934  -3.854  -3.740  0.00  0.00    -0.278 OA
ATOM     10  N   UNL     1      -2.921  -5.238  -5.165  0.00  0.00    -0.310 N 
ATOM     11  H   UNL     1      -3.638  -5.866  -5.343  0.00  0.00    +0.149 HD
BRANCH  10  12
ATOM     12  C   UNL     1      -1.934  -4.940  -6.206  0.00  0.00    +0.178 C 
BRANCH  12  13
ATOM     13  C   UNL     1      -2.257  -5.734  -7.446  0.00  0.00    +0.122 A 
ATOM     14  C   UNL     1      -3.048  -5.329  -8.456  0.00  0.00    +0.046 A 
ATOM     15  C   UNL     1      -3.072  -6.378  -9.403  0.00  0.00    +0.041 A 
ATOM     16  C   UNL     1      -2.295  -7.361  -8.916  0.00  0.00    +0.195 A 
ATOM     17  O   UNL     1      -1.799  -6.964  -7.733  0.00  0.00    -0.466 OA
ENDBRANCH  12  13
ENDBRANCH  10  12
ENDBRANCH   6   8
BRANCH   1  18
ATOM     18  C   UNL     1      -4.359  -2.605  -2.800  0.00  0.00    -0.038 C 
BRANCH  18  23
ATOM     19  C   UNL     1      -3.244   0.540  -1.034  0.00  0.00    -0.044 A 
ATOM     20  C   UNL     1      -4.368   0.859  -0.295  0.00  0.00    +0.007 A 
ATOM     21  C   UNL     1      -5.491   0.058  -0.363  0.00  0.00    +0.046 A 
ATOM     22  C   UNL     1      -5.491  -1.067  -1.175  0.00  0.00    +0.121 A 
ATOM     23  C   UNL     1      -4.362  -1.384  -1.917  0.00  0.00    -0.022 A 
ATOM     24  C   UNL     1      -3.243  -0.577  -1.849  0.00  0.00    +0.009 A 
BRANCH  19  26
ATOM     25  C   UNL     1      -2.377   2.833  -1.409  0.00  0.00    +0.012 C 
ATOM     26  C   UNL     1      -2.019   1.416  -0.958  0.00  0.00    +0.013 C 
ATOM     27  C   UNL     1      -1.509   1.454   0.484  0.00  0.00    +0.012 C 
ENDBRANCH  19  26
BRANCH  22  28
ATOM     28  O   UNL     1      -6.594  -1.857  -1.244  0.00  0.00    -0.495 OA
ATOM     29  C   UNL     1      -7.720  -1.470  -0.453  0.00  0.00    +0.277 C 
ENDBRANCH  22  28
ENDBRANCH  18  23
ENDBRANCH   1  18
TORSDOF 7
