REMARK  Name = ZINC27838649
REMARK  1 active torsions:
REMARK  status: ('A' for Active; 'I' for Inactive)
REMARK    1  A    between atoms: C_7  and  C_9
REMARK                            x       y       z     vdW  Elec       q    Type
REMARK                         _______ _______ _______ _____ _____    ______ ____
ROOT
ATOM      1  C   UNL     1      -3.648   3.807   0.059  0.00  0.00    +0.122 A 
ATOM      2  C   UNL     1      -2.466   4.526   0.051  0.00  0.00    +0.032 A 
ATOM      3  C   UNL     1      -1.238   3.817   0.035  0.00  0.00    +0.021 A 
ATOM      4  C   UNL     1      -0.020   4.516   0.027  0.00  0.00    +0.031 A 
ATOM      5  C   UNL     1       1.159   3.827   0.011  0.00  0.00    +0.043 A 
ATOM      6  C   UNL     1       1.163   2.438   0.004  0.00  0.00    +0.043 A 
ATOM      7  C   UNL     1      -0.021   1.732   0.012  0.00  0.00    +0.085 A 
ATOM      8  C   UNL     1      -1.236   2.411   0.021  0.00  0.00    +0.157 A 
ATOM      9  O   UNL     1      -2.395   1.718   0.035  0.00  0.00    -0.420 OA
ATOM     10  C   UNL     1      -3.584   2.341   0.050  0.00  0.00    +0.350 A 
ATOM     11  O   UNL     1      -4.612   1.688   0.057  0.00  0.00    -0.244 OA
ATOM     12 CL   UNL     1       0.002  -0.004   0.002  0.00  0.00    -0.080 Cl
ATOM     13 CL   UNL     1       2.663   4.694   0.001  0.00  0.00    -0.083 Cl
ENDROOT
BRANCH   1  20
ATOM     14  C   UNL     1      -8.500   6.758   0.124  0.00  0.00    +0.120 A 
ATOM     15  C   UNL     1      -8.326   8.103   0.130  0.00  0.00    +0.068 A 
ATOM     16  S   UNL     1      -6.543   8.207   0.114  0.00  0.00    -0.061 S 
ATOM     17  C   UNL     1      -6.217   6.502   0.100  0.00  0.00    +0.165 A 
ATOM     18  N   UNL     1      -7.431   5.987   0.104  0.00  0.00    -0.233 NA
ATOM     19  N   UNL     1      -4.992   5.847   0.084  0.00  0.00    -0.260 N 
ATOM     20  C   UNL     1      -4.947   4.500   0.076  0.00  0.00    +0.257 C 
ATOM     21  O   UNL     1      -5.979   3.858   0.083  0.00  0.00    -0.270 OA
ATOM     22  H   UNL     1      -4.058   6.429   0.078  0.00  0.00    +0.157 HD
ENDBRANCH   1  20
TORSDOF 1
