REMARK  Name = ZINC41113610
REMARK  9 active torsions:
REMARK  status: ('A' for Active; 'I' for Inactive)
REMARK    1  A    between atoms: C_1  and  C_2
REMARK    2  A    between atoms: C_7  and  C_15
REMARK    3  A    between atoms: N_9  and  C_10
REMARK    4  A    between atoms: C_10  and  C_11
REMARK    5  A    between atoms: C_11  and  N_12
REMARK    6  A    between atoms: N_12  and  C_13
REMARK    7  A    between atoms: N_12  and  C_14
REMARK    8  A    between atoms: C_16  and  C_18
REMARK    9  A    between atoms: C_20  and  C_23
REMARK                            x       y       z     vdW  Elec       q    Type
REMARK                         _______ _______ _______ _____ _____    ______ ____
ROOT
ATOM      1  C   UNL     1      -0.318   1.911   0.058  0.00  0.00    +0.026 C 
ATOM      2  C   UNL     1      -0.071   0.410   0.219  0.00  0.00    +0.071 C 
ATOM      3  C   UNL     1      -1.414  -0.324   0.296  0.00  0.00    +0.126 C 
ATOM      4  N   UNL     1      -2.096   0.080   1.535  0.00  0.00    -0.293 N 
ATOM      5  C   UNL     1      -1.351  -0.005   2.800  0.00  0.00    +0.126 C 
ATOM      6  C   UNL     1      -0.010   0.716   2.624  0.00  0.00    +0.071 C 
ATOM      7  N   UNL     1       0.688   0.167   1.453  0.00  0.00    -0.296 NA
ATOM      8  C   UNL     1       0.848   0.509   3.873  0.00  0.00    +0.026 C 
ATOM      9  C   UNL     1      -3.371   0.518   1.512  0.00  0.00    +0.268 C 
ATOM     10  O   UNL     1      -3.932   0.698   0.449  0.00  0.00    -0.268 OA
ENDROOT
BRANCH   9  11
ATOM     11  C   UNL     1      -4.089   0.779   2.783  0.00  0.00    +0.168 A 
ATOM     12  C   UNL     1      -5.367   1.364   2.909  0.00  0.00    +0.086 A 
ATOM     13  C   UNL     1      -5.668   1.430   4.233  0.00  0.00    +0.168 A 
ATOM     14  O   UNL     1      -4.633   0.911   4.920  0.00  0.00    -0.354 OA
ATOM     15  N   UNL     1      -3.650   0.502   3.988  0.00  0.00    -0.073 NA
BRANCH  13  16
ATOM     16  C   UNL     1      -6.913   1.974   4.816  0.00  0.00    +0.020 A 
ATOM     17  C   UNL     1      -7.914   2.479   3.985  0.00  0.00    +0.013 A 
ATOM     18  C   UNL     1      -9.073   2.986   4.534  0.00  0.00    +0.021 A 
ATOM     19  C   UNL     1      -9.245   2.995   5.908  0.00  0.00    +0.041 A 
ATOM     20  C   UNL     1      -8.255   2.496   6.739  0.00  0.00    +0.021 A 
ATOM     21  C   UNL     1      -7.094   1.981   6.200  0.00  0.00    +0.013 A 
ATOM     22 CL   UNL     1     -10.706   3.635   6.593  0.00  0.00    -0.084 Cl
ENDBRANCH  13  16
ENDBRANCH   9  11
BRANCH   7  23
ATOM     23  C   UNL     1       2.050   0.709   1.349  0.00  0.00    +0.066 C 
BRANCH  23  24
ATOM     24  C   UNL     1       2.846  -0.106   0.329  0.00  0.00    -0.064 C 
BRANCH  24  25
ATOM     25  N   UNL     1       4.176   0.494   0.153  0.00  0.00    +0.377 N 
ATOM     26  C   UNL     1       4.930   0.388   1.410  0.00  0.00    -0.097 C 
ATOM     27  C   UNL     1       4.897  -0.216  -0.911  0.00  0.00    -0.097 C 
ATOM     28  H   UNL     1       4.076   1.466  -0.098  0.00  0.00    -0.083 HD
ENDBRANCH  24  25
ENDBRANCH  23  24
ENDBRANCH   7  23
TORSDOF 5
