REMARK  Name = ZINC40010589
REMARK  8 active torsions:
REMARK  status: ('A' for Active; 'I' for Inactive)
REMARK    1  A    between atoms: C_1  and  C_2
REMARK    2  A    between atoms: C_2  and  C_3
REMARK    3  A    between atoms: C_10  and  C_15
REMARK    4  A    between atoms: C_19  and  O_33
REMARK    5  A    between atoms: C_20  and  O_31
REMARK    6  A    between atoms: C_26  and  C_28
REMARK    7  A    between atoms: O_31  and  C_32
REMARK    8  A    between atoms: O_33  and  C_34
REMARK                            x       y       z     vdW  Elec       q    Type
REMARK                         _______ _______ _______ _____ _____    ______ ____
ROOT
ATOM      1  C   UNL     1       5.375  -3.216  -3.436  0.00  0.00    +0.122 C 
ATOM      2  C   UNL     1       4.337  -4.261  -3.111  0.00  0.00    -0.019 A 
ATOM      3  C   UNL     1       3.684  -4.164  -1.889  0.00  0.00    +0.055 A 
ATOM      4  C   UNL     1       2.716  -5.085  -1.535  0.00  0.00    +0.162 A 
ATOM      5  C   UNL     1       2.393  -6.115  -2.414  0.00  0.00    +0.162 A 
ATOM      6  C   UNL     1       3.049  -6.209  -3.627  0.00  0.00    +0.053 A 
ATOM      7  C   UNL     1       4.027  -5.285  -3.977  0.00  0.00    -0.037 A 
ATOM      8  C   UNL     1       4.716  -5.470  -5.303  0.00  0.00    +0.054 C 
ATOM      9  C   UNL     1       5.380  -4.171  -5.757  0.00  0.00    +0.113 C 
ATOM     10  N   UNL     1       6.138  -3.629  -4.619  0.00  0.00    -0.293 N 
ATOM     11  C   UNL     1       7.480  -3.517  -4.661  0.00  0.00    +0.219 C 
ATOM     12  O   UNL     1       8.082  -3.066  -3.710  0.00  0.00    -0.275 OA
ENDROOT
BRANCH   1  20
ATOM     13  C   UNL     1       2.683  -0.909  -8.071  0.00  0.00    -0.047 A 
ATOM     14  C   UNL     1       3.728  -0.010  -8.290  0.00  0.00    +0.005 A 
ATOM     15  C   UNL     1       4.712   0.207  -7.379  0.00  0.00    +0.024 A 
ATOM     16  C   UNL     1       4.714  -0.483  -6.152  0.00  0.00    +0.040 A 
ATOM     17  N   UNL     1       5.685  -0.263  -5.266  0.00  0.00    -0.284 N 
ATOM     18  C   UNL     1       5.747  -0.877  -4.096  0.00  0.00    +0.226 C 
ATOM     19  O   UNL     1       6.658  -0.634  -3.327  0.00  0.00    -0.275 OA
ATOM     20  C   UNL     1       4.682  -1.881  -3.718  0.00  0.00    +0.123 C 
ATOM     21  C   UNL     1       3.576  -2.136  -4.723  0.00  0.00    -0.003 C 
ATOM     22  C   UNL     1       3.623  -1.439  -5.894  0.00  0.00    -0.007 A 
ATOM     23  C   UNL     1       2.593  -1.620  -6.917  0.00  0.00    +0.013 A 
ATOM     24  H   UNL     1       6.378   0.378  -5.489  0.00  0.00    +0.155 HD
BRANCH  13  26
ATOM     25  C   UNL     1       0.495  -0.092  -8.902  0.00  0.00    +0.009 C 
ATOM     26  C   UNL     1       1.631  -1.090  -9.134  0.00  0.00    +0.032 C 
ENDBRANCH  13  26
ENDBRANCH   1  20
BRANCH  11  27
ATOM     27  C   UNL     1       8.234  -3.951  -5.892  0.00  0.00    +0.075 C 
ATOM     28  C   UNL     1       9.127  -5.188  -5.774  0.00  0.00    +0.013 C 
ATOM     29  C   UNL     1       9.756  -3.797  -5.879  0.00  0.00    +0.013 C 
ENDBRANCH  11  27
BRANCH   5  30
ATOM     30  O   UNL     1       1.439  -7.024  -2.080  0.00  0.00    -0.491 OA
ATOM     31  C   UNL     1       1.162  -8.053  -3.033  0.00  0.00    +0.277 C 
ENDBRANCH   5  30
BRANCH   4  32
ATOM     32  O   UNL     1       2.081  -4.985  -0.336  0.00  0.00    -0.491 OA
ATOM     33  C   UNL     1       2.466  -3.901   0.513  0.00  0.00    +0.277 C 
ENDBRANCH   4  32
TORSDOF 5
