REMARK  Name = ZINC03128307
REMARK  5 active torsions:
REMARK  status: ('A' for Active; 'I' for Inactive)
REMARK    1  A    between atoms: C_4  and  S_7
REMARK    2  A    between atoms: S_7  and  C_10
REMARK    3  A    between atoms: C_10  and  C_12
REMARK    4  A    between atoms: C_10  and  N_32
REMARK    5  A    between atoms: C_23  and  C_25
REMARK                            x       y       z     vdW  Elec       q    Type
REMARK                         _______ _______ _______ _____ _____    ______ ____
ROOT
ATOM      1  C   UNL     1       0.734  -0.650   0.910  0.00  0.00    +0.158 C 
ATOM      2  C   UNL     1       1.954   0.192   1.186  0.00  0.00    -0.020 A 
ATOM      3  C   UNL     1       3.027  -0.413   1.827  0.00  0.00    +0.006 A 
ATOM      4  C   UNL     1       4.167   0.308   2.116  0.00  0.00    +0.000 A 
ATOM      5  C   UNL     1       4.240   1.644   1.766  0.00  0.00    +0.000 A 
ATOM      6  C   UNL     1       3.177   2.245   1.126  0.00  0.00    +0.004 A 
ATOM      7  C   UNL     1       2.029   1.519   0.828  0.00  0.00    -0.041 A 
ATOM      8  C   UNL     1       0.919   2.234   0.103  0.00  0.00    +0.054 C 
ATOM      9  C   UNL     1      -0.406   1.494   0.272  0.00  0.00    +0.113 C 
ATOM     10  N   UNL     1      -0.166   0.067   0.000  0.00  0.00    -0.286 N 
ATOM     11  C   UNL     1      -0.749  -0.556  -1.044  0.00  0.00    +0.247 C 
ATOM     12  O   UNL     1      -1.578   0.028  -1.713  0.00  0.00    -0.270 OA
ENDROOT
BRANCH  11  13
ATOM     13  C   UNL     1      -0.379  -1.947  -1.374  0.00  0.00    +0.037 A 
ATOM     14  C   UNL     1      -0.259  -2.343  -2.708  0.00  0.00    +0.016 A 
ATOM     15  C   UNL     1       0.092  -3.641  -3.010  0.00  0.00    +0.039 A 
ATOM     16  C   UNL     1       0.314  -4.556  -1.993  0.00  0.00    +0.123 A 
ATOM     17  C   UNL     1       0.191  -4.171  -0.667  0.00  0.00    +0.039 A 
ATOM     18  C   UNL     1      -0.154  -2.873  -0.353  0.00  0.00    +0.016 A 
ATOM     19  F   UNL     1       0.653  -5.829  -2.295  0.00  0.00    -0.205 F 
ENDBRANCH  11  13
BRANCH   1  20
ATOM     20  C   UNL     1       0.005  -0.937   2.225  0.00  0.00    +0.339 C 
BRANCH  20  21
ATOM     21  S   UNL     1       1.041  -1.998   3.271  0.00  0.00    +0.026 S 
ATOM     22  O   UNL     1       1.265  -3.247   2.631  0.00  0.00    -0.167 OA
ATOM     23  O   UNL     1       2.126  -1.250   3.803  0.00  0.00    -0.167 OA
BRANCH  21  27
ATOM     24  C   UNL     1      -1.547  -2.983   6.852  0.00  0.00    +0.000 A 
ATOM     25  C   UNL     1      -1.569  -3.800   5.737  0.00  0.00    +0.002 A 
ATOM     26  C   UNL     1      -0.779  -3.499   4.644  0.00  0.00    +0.027 A 
ATOM     27  C   UNL     1       0.033  -2.381   4.665  0.00  0.00    +0.091 A 
ATOM     28  C   UNL     1       0.060  -1.567   5.782  0.00  0.00    +0.027 A 
ATOM     29  C   UNL     1      -0.734  -1.865   6.873  0.00  0.00    +0.002 A 
ENDBRANCH  21  27
ENDBRANCH  20  21
BRANCH  20  30
ATOM     30  N   UNL     1      -1.261  -1.617   1.943  0.00  0.00    +0.050 N 
ATOM     31  O   UNL     1      -1.392  -2.798   2.211  0.00  0.00    -0.130 OA
ATOM     32  O   UNL     1      -2.184  -1.001   1.441  0.00  0.00    -0.130 OA
ENDBRANCH  20  30
ENDBRANCH   1  20
TORSDOF 5
