REMARK  Name = ZINC56782962
REMARK  5 active torsions:
REMARK  status: ('A' for Active; 'I' for Inactive)
REMARK    1  A    between atoms: C_1  and  C_2
REMARK    2  A    between atoms: C_7  and  N_12
REMARK    3  A    between atoms: C_9  and  C_11
REMARK    4  A    between atoms: C_18  and  C_21
REMARK    5  A    between atoms: N_23  and  C_24
REMARK                            x       y       z     vdW  Elec       q    Type
REMARK                         _______ _______ _______ _____ _____    ______ ____
ROOT
ATOM      1  N   UNL     1       0.734  -0.503   3.687  0.00  0.00    -0.296 N 
ATOM      2  C   UNL     1       0.634   0.166   4.853  0.00  0.00    +0.302 C 
ATOM      3  O   UNL     1       0.031   1.221   4.898  0.00  0.00    -0.253 OA
ATOM      4  N   UNL     1       1.202  -0.333   5.968  0.00  0.00    -0.286 N 
ATOM      5  C   UNL     1       2.031  -1.545   5.907  0.00  0.00    +0.110 C 
ATOM      6  C   UNL     1       1.497  -2.559   6.924  0.00  0.00    +0.032 C 
ATOM      7  C   UNL     1       1.438  -1.907   8.307  0.00  0.00    +0.078 C 
ATOM      8  C   UNL     1       0.482  -0.712   8.269  0.00  0.00    +0.032 C 
ATOM      9  C   UNL     1       1.009   0.326   7.267  0.00  0.00    +0.110 C 
ATOM     10  H   UNL     1       1.276  -1.306   3.634  0.00  0.00    +0.151 HD
ENDROOT
BRANCH   1  16
ATOM     11  C   UNL     1      -0.024   1.523   0.011  0.00  0.00    +0.008 C 
ATOM     12  C   UNL     1      -0.003  -0.006   0.003  0.00  0.00    -0.009 C 
ATOM     13  C   UNL     1      -1.438  -0.537   0.015  0.00  0.00    +0.003 C 
ATOM     14  C   UNL     1      -2.153  -0.043   1.274  0.00  0.00    +0.002 C 
ATOM     15  C   UNL     1      -1.411  -0.549   2.514  0.00  0.00    +0.022 C 
ATOM     16  C   UNL     1       0.024  -0.019   2.501  0.00  0.00    +0.078 C 
ATOM     17  C   UNL     1       0.739  -0.512   1.242  0.00  0.00    +0.009 C 
ATOM     18  C   UNL     1       2.174   0.018   1.229  0.00  0.00    +0.009 C 
ENDBRANCH   1  16
BRANCH   7  19
ATOM     19  C   UNL     1       0.946  -2.912   9.316  0.00  0.00    +0.216 C 
ATOM     20  O   UNL     1       0.669  -4.039   8.963  0.00  0.00    -0.276 OA
ATOM     21  N   UNL     1       0.812  -2.558  10.609  0.00  0.00    -0.312 N 
ATOM     22  H   UNL     1       1.034  -1.657  10.891  0.00  0.00    +0.149 HD
BRANCH  21  23
ATOM     23  C   UNL     1       0.334  -3.536  11.590  0.00  0.00    +0.073 C 
ATOM     24  C   UNL     1      -0.706  -3.063  12.608  0.00  0.00    +0.024 C 
ATOM     25  C   UNL     1       0.735  -3.325  13.052  0.00  0.00    +0.024 C 
ENDBRANCH  21  23
ENDBRANCH   7  19
TORSDOF 3
