REMARK  Name = ZINC59777713
REMARK  4 active torsions:
REMARK  status: ('A' for Active; 'I' for Inactive)
REMARK    1  A    between atoms: C_6  and  C_7
REMARK    2  A    between atoms: C_10  and  S_13
REMARK    3  A    between atoms: S_13  and  C_14
REMARK    4  A    between atoms: C_14  and  C_15
REMARK                            x       y       z     vdW  Elec       q    Type
REMARK                         _______ _______ _______ _____ _____    ______ ____
ROOT
ATOM      1  C   UNL     1      -1.271  -0.766   0.011  0.00  0.00    +0.182 A 
ATOM      2  N   UNL     1      -1.380  -2.102   0.004  0.00  0.00    -0.201 NA
ATOM      3  H   UNL     1      -4.355  -1.246   0.040  0.00  0.00    +0.191 HD
ATOM      4  C   UNL     1      -2.651  -2.442   0.016  0.00  0.00    +0.185 A 
ATOM      5  N   UNL     1      -3.387  -1.309   0.029  0.00  0.00    -0.253 N 
ATOM      6  N   UNL     1      -2.475  -0.241   0.031  0.00  0.00    -0.152 NA
ENDROOT
BRANCH   1  12
ATOM      7  C   UNL     1      -0.017   1.389   0.010  0.00  0.00    +0.013 A 
ATOM      8  C   UNL     1       1.170   2.093   0.002  0.00  0.00    +0.016 A 
ATOM      9  C   UNL     1       2.378   1.417  -0.013  0.00  0.00    +0.018 A 
ATOM     10  C   UNL     1       2.402   0.034  -0.021  0.00  0.00    +0.016 A 
ATOM     11  C   UNL     1       1.221  -0.680  -0.014  0.00  0.00    +0.013 A 
ATOM     12  C   UNL     1       0.002  -0.004   0.002  0.00  0.00    +0.021 A 
ATOM     13 BR   UNL     1       4.001   2.388  -0.025  0.00  0.00    -0.050 Br
ENDBRANCH   1  12
BRANCH   4  14
ATOM     14  S   UNL     1      -3.282  -4.087   0.013  0.00  0.00    -0.077 S 
BRANCH  14  15
ATOM     15  C   UNL     1      -1.796  -5.128  -0.007  0.00  0.00    +0.173 C 
BRANCH  15  16
ATOM     16  C   UNL     1      -2.200  -6.580  -0.010  0.00  0.00    +0.229 C 
ATOM     17  O   UNL     1      -3.374  -6.883  -0.000  0.00  0.00    -0.275 OA
ATOM     18  N   UNL     1      -1.256  -7.541  -0.025  0.00  0.00    -0.263 N 
ATOM     19  C   UNL     1      -1.629  -8.881  -0.028  0.00  0.00    +0.187 A 
ATOM     20  N   UNL     1      -2.837  -9.408  -0.025  0.00  0.00    -0.126 NA
ATOM     21  N   UNL     1      -3.020 -10.659  -0.029  0.00  0.00    -0.148 NA
ATOM     22  C   UNL     1      -1.974 -11.460  -0.036  0.00  0.00    +0.183 A 
ATOM     23  S   UNL     1      -0.653 -10.256  -0.045  0.00  0.00    -0.039 S 
ATOM     24  H   UNL     1      -0.317  -7.299  -0.033  0.00  0.00    +0.157 HD
ENDBRANCH  15  16
ENDBRANCH  14  15
ENDBRANCH   4  14
TORSDOF 4
