REMARK  Name = ZINC63138594
REMARK  7 active torsions:
REMARK  status: ('A' for Active; 'I' for Inactive)
REMARK    1  A    between atoms: C_1  and  C_2
REMARK    2  A    between atoms: C_2  and  O_3
REMARK    3  A    between atoms: O_3  and  C_4
REMARK    4  A    between atoms: C_4  and  C_5
REMARK    5  A    between atoms: C_5  and  C_6
REMARK    6  A    between atoms: C_6  and  N_7
REMARK    7  A    between atoms: C_27  and  C_29
REMARK                            x       y       z     vdW  Elec       q    Type
REMARK                         _______ _______ _______ _____ _____    ______ ____
ROOT
ATOM      1  N   UNL     1       2.255  -4.190  -3.908  0.00  0.00    -0.291 N 
ATOM      2  C   UNL     1       1.469  -4.363  -5.118  0.00  0.00    +0.203 C 
ATOM      3  C   UNL     1       2.315  -4.728  -6.293  0.00  0.00    +0.234 C 
ATOM      4  O   UNL     1       1.758  -4.898  -7.357  0.00  0.00    -0.274 OA
ATOM      5  N   UNL     1       3.644  -4.880  -6.256  0.00  0.00    -0.279 N 
ATOM      6  C   UNL     1       4.426  -4.684  -5.040  0.00  0.00    +0.167 C 
ATOM      7  C   UNL     1       3.579  -4.325  -3.863  0.00  0.00    +0.237 C 
ATOM      8  O   UNL     1       4.132  -4.150  -2.798  0.00  0.00    -0.274 OA
ATOM      9  C   UNL     1       5.481  -3.586  -5.266  0.00  0.00    +0.065 C 
ATOM     10  C   UNL     1       6.135  -3.885  -6.592  0.00  0.00    -0.034 C 
ATOM     11  C   UNL     1       7.411  -3.997  -6.940  0.00  0.00    -0.001 A 
ATOM     12  C   UNL     1       8.655  -3.763  -6.189  0.00  0.00    +0.010 A 
ATOM     13  C   UNL     1       9.813  -4.001  -6.860  0.00  0.00    +0.001 A 
ATOM     14  C   UNL     1       9.858  -4.442  -8.186  0.00  0.00    +0.002 A 
ATOM     15  C   UNL     1       8.764  -4.674  -8.954  0.00  0.00    +0.026 A 
ATOM     16  C   UNL     1       7.487  -4.451  -8.362  0.00  0.00    +0.043 A 
ATOM     17  N   UNL     1       6.294  -4.569  -8.866  0.00  0.00    -0.375 N 
ATOM     18  C   UNL     1       5.322  -4.149  -7.855  0.00  0.00    +0.131 C 
ATOM     19  C   UNL     1       4.330  -5.263  -7.510  0.00  0.00    +0.133 C 
ATOM     20  H   UNL     1       6.083  -4.881  -9.760  0.00  0.00    +0.160 HD
ENDROOT
BRANCH  19  21
ATOM     21  C   UNL     1       3.322  -5.412  -8.620  0.00  0.00    -0.025 A 
ATOM     22  C   UNL     1       2.787  -6.654  -8.906  0.00  0.00    +0.007 A 
ATOM     23  C   UNL     1       1.863  -6.791  -9.924  0.00  0.00    +0.020 A 
ATOM     24  C   UNL     1       1.472  -5.684 -10.657  0.00  0.00    +0.041 A 
ATOM     25  C   UNL     1       2.008  -4.441 -10.370  0.00  0.00    +0.020 A 
ATOM     26  C   UNL     1       2.929  -4.305  -9.348  0.00  0.00    +0.007 A 
ATOM     27 CL   UNL     1       0.311  -5.855 -11.936  0.00  0.00    -0.084 Cl
ENDBRANCH  19  21
BRANCH   1  28
ATOM     28  C   UNL     1       1.552  -3.842  -2.670  0.00  0.00    +0.110 C 
BRANCH  28  29
ATOM     29  C   UNL     1       1.461  -2.320  -2.546  0.00  0.00    +0.047 C 
BRANCH  29  30
ATOM     30  C   UNL     1       0.727  -1.956  -1.254  0.00  0.00    +0.161 C 
BRANCH  30  31
ATOM     31  O   UNL     1       0.642  -0.535  -1.138  0.00  0.00    -0.380 OA
BRANCH  31  33
ATOM     32  C   UNL     1      -0.061   1.443   0.060  0.00  0.00    +0.034 C 
ATOM     33  C   UNL     1      -0.029  -0.087   0.041  0.00  0.00    +0.156 C 
ENDBRANCH  31  33
ENDBRANCH  30  31
ENDBRANCH  29  30
ENDBRANCH  28  29
ENDBRANCH   1  28
TORSDOF 6
