REMARK  Name = ZINC66594843
REMARK  9 active torsions:
REMARK  status: ('A' for Active; 'I' for Inactive)
REMARK    1  A    between atoms: C_1  and  C_2
REMARK    2  A    between atoms: C_2  and  N_16
REMARK    3  A    between atoms: N_10  and  C_11
REMARK    4  A    between atoms: N_16  and  C_17
REMARK    5  A    between atoms: C_18  and  O_20
REMARK    6  A    between atoms: O_20  and  C_21
REMARK    7  A    between atoms: C_21  and  C_22
REMARK    8  A    between atoms: C_21  and  C_23
REMARK    9  A    between atoms: C_21  and  C_24
REMARK                            x       y       z     vdW  Elec       q    Type
REMARK                         _______ _______ _______ _____ _____    ______ ____
ROOT
ATOM      1  C   UNL     1       0.216   1.727  -0.280  0.00  0.00    +0.032 C 
ATOM      2  C   UNL     1       0.108   0.220  -0.038  0.00  0.00    +0.040 C 
ATOM      3  C   UNL     1      -1.361  -0.160   0.165  0.00  0.00    +0.045 C 
ATOM      4  C   UNL     1      -1.469  -1.673   0.373  0.00  0.00    +0.111 C 
ATOM      5  N   UNL     1      -0.586  -2.063   1.481  0.00  0.00    -0.286 N 
ATOM      6  C   UNL     1       0.828  -1.669   1.429  0.00  0.00    +0.111 C 
ATOM      7  C   UNL     1       0.911  -0.155   1.210  0.00  0.00    +0.045 C 
ATOM      8  C   UNL     1      -1.065  -2.768   2.525  0.00  0.00    +0.302 C 
ATOM      9  O   UNL     1      -0.348  -3.006   3.478  0.00  0.00    -0.253 OA
ATOM     10  N   UNL     1      -2.338  -3.211   2.512  0.00  0.00    -0.296 N 
ATOM     11  H   UNL     1      -2.887  -3.086   1.722  0.00  0.00    +0.151 HD
ENDROOT
BRANCH  10  12
ATOM     12  C   UNL     1      -2.893  -3.880   3.691  0.00  0.00    +0.074 C 
ATOM     13  C   UNL     1      -3.494  -2.838   4.657  0.00  0.00    +0.022 C 
ATOM     14  C   UNL     1      -5.000  -2.813   4.298  0.00  0.00    +0.002 C 
ATOM     15  C   UNL     1      -5.307  -4.302   4.003  0.00  0.00    +0.002 C 
ATOM     16  C   UNL     1      -4.045  -4.811   3.275  0.00  0.00    +0.022 C 
ENDBRANCH  10  12
BRANCH   2  17
ATOM     17  N   UNL     1       0.642  -0.500  -1.196  0.00  0.00    -0.265 N 
ATOM     18  C   UNL     1       1.897  -1.247  -1.080  0.00  0.00    +0.136 C 
ATOM     19  C   UNL     1      -0.021  -0.475  -2.369  0.00  0.00    +0.404 C 
ATOM     20  O   UNL     1      -1.062   0.145  -2.466  0.00  0.00    -0.226 OA
BRANCH  19  21
ATOM     21  O   UNL     1       0.470  -1.137  -3.434  0.00  0.00    -0.445 OA
BRANCH  21  22
ATOM     22  C   UNL     1      -0.285  -1.067  -4.646  0.00  0.00    +0.107 C 
ATOM     23  C   UNL     1      -0.405   0.393  -5.088  0.00  0.00    +0.055 C 
ATOM     24  C   UNL     1       0.424  -1.874  -5.736  0.00  0.00    +0.055 C 
ATOM     25  C   UNL     1      -1.681  -1.646  -4.410  0.00  0.00    +0.055 C 
ENDBRANCH  21  22
ENDBRANCH  19  21
ENDBRANCH   2  17
TORSDOF 4
