REMARK  Name = ZINC40487940
REMARK  3 active torsions:
REMARK  status: ('A' for Active; 'I' for Inactive)
REMARK    1  A    between atoms: C_1  and  C_2
REMARK    2  A    between atoms: C_4  and  C_7
REMARK    3  A    between atoms: C_7  and  N_8
REMARK                            x       y       z     vdW  Elec       q    Type
REMARK                         _______ _______ _______ _____ _____    ______ ____
ROOT
ATOM      1  N   UNL     1       1.423  -3.567  -2.011  0.00  0.00    -0.290 N 
ATOM      2  C   UNL     1       2.047  -2.987  -3.069  0.00  0.00    +0.203 A 
ATOM      3  N   UNL     1       3.271  -3.253  -3.410  0.00  0.00    -0.235 NA
ATOM      4  C   UNL     1       4.023  -4.146  -2.720  0.00  0.00    +0.096 A 
ATOM      5  C   UNL     1       3.458  -4.800  -1.603  0.00  0.00    +0.068 A 
ATOM      6  C   UNL     1       2.071  -4.471  -1.240  0.00  0.00    +0.262 A 
ATOM      7  O   UNL     1       1.526  -4.995  -0.286  0.00  0.00    -0.267 OA
ATOM      8  C   UNL     1       4.210  -5.720  -0.877  0.00  0.00    +0.035 A 
ATOM      9  C   UNL     1       5.509  -5.987  -1.258  0.00  0.00    +0.043 A 
ATOM     10  C   UNL     1       6.069  -5.346  -2.356  0.00  0.00    +0.042 A 
ATOM     11  C   UNL     1       5.340  -4.432  -3.087  0.00  0.00    +0.068 A 
ATOM     12 CL   UNL     1       6.056  -3.641  -4.456  0.00  0.00    -0.081 Cl
ATOM     13 CL   UNL     1       6.452  -7.133  -0.357  0.00  0.00    -0.083 Cl
ENDROOT
BRANCH   1  14
ATOM     14  C   UNL     1       0.038  -3.206  -1.697  0.00  0.00    +0.225 C 
BRANCH  14  18
ATOM     15  C   UNL     1      -0.018   1.503   0.010  0.00  0.00    +0.091 C 
ATOM     16  C   UNL     1       0.002  -0.004   0.002  0.00  0.00    +0.169 A 
ATOM     17  N   UNL     1       0.008  -0.776  -1.091  0.00  0.00    -0.195 NA
ATOM     18  C   UNL     1       0.026  -2.034  -0.750  0.00  0.00    +0.247 A 
ATOM     19  O   UNL     1       0.033  -2.107   0.587  0.00  0.00    -0.336 OA
ATOM     20  N   UNL     1       0.023  -0.767   1.057  0.00  0.00    -0.062 NA
ENDBRANCH  14  18
ENDBRANCH   1  14
TORSDOF 2
