REMARK  Name = ZINC67348202
REMARK  5 active torsions:
REMARK  status: ('A' for Active; 'I' for Inactive)
REMARK    1  A    between atoms: C_1  and  C_2
REMARK    2  A    between atoms: C_2  and  C_3
REMARK    3  A    between atoms: C_2  and  N_4
REMARK    4  A    between atoms: C_5  and  S_9
REMARK    5  A    between atoms: S_9  and  C_10
REMARK                            x       y       z     vdW  Elec       q    Type
REMARK                         _______ _______ _______ _____ _____    ______ ____
ROOT
ATOM      1  N   UNL     1       0.688  -0.476  -1.203  0.00  0.00    -0.217 N 
ATOM      2  C   UNL     1       1.799  -1.247  -1.268  0.00  0.00    +0.217 A 
ATOM      3  N   UNL     1       2.068  -1.431  -2.542  0.00  0.00    -0.101 NA
ATOM      4  N   UNL     1       1.203  -0.830  -3.276  0.00  0.00    -0.022 NA
ATOM      5  N   UNL     1       0.329  -0.232  -2.541  0.00  0.00    -0.043 NA
ENDROOT
BRANCH   1   7
ATOM      6  C   UNL     1      -0.019   1.526   0.010  0.00  0.00    +0.032 C 
ATOM      7  C   UNL     1       0.002  -0.004   0.002  0.00  0.00    +0.106 C 
ATOM      8  C   UNL     1      -1.433  -0.534   0.013  0.00  0.00    +0.032 C 
ENDBRANCH   1   7
BRANCH   2   9
ATOM      9  S   UNL     1       2.713  -1.883   0.098  0.00  0.00    -0.009 S 
BRANCH   9  10
ATOM     10  C   UNL     1       4.024  -2.790  -0.652  0.00  0.00    +0.196 A 
ATOM     11  N   UNL     1       4.105  -2.837  -1.974  0.00  0.00    -0.229 NA
ATOM     12  C   UNL     1       5.076  -3.508  -2.569  0.00  0.00    +0.130 A 
ATOM     13  C   UNL     1       6.017  -4.168  -1.792  0.00  0.00    +0.054 A 
ATOM     14  C   UNL     1       5.902  -4.098  -0.412  0.00  0.00    +0.130 A 
ATOM     15  N   UNL     1       4.909  -3.405   0.119  0.00  0.00    -0.229 NA
ATOM     16 BR   UNL     1       7.424  -5.142  -2.597  0.00  0.00    -0.047 Br
ENDBRANCH   9  10
ENDBRANCH   2   9
TORSDOF 3
