REMARK  Name = ZINC62960471
REMARK  2 active torsions:
REMARK  status: ('A' for Active; 'I' for Inactive)
REMARK    1  A    between atoms: C_1  and  C_2
REMARK    2  A    between atoms: C_2  and  C_4
REMARK                            x       y       z     vdW  Elec       q    Type
REMARK                         _______ _______ _______ _____ _____    ______ ____
ROOT
ATOM      1  C   UNL     1       1.131  -0.402   3.520  0.00  0.00    +0.238 C 
ATOM      2  O   UNL     1       0.543  -0.003   2.538  0.00  0.00    -0.274 OA
ATOM      3  N   UNL     1       2.038  -1.393   3.406  0.00  0.00    -0.239 N 
ATOM      4  C   UNL     1       2.290  -1.940   2.200  0.00  0.00    +0.308 C 
ATOM      5  O   UNL     1       1.636  -1.605   1.232  0.00  0.00    -0.252 OA
ATOM      6  N   UNL     1       3.268  -2.858   2.068  0.00  0.00    -0.285 N 
ATOM      7  C   UNL     1       3.635  -3.374   0.742  0.00  0.00    +0.110 C 
ATOM      8  C   UNL     1       3.560  -4.904   0.771  0.00  0.00    +0.026 C 
ATOM      9  C   UNL     1       4.415  -5.433   1.921  0.00  0.00    -0.026 C 
ATOM     10  C   UNL     1       4.387  -6.968   1.932  0.00  0.00    +0.007 C 
ATOM     11  C   UNL     1       5.845  -7.434   1.730  0.00  0.00    +0.001 C 
ATOM     12  C   UNL     1       6.698  -6.234   2.210  0.00  0.00    +0.001 C 
ATOM     13  C   UNL     1       5.882  -5.013   1.714  0.00  0.00    +0.007 C 
ATOM     14  C   UNL     1       3.907  -4.892   3.255  0.00  0.00    +0.026 C 
ATOM     15  C   UNL     1       3.990  -3.357   3.247  0.00  0.00    +0.110 C 
ATOM     16  H   UNL     1       2.508  -1.712   4.191  0.00  0.00    +0.159 HD
ENDROOT
BRANCH   1  18
ATOM     17  C   UNL     1      -0.663   0.353   5.056  0.00  0.00    +0.034 C 
ATOM     18  C   UNL     1       0.849   0.209   4.868  0.00  0.00    +0.163 C 
ATOM     19 CL   UNL     1       1.624   1.834   4.965  0.00  0.00    -0.112 Cl
ENDBRANCH   1  18
TORSDOF 1
