REMARK  Name = ZINC46561587
REMARK  5 active torsions:
REMARK  status: ('A' for Active; 'I' for Inactive)
REMARK    1  A    between atoms: C_1  and  C_2
REMARK    2  A    between atoms: C_2  and  C_3
REMARK    3  A    between atoms: C_2  and  C_4
REMARK    4  A    between atoms: C_12  and  C_14
REMARK    5  A    between atoms: C_19  and  O_20
REMARK                            x       y       z     vdW  Elec       q    Type
REMARK                         _______ _______ _______ _____ _____    ______ ____
ROOT
ATOM      1  C   UNL     1       0.212  -1.354   0.967  0.00  0.00    +0.218 C 
ATOM      2  O   UNL     1       1.198  -2.041   0.801  0.00  0.00    -0.275 OA
ATOM      3  N   UNL     1      -0.142  -0.973   2.210  0.00  0.00    -0.298 N 
ATOM      4  C   UNL     1      -1.398  -0.245   2.440  0.00  0.00    +0.127 C 
ATOM      5  C   UNL     1      -2.224  -1.009   3.481  0.00  0.00    +0.127 C 
ATOM      6  N   UNL     1      -1.363  -1.315   4.632  0.00  0.00    -0.294 N 
ATOM      7  C   UNL     1      -0.107  -2.044   4.402  0.00  0.00    +0.127 C 
ATOM      8  C   UNL     1       0.717  -1.284   3.361  0.00  0.00    +0.127 C 
ATOM      9  C   UNL     1      -1.717  -0.935   5.875  0.00  0.00    +0.250 C 
ATOM     10  O   UNL     1      -1.032  -1.253   6.827  0.00  0.00    -0.270 OA
ENDROOT
BRANCH   9  11
ATOM     11  C   UNL     1      -2.937  -0.131   6.081  0.00  0.00    +0.080 A 
ATOM     12  C   UNL     1      -4.163  -0.573   5.576  0.00  0.00    +0.036 A 
ATOM     13  C   UNL     1      -5.300   0.183   5.772  0.00  0.00    +0.042 A 
ATOM     14  C   UNL     1      -5.232   1.380   6.467  0.00  0.00    +0.023 A 
ATOM     15  C   UNL     1      -4.027   1.828   6.970  0.00  0.00    +0.047 A 
ATOM     16  C   UNL     1      -2.875   1.077   6.788  0.00  0.00    +0.129 A 
ATOM     17 CL   UNL     1      -6.822  -0.367   5.144  0.00  0.00    -0.084 Cl
BRANCH  16  18
ATOM     18  O   UNL     1      -1.691   1.513   7.287  0.00  0.00    -0.506 OA
ATOM     19  H   UNL     1      -1.189   2.072   6.679  0.00  0.00    +0.292 HD
ENDBRANCH  16  18
ENDBRANCH   9  11
BRANCH   1  21
ATOM     20  C   UNL     1       0.265  -0.886  -1.468  0.00  0.00    +0.017 C 
ATOM     21  C   UNL     1      -0.616  -0.926  -0.217  0.00  0.00    +0.069 C 
ATOM     22  C   UNL     1      -1.757  -1.924  -0.429  0.00  0.00    +0.017 C 
ENDBRANCH   1  21
TORSDOF 3
