REMARK  Name = ZINC44022805
REMARK  3 active torsions:
REMARK  status: ('A' for Active; 'I' for Inactive)
REMARK    1  A    between atoms: C_1  and  C_2
REMARK    2  A    between atoms: C_2  and  N_3
REMARK    3  A    between atoms: C_7  and  N_12
REMARK                            x       y       z     vdW  Elec       q    Type
REMARK                         _______ _______ _______ _____ _____    ______ ____
ROOT
ATOM      1  N   UNL     1       0.752  -0.517   1.154  0.00  0.00    -0.261 N 
ATOM      2  C   UNL     1       0.730   0.256   2.257  0.00  0.00    +0.258 A 
ATOM      3  O   UNL     1       0.156   1.331   2.241  0.00  0.00    -0.267 OA
ATOM      4  C   UNL     1       1.371  -0.184   3.426  0.00  0.00    +0.112 A 
ATOM      5  C   UNL     1       2.008  -1.395   3.418  0.00  0.00    +0.108 A 
ATOM      6  N   UNL     1       2.006  -2.151   2.271  0.00  0.00    -0.296 N 
ATOM      7  H   UNL     1       2.455  -3.010   2.259  0.00  0.00    +0.172 HD
ATOM      8  C   UNL     1       1.379  -1.708   1.165  0.00  0.00    +0.331 A 
ATOM      9  O   UNL     1       1.383  -2.392   0.160  0.00  0.00    -0.246 OA
ENDROOT
BRANCH   5  10
ATOM     10  N   UNL     1       2.643  -1.849   4.545  0.00  0.00    -0.313 N 
ATOM     11  C   UNL     1       4.074  -2.183   4.519  0.00  0.00    +0.107 C 
ATOM     12  C   UNL     1       4.261  -3.605   5.057  0.00  0.00    +0.019 C 
ATOM     13  C   UNL     1       3.610  -3.719   6.437  0.00  0.00    +0.007 C 
ATOM     14  C   UNL     1       2.107  -3.444   6.311  0.00  0.00    +0.010 C 
ATOM     15  C   UNL     1       1.911  -2.008   5.807  0.00  0.00    +0.078 C 
ATOM     16  C   UNL     1       0.428  -1.716   5.595  0.00  0.00    +0.023 C 
ATOM     17  C   UNL     1      -0.160  -2.709   4.592  0.00  0.00    +0.002 C 
ATOM     18  C   UNL     1       0.010  -4.131   5.132  0.00  0.00    +0.000 C 
ATOM     19  C   UNL     1       1.504  -4.445   5.322  0.00  0.00    +0.005 C 
ENDBRANCH   5  10
BRANCH   1  21
ATOM     20  C   UNL     1      -1.370  -0.540  -0.062  0.00  0.00    +0.027 C 
ATOM     21  C   UNL     1       0.083  -0.061  -0.067  0.00  0.00    +0.126 C 
ENDBRANCH   1  21
TORSDOF 2
