REMARK  Name = ZINC32106162
REMARK  3 active torsions:
REMARK  status: ('A' for Active; 'I' for Inactive)
REMARK    1  A    between atoms: C_4  and  C_7
REMARK    2  A    between atoms: N_12  and  C_19
REMARK    3  A    between atoms: C_15  and  O_18
REMARK                            x       y       z     vdW  Elec       q    Type
REMARK                         _______ _______ _______ _____ _____    ______ ____
ROOT
ATOM      1  C   UNL     1       1.068  -0.396   0.886  0.00  0.00    +0.181 C 
ATOM      2  C   UNL     1       2.071   0.773   0.909  0.00  0.00    +0.100 C 
ATOM      3  C   UNL     1       2.008   1.449   2.295  0.00  0.00    +0.119 C 
ATOM      4  N   UNL     1       1.944   2.891   2.035  0.00  0.00    -0.294 N 
ATOM      5  C   UNL     1       1.599   3.144   0.762  0.00  0.00    +0.265 C 
ATOM      6  O   UNL     1       1.456   4.253   0.292  0.00  0.00    -0.271 OA
ATOM      7  C   UNL     1       1.417   1.855  -0.002  0.00  0.00    +0.224 C 
ATOM      8  N   UNL     1      -0.018   1.472   0.010  0.00  0.00    -0.161 NA
ATOM      9  O   UNL     1       0.002  -0.004   0.002  0.00  0.00    -0.288 OA
ATOM     10  H   UNL     1      -0.495   1.832  -0.803  0.00  0.00    +0.158 HD
ENDROOT
BRANCH   1  14
ATOM     11  C   UNL     1       2.967  -3.927  -0.589  0.00  0.00    +0.000 A 
ATOM     12  C   UNL     1       2.769  -3.765   0.769  0.00  0.00    +0.000 A 
ATOM     13  C   UNL     1       2.154  -2.622   1.247  0.00  0.00    +0.006 A 
ATOM     14  C   UNL     1       1.738  -1.642   0.365  0.00  0.00    -0.016 A 
ATOM     15  C   UNL     1       1.932  -1.806  -0.993  0.00  0.00    +0.006 A 
ATOM     16  C   UNL     1       2.551  -2.946  -1.470  0.00  0.00    +0.000 A 
ENDBRANCH   1  14
BRANCH   4  17
ATOM     17  C   UNL     1       2.221   3.924   3.037  0.00  0.00    +0.076 C 
ATOM     18  C   UNL     1       0.980   4.800   3.223  0.00  0.00    +0.022 C 
ATOM     19  C   UNL     1       1.270   5.878   4.269  0.00  0.00    +0.002 C 
ATOM     20  C   UNL     1       2.440   6.744   3.799  0.00  0.00    +0.000 C 
ATOM     21  C   UNL     1       3.680   5.868   3.613  0.00  0.00    +0.002 C 
ATOM     22  C   UNL     1       3.391   4.790   2.567  0.00  0.00    +0.022 C 
ENDBRANCH   4  17
BRANCH   7  23
ATOM     23  O   UNL     1       1.972   1.891  -1.318  0.00  0.00    -0.365 OA
ATOM     24  H   UNL     1       1.593   2.615  -2.055  0.00  0.00    +0.212 HD
ENDBRANCH   7  23
TORSDOF 3
