REMARK  Name = ZINC64622964
REMARK  6 active torsions:
REMARK  status: ('A' for Active; 'I' for Inactive)
REMARK    1  A    between atoms: C_1  and  O_2
REMARK    2  A    between atoms: O_2  and  C_3
REMARK    3  A    between atoms: C_6  and  N_11
REMARK    4  A    between atoms: C_7  and  O_9
REMARK    5  A    between atoms: O_9  and  C_10
REMARK    6  A    between atoms: C_27  and  C_29
REMARK                            x       y       z     vdW  Elec       q    Type
REMARK                         _______ _______ _______ _____ _____    ______ ____
ROOT
ATOM      1  N   UNL     1       2.545  -2.122  -4.190  0.00  0.00    -0.266 N 
ATOM      2  C   UNL     1       2.986  -1.485  -5.293  0.00  0.00    +0.307 C 
ATOM      3  O   UNL     1       2.945  -0.271  -5.351  0.00  0.00    -0.252 OA
ATOM      4  N   UNL     1       3.470  -2.193  -6.332  0.00  0.00    -0.276 N 
ATOM      5  C   UNL     1       3.432  -3.659  -6.292  0.00  0.00    +0.114 C 
ATOM      6  C   UNL     1       2.644  -4.184  -7.505  0.00  0.00    +0.052 C 
ATOM      7  C   UNL     1       3.140  -3.420  -8.707  0.00  0.00    -0.035 C 
ATOM      8  C   UNL     1       3.591  -3.832  -9.886  0.00  0.00    -0.001 A 
ATOM      9  C   UNL     1       3.668  -5.171 -10.491  0.00  0.00    +0.010 A 
ATOM     10  C   UNL     1       4.216  -5.237 -11.733  0.00  0.00    +0.001 A 
ATOM     11  C   UNL     1       4.688  -4.118 -12.426  0.00  0.00    +0.002 A 
ATOM     12  C   UNL     1       4.649  -2.848 -11.950  0.00  0.00    +0.026 A 
ATOM     13  C   UNL     1       4.087  -2.650 -10.655  0.00  0.00    +0.043 A 
ATOM     14  N   UNL     1       3.905  -1.557  -9.975  0.00  0.00    -0.375 N 
ATOM     15  C   UNL     1       3.220  -1.897  -8.728  0.00  0.00    +0.131 C 
ATOM     16  C   UNL     1       4.027  -1.488  -7.497  0.00  0.00    +0.134 C 
ATOM     17  H   UNL     1       2.601  -3.089  -4.133  0.00  0.00    +0.156 HD
ATOM     18  H   UNL     1       4.177  -0.667 -10.248  0.00  0.00    +0.160 HD
ENDROOT
BRANCH  16  19
ATOM     19  C   UNL     1       5.471  -1.875  -7.686  0.00  0.00    -0.025 A 
ATOM     20  C   UNL     1       6.461  -0.914  -7.600  0.00  0.00    +0.008 A 
ATOM     21  C   UNL     1       7.786  -1.268  -7.772  0.00  0.00    +0.038 A 
ATOM     22  C   UNL     1       8.122  -2.586  -8.032  0.00  0.00    +0.123 A 
ATOM     23  C   UNL     1       7.129  -3.548  -8.117  0.00  0.00    +0.038 A 
ATOM     24  C   UNL     1       5.806  -3.192  -7.939  0.00  0.00    +0.008 A 
ATOM     25  F   UNL     1       9.416  -2.933  -8.201  0.00  0.00    -0.205 F 
ENDBRANCH  16  19
BRANCH   1  29
ATOM     26  C   UNL     1       0.937   0.066  -1.018  0.00  0.00    +0.124 A 
ATOM     27  C   UNL     1       1.768   0.686  -1.940  0.00  0.00    +0.047 A 
ATOM     28  C   UNL     1       2.300  -0.038  -2.990  0.00  0.00    +0.030 A 
ATOM     29  C   UNL     1       2.005  -1.387  -3.123  0.00  0.00    +0.077 A 
ATOM     30  C   UNL     1       1.171  -2.010  -2.199  0.00  0.00    +0.145 A 
ATOM     31  C   UNL     1       0.643  -1.283  -1.144  0.00  0.00    +0.093 A 
BRANCH  26  33
ATOM     32  C   UNL     1       0.758   2.167   0.082  0.00  0.00    +0.277 C 
ATOM     33  O   UNL     1       0.414   0.782   0.013  0.00  0.00    -0.495 OA
ENDBRANCH  26  33
BRANCH  30  34
ATOM     34  O   UNL     1       0.879  -3.332  -2.327  0.00  0.00    -0.493 OA
ATOM     35  C   UNL     1       0.017  -3.905  -1.342  0.00  0.00    +0.277 C 
ENDBRANCH  30  34
ENDBRANCH   1  29
TORSDOF 4
