REMARK  Name = ZINC08739098
REMARK  7 active torsions:
REMARK  status: ('A' for Active; 'I' for Inactive)
REMARK    1  A    between atoms: C_1  and  C_2
REMARK    2  A    between atoms: C_3  and  C_22
REMARK    3  A    between atoms: C_4  and  C_16
REMARK    4  A    between atoms: C_22  and  O_24
REMARK    5  A    between atoms: O_24  and  C_25
REMARK    6  A    between atoms: C_25  and  C_26
REMARK    7  A    between atoms: C_25  and  C_27
REMARK                            x       y       z     vdW  Elec       q    Type
REMARK                         _______ _______ _______ _____ _____    ______ ____
ROOT
ATOM      1  C   UNL     1      -0.018   1.503   0.010  0.00  0.00    +0.066 C 
ATOM      2  C   UNL     1       0.002  -0.004   0.002  0.00  0.00    +0.054 C 
ATOM      3  C   UNL     1      -1.184  -0.687   0.004  0.00  0.00    +0.083 C 
ATOM      4  C   UNL     1      -1.107  -2.203  -0.005  0.00  0.00    +0.150 C 
ATOM      5  N   UNL     1       0.244  -2.785  -0.014  0.00  0.00    -0.259 N 
ATOM      6  C   UNL     1       0.697  -4.097  -0.024  0.00  0.00    +0.058 A 
ATOM      7  C   UNL     1       0.050  -5.325  -0.028  0.00  0.00    +0.025 A 
ATOM      8  C   UNL     1       0.787  -6.492  -0.038  0.00  0.00    +0.002 A 
ATOM      9  C   UNL     1       2.171  -6.443  -0.044  0.00  0.00    +0.002 A 
ATOM     10  C   UNL     1       2.825  -5.228  -0.040  0.00  0.00    +0.025 A 
ATOM     11  C   UNL     1       2.093  -4.048  -0.030  0.00  0.00    +0.055 A 
ATOM     12  N   UNL     1       2.456  -2.707  -0.025  0.00  0.00    -0.285 N 
ATOM     13  C   UNL     1       1.319  -1.948  -0.015  0.00  0.00    +0.193 C 
ATOM     14  N   UNL     1       1.166  -0.633  -0.013  0.00  0.00    -0.222 NA
ATOM     15  H   UNL     1       3.365  -2.366  -0.027  0.00  0.00    +0.155 HD
ENDROOT
BRANCH   4  16
ATOM     16  C   UNL     1      -1.825  -2.716   1.217  0.00  0.00    -0.019 A 
ATOM     17  C   UNL     1      -1.208  -2.711   2.458  0.00  0.00    +0.025 A 
ATOM     18  C   UNL     1      -1.898  -3.189   3.556  0.00  0.00    +0.111 A 
ATOM     19  N   UNL     1      -3.128  -3.647   3.432  0.00  0.00    -0.263 NA
ATOM     20  C   UNL     1      -3.747  -3.667   2.267  0.00  0.00    +0.111 A 
ATOM     21  C   UNL     1      -3.122  -3.199   1.127  0.00  0.00    +0.025 A 
ENDBRANCH   4  16
BRANCH   3  22
ATOM     22  C   UNL     1      -2.416  -0.016   0.014  0.00  0.00    +0.339 C 
ATOM     23  O   UNL     1      -2.446   1.202   0.021  0.00  0.00    -0.245 OA
BRANCH  22  24
ATOM     24  O   UNL     1      -3.569  -0.721   0.016  0.00  0.00    -0.459 OA
BRANCH  24  25
ATOM     25  C   UNL     1      -4.786   0.028   0.026  0.00  0.00    +0.171 C 
ATOM     26  C   UNL     1      -5.228   0.303  -1.412  0.00  0.00    +0.052 C 
ATOM     27  C   UNL     1      -5.871  -0.774   0.749  0.00  0.00    +0.052 C 
ENDBRANCH  24  25
ENDBRANCH  22  24
ENDBRANCH   3  22
TORSDOF 4
