REMARK  Name = ZINC39982128
REMARK  7 active torsions:
REMARK  status: ('A' for Active; 'I' for Inactive)
REMARK    1  A    between atoms: C_1  and  C_2
REMARK    2  A    between atoms: C_2  and  C_4
REMARK    3  A    between atoms: C_2  and  S_15
REMARK    4  A    between atoms: N_6  and  C_7
REMARK    5  A    between atoms: C_7  and  C_8
REMARK    6  A    between atoms: C_8  and  C_9
REMARK    7  A    between atoms: S_15  and  C_16
REMARK                            x       y       z     vdW  Elec       q    Type
REMARK                         _______ _______ _______ _____ _____    ______ ____
ROOT
ATOM      1  S   UNL     1      -1.700  -0.632   0.015  0.00  0.00    -0.072 S 
ENDROOT
BRANCH   1   2
ATOM      2  C   UNL     1      -2.335  -0.110   1.573  0.00  0.00    +0.208 C 
ATOM      3  N   UNL     1      -1.545   0.576   2.364  0.00  0.00    -0.227 NA
ATOM      4  C   UNL     1      -2.104   1.073   3.619  0.00  0.00    +0.252 C 
ATOM      5  C   UNL     1      -3.209   0.102   4.010  0.00  0.00    +0.117 C 
ATOM      6  C   UNL     1      -2.980  -0.207   5.316  0.00  0.00    +0.025 A 
ATOM      7  C   UNL     1      -3.718  -0.967   6.258  0.00  0.00    +0.012 A 
ATOM      8  C   UNL     1      -3.192  -1.098   7.505  0.00  0.00    +0.001 A 
ATOM      9  C   UNL     1      -1.978  -0.533   7.910  0.00  0.00    +0.002 A 
ATOM     10  C   UNL     1      -1.192   0.219   7.094  0.00  0.00    +0.026 A 
ATOM     11  C   UNL     1      -1.685   0.421   5.722  0.00  0.00    +0.046 A 
ATOM     12  N   UNL     1      -1.173   1.096   4.739  0.00  0.00    -0.358 N 
ATOM     13  N   UNL     1      -4.066  -0.375   3.100  0.00  0.00    -0.147 NA
ATOM     14  N   UNL     1      -3.614  -0.436   1.883  0.00  0.00    -0.122 NA
ATOM     15  H   UNL     1      -0.312   1.543   4.748  0.00  0.00    +0.162 HD
ENDBRANCH   1   2
BRANCH   1  17
ATOM     16  C   UNL     1      -0.019   1.526   0.010  0.00  0.00    +0.029 C 
ATOM     17  C   UNL     1       0.002  -0.004   0.002  0.00  0.00    +0.137 C 
BRANCH  17  18
ATOM     18  C   UNL     1       0.707  -0.490  -1.238  0.00  0.00    +0.226 C 
ATOM     19  O   UNL     1       0.066  -0.782  -2.225  0.00  0.00    -0.275 OA
ATOM     20  N   UNL     1       2.051  -0.601  -1.250  0.00  0.00    -0.314 N 
ATOM     21  H   UNL     1       2.563  -0.367  -0.460  0.00  0.00    +0.149 HD
BRANCH  20  22
ATOM     22  C   UNL     1       2.736  -1.073  -2.455  0.00  0.00    +0.109 C 
BRANCH  22  23
ATOM     23  C   UNL     1       4.245  -1.105  -2.204  0.00  0.00    +0.054 C 
BRANCH  23  24
ATOM     24  C   UNL     1       4.951  -1.591  -3.443  0.00  0.00    -0.046 A 
ATOM     25  C   UNL     1       5.180  -2.943  -3.623  0.00  0.00    +0.004 A 
ATOM     26  C   UNL     1       5.827  -3.389  -4.761  0.00  0.00    +0.000 A 
ATOM     27  C   UNL     1       6.244  -2.483  -5.718  0.00  0.00    +0.000 A 
ATOM     28  C   UNL     1       6.014  -1.132  -5.539  0.00  0.00    +0.000 A 
ATOM     29  C   UNL     1       5.364  -0.686  -4.403  0.00  0.00    +0.004 A 
ENDBRANCH  23  24
ENDBRANCH  22  23
ENDBRANCH  20  22
ENDBRANCH  17  18
ENDBRANCH   1  17
TORSDOF 6
