REMARK  Name = ZINC59442865
REMARK  2 active torsions:
REMARK  status: ('A' for Active; 'I' for Inactive)
REMARK    1  A    between atoms: C_1  and  C_2
REMARK    2  A    between atoms: N_11  and  C_14
REMARK                            x       y       z     vdW  Elec       q    Type
REMARK                         _______ _______ _______ _____ _____    ______ ____
ROOT
ATOM      1  C   UNL     1      -0.144   1.515   0.081  0.00  0.00    +0.044 C 
ATOM      2  C   UNL     1      -0.122   0.009   0.054  0.00  0.00    -0.049 A 
ATOM      3  C   UNL     1      -0.241  -0.657  -1.154  0.00  0.00    +0.004 A 
ATOM      4  C   UNL     1      -0.222  -2.038  -1.194  0.00  0.00    +0.012 A 
ATOM      5  C   UNL     1      -0.084  -2.755  -0.012  0.00  0.00    +0.017 A 
ATOM      6  C   UNL     1       0.036  -2.081   1.212  0.00  0.00    +0.044 A 
ATOM      7  C   UNL     1       0.021  -0.696   1.234  0.00  0.00    +0.027 A 
ATOM      8  N   UNL     1       0.174  -2.821   2.385  0.00  0.00    -0.268 N 
ATOM      9  C   UNL     1       0.194  -4.163   2.367  0.00  0.00    +0.311 C 
ATOM     10  O   UNL     1       0.317  -4.757   3.421  0.00  0.00    -0.252 OA
ATOM     11  N   UNL     1       0.085  -4.880   1.236  0.00  0.00    -0.252 N 
ATOM     12  C   UNL     1      -0.058  -4.237  -0.002  0.00  0.00    +0.040 C 
ATOM     13  C   UNL     1      -0.169  -4.936  -1.133  0.00  0.00    +0.034 C 
ATOM     14  H   UNL     1       0.257  -2.357   3.232  0.00  0.00    +0.156 HD
ENDROOT
BRANCH  11  15
ATOM     15  C   UNL     1       0.116  -6.343   1.296  0.00  0.00    +0.083 C 
ATOM     16  C   UNL     1      -1.046  -6.843   2.157  0.00  0.00    +0.023 C 
ATOM     17  C   UNL     1      -1.014  -8.371   2.220  0.00  0.00    +0.002 C 
ATOM     18  C   UNL     1       0.310  -8.829   2.835  0.00  0.00    +0.000 C 
ATOM     19  C   UNL     1       1.472  -8.329   1.974  0.00  0.00    +0.002 C 
ATOM     20  C   UNL     1       1.440  -6.801   1.911  0.00  0.00    +0.023 C 
ENDBRANCH  11  15
TORSDOF 1
