REMARK  Name = ZINC25383041
REMARK  10 active torsions:
REMARK  status: ('A' for Active; 'I' for Inactive)
REMARK    1  A    between atoms: C_1  and  C_2
REMARK    2  A    between atoms: C_2  and  C_3
REMARK    3  A    between atoms: C_6  and  C_9
REMARK    4  A    between atoms: C_9  and  C_11
REMARK    5  A    between atoms: C_9  and  N_27
REMARK    6  A    between atoms: C_11  and  N_12
REMARK    7  A    between atoms: C_13  and  C_15
REMARK    8  A    between atoms: C_15  and  N_16
REMARK    9  A    between atoms: N_27  and  C_28
REMARK   10  A    between atoms: N_27  and  C_29
REMARK                            x       y       z     vdW  Elec       q    Type
REMARK                         _______ _______ _______ _____ _____    ______ ____
ROOT
ATOM      1  N   UNL     1       7.953   3.227  -0.666  0.00  0.00    -0.315 N 
ATOM      2  C   UNL     1       7.039   3.401   0.308  0.00  0.00    +0.231 C 
ATOM      3  O   UNL     1       5.857   3.301   0.055  0.00  0.00    -0.274 OA
ATOM      4  H   UNL     1       9.025   3.317  -0.437  0.00  0.00    +0.149 HD
ENDROOT
BRANCH   1   5
ATOM      5  C   UNL     1       7.520   2.916  -2.031  0.00  0.00    +0.093 C 
BRANCH   5   6
ATOM      6  C   UNL     1       8.736   2.885  -2.958  0.00  0.00    -0.021 C 
BRANCH   6  10
ATOM      7  C   UNL     1       7.511   1.709  -6.878  0.00  0.00    -0.048 A 
ATOM      8  C   UNL     1       8.333   2.808  -6.711  0.00  0.00    +0.004 A 
ATOM      9  C   UNL     1       8.729   3.189  -5.442  0.00  0.00    +0.002 A 
ATOM     10  C   UNL     1       8.304   2.470  -4.341  0.00  0.00    -0.059 A 
ATOM     11  C   UNL     1       7.486   1.368  -4.508  0.00  0.00    +0.002 A 
ATOM     12  C   UNL     1       7.086   0.991  -5.776  0.00  0.00    +0.004 A 
BRANCH   7  14
ATOM     13  C   UNL     1       8.093   0.302  -8.835  0.00  0.00    +0.009 C 
ATOM     14  C   UNL     1       7.079   1.294  -8.260  0.00  0.00    +0.032 C 
ENDBRANCH   7  14
ENDBRANCH   6  10
BRANCH   6  15
ATOM     15  N   UNL     1       9.720   1.923  -2.443  0.00  0.00    +0.382 N 
ATOM     16  C   UNL     1       9.214   0.547  -2.544  0.00  0.00    -0.096 C 
ATOM     17  C   UNL     1      11.006   2.062  -3.139  0.00  0.00    -0.096 C 
ATOM     18  H   UNL     1       9.886   2.145  -1.379  0.00  0.00    -0.082 HD
ENDBRANCH   6  15
ENDBRANCH   5   6
ENDBRANCH   1   5
BRANCH   2  19
ATOM     19  C   UNL     1       7.485   3.721   1.712  0.00  0.00    +0.209 C 
BRANCH  19  20
ATOM     20  N   UNL     1       6.311   3.862   2.577  0.00  0.00    -0.259 N 
ATOM     21  C   UNL     1       5.628   5.057   2.808  0.00  0.00    +0.038 C 
ATOM     22  C   UNL     1       5.927   6.249   2.285  0.00  0.00    +0.034 C 
ATOM     23  C   UNL     1       4.514   4.767   3.733  0.00  0.00    +0.008 A 
ATOM     24  C   UNL     1       3.515   5.540   4.311  0.00  0.00    +0.010 A 
ATOM     25  C   UNL     1       2.598   4.952   5.159  0.00  0.00    +0.001 A 
ATOM     26  C   UNL     1       2.663   3.595   5.434  0.00  0.00    +0.001 A 
ATOM     27  C   UNL     1       3.653   2.813   4.874  0.00  0.00    +0.014 A 
ATOM     28  C   UNL     1       4.587   3.388   4.016  0.00  0.00    +0.046 A 
ATOM     29  C   UNL     1       5.736   2.860   3.264  0.00  0.00    +0.252 C 
ATOM     30  O   UNL     1       6.107   1.701   3.265  0.00  0.00    -0.270 OA
ENDBRANCH  19  20
ENDBRANCH   2  19
TORSDOF 7
