REMARK  Name = ZINC41546781
REMARK  3 active torsions:
REMARK  status: ('A' for Active; 'I' for Inactive)
REMARK    1  A    between atoms: C_1  and  C_2
REMARK    2  A    between atoms: C_9  and  C_11
REMARK    3  A    between atoms: C_11  and  C_22
REMARK                            x       y       z     vdW  Elec       q    Type
REMARK                         _______ _______ _______ _____ _____    ______ ____
ROOT
ATOM      1  C   UNL     1       0.477  -4.260   2.010  0.00  0.00    +0.258 C 
ATOM      2  C   UNL     1       0.433  -4.904   3.373  0.00  0.00    +0.270 C 
ATOM      3  O   UNL     1      -0.089  -4.326   4.302  0.00  0.00    -0.271 OA
ATOM      4  N   UNL     1       0.978  -6.125   3.554  0.00  0.00    -0.279 N 
ATOM      5  C   UNL     1       1.687  -6.721   2.502  0.00  0.00    +0.076 A 
ATOM      6  C   UNL     1       2.062  -8.053   2.570  0.00  0.00    +0.027 A 
ATOM      7  C   UNL     1       2.749  -8.629   1.518  0.00  0.00    +0.002 A 
ATOM      8  C   UNL     1       3.063  -7.880   0.399  0.00  0.00    +0.004 A 
ATOM      9  C   UNL     1       2.697  -6.548   0.327  0.00  0.00    +0.047 A 
ATOM     10  C   UNL     1       2.013  -5.963   1.379  0.00  0.00    +0.144 A 
ATOM     11  O   UNL     1       1.675  -4.646   1.333  0.00  0.00    -0.465 OA
ATOM     12  C   UNL     1      -0.736  -4.714   1.195  0.00  0.00    +0.076 C 
ATOM     13  H   UNL     1       0.881  -6.585   4.402  0.00  0.00    +0.155 HD
ENDROOT
BRANCH   1  21
ATOM     14  C   UNL     1      -0.288   1.536   0.109  0.00  0.00    +0.009 C 
ATOM     15  C   UNL     1      -0.277   0.006   0.093  0.00  0.00    +0.003 C 
ATOM     16  C   UNL     1       0.258  -0.486  -1.254  0.00  0.00    +0.006 C 
ATOM     17  C   UNL     1       0.238  -2.016  -1.283  0.00  0.00    +0.019 C 
ATOM     18  C   UNL     1       1.148  -2.556  -0.175  0.00  0.00    +0.108 C 
ATOM     19  N   UNL     1       0.730  -1.972   1.106  0.00  0.00    -0.298 N 
ATOM     20  C   UNL     1       0.627  -0.510   1.217  0.00  0.00    +0.111 C 
ATOM     21  C   UNL     1       0.447  -2.761   2.161  0.00  0.00    +0.268 C 
ATOM     22  O   UNL     1       0.167  -2.266   3.232  0.00  0.00    -0.271 OA
ENDBRANCH   1  21
TORSDOF 1
