REMARK  Name = ZINC39593109
REMARK  3 active torsions:
REMARK  status: ('A' for Active; 'I' for Inactive)
REMARK    1  A    between atoms: C_3  and  C_8
REMARK    2  A    between atoms: N_9  and  N_10
REMARK    3  A    between atoms: C_11  and  C_17
REMARK                            x       y       z     vdW  Elec       q    Type
REMARK                         _______ _______ _______ _____ _____    ______ ____
ROOT
ATOM      1  N   UNL     1       5.988   2.236   0.062  0.00  0.00    -0.175 N 
ATOM      2  C   UNL     1       7.348   1.674   0.055  0.00  0.00    +0.230 C 
ATOM      3  N   UNL     1       8.220   2.854   0.182  0.00  0.00    -0.242 N 
ATOM      4  N   UNL     1       7.367   3.963   0.251  0.00  0.00    -0.160 NA
ATOM      5  C   UNL     1       6.128   3.610   0.177  0.00  0.00    +0.206 C 
ATOM      6  S   UNL     1       4.776   4.739   0.225  0.00  0.00    -0.011 SA
ATOM      7  H   UNL     1       9.190   2.862   0.212  0.00  0.00    +0.170 HD
ENDROOT
BRANCH   2   8
ATOM      8  C   UNL     1       7.544   0.728   1.241  0.00  0.00    +0.197 C 
ATOM      9  C   UNL     1       8.962   0.194   1.274  0.00  0.00    -0.017 C 
ATOM     10  C   UNL     1       9.462   0.629   2.429  0.00  0.00    +0.065 C 
ATOM     11  C   UNL     1      10.896   0.155   2.580  0.00  0.00    +0.057 C 
ATOM     12  C   UNL     1      11.053  -0.987   1.552  0.00  0.00    +0.011 C 
ATOM     13  C   UNL     1       9.974  -0.619   0.508  0.00  0.00    +0.035 C 
ATOM     14  N   UNL     1       8.524   1.356   3.095  0.00  0.00    -0.158 NA
ATOM     15  N   UNL     1       7.438   1.460   2.515  0.00  0.00    -0.176 NA
ENDBRANCH   2   8
BRANCH   1  17
ATOM     16  C   UNL     1       4.807   0.241  -0.247  0.00  0.00    +0.138 C 
ATOM     17  N   UNL     1       4.786   1.523  -0.036  0.00  0.00    -0.184 NA
BRANCH  16  20
ATOM     18  C   UNL     1       2.388  -2.621  -0.453  0.00  0.00    +0.002 A 
ATOM     19  C   UNL     1       3.569  -1.907  -0.464  0.00  0.00    +0.009 A 
ATOM     20  C   UNL     1       3.550  -0.528  -0.237  0.00  0.00    -0.004 A 
ATOM     21  C   UNL     1       2.333   0.118  -0.001  0.00  0.00    +0.024 A 
ATOM     22  C   UNL     1       1.160  -0.609   0.007  0.00  0.00    +0.018 A 
ATOM     23  C   UNL     1       1.187  -1.975  -0.219  0.00  0.00    +0.015 A 
ATOM     24 BR   UNL     1      -0.487   0.262   0.327  0.00  0.00    -0.050 Br
ENDBRANCH  16  20
ENDBRANCH   1  17
TORSDOF 3
