REMARK  Name = ZINC18587119
REMARK  9 active torsions:
REMARK  status: ('A' for Active; 'I' for Inactive)
REMARK    1  A    between atoms: C_1  and  C_2
REMARK    2  A    between atoms: C_4  and  C_32
REMARK    3  A    between atoms: C_6  and  C_8
REMARK    4  A    between atoms: C_11  and  S_13
REMARK    5  A    between atoms: S_13  and  C_14
REMARK    6  A    between atoms: C_14  and  C_16
REMARK    7  A    between atoms: C_14  and  C_17
REMARK    8  A    between atoms: C_29  and  C_30
REMARK    9  A    between atoms: C_29  and  C_31
REMARK                            x       y       z     vdW  Elec       q    Type
REMARK                         _______ _______ _______ _____ _____    ______ ____
ROOT
ATOM      1  C   UNL     1       1.399  -0.356   4.503  0.00  0.00    +0.139 C 
ATOM      2  C   UNL     1       2.488   0.583   5.026  0.00  0.00    +0.029 C 
ENDROOT
BRANCH   1   3
ATOM      3  C   UNL     1       1.052   0.017   3.084  0.00  0.00    +0.234 C 
ATOM      4  O   UNL     1       1.312  -0.744   2.176  0.00  0.00    -0.274 OA
ATOM      5  N   UNL     1       0.454   1.197   2.825  0.00  0.00    -0.255 N 
ATOM      6  C   UNL     1       0.312   1.663   1.508  0.00  0.00    +0.059 A 
ATOM      7  C   UNL     1       1.227   1.323   0.528  0.00  0.00    +0.025 A 
ATOM      8  C   UNL     1       1.062   1.801  -0.760  0.00  0.00    +0.002 A 
ATOM      9  C   UNL     1      -0.012   2.617  -1.067  0.00  0.00    +0.002 A 
ATOM     10  C   UNL     1      -0.931   2.959  -0.091  0.00  0.00    +0.025 A 
ATOM     11  C   UNL     1      -0.774   2.483   1.201  0.00  0.00    +0.055 A 
ATOM     12  N   UNL     1      -1.695   2.813   2.201  0.00  0.00    -0.282 N 
ATOM     13  C   UNL     1      -1.410   2.593   3.499  0.00  0.00    +0.241 C 
ATOM     14  O   UNL     1      -2.241   2.846   4.346  0.00  0.00    -0.273 OA
ATOM     15  C   UNL     1      -0.072   2.037   3.912  0.00  0.00    +0.113 C 
ATOM     16  C   UNL     1      -0.236   1.192   5.177  0.00  0.00    +0.042 C 
ATOM     17  C   UNL     1       0.900   3.186   4.186  0.00  0.00    +0.042 C 
ATOM     18  H   UNL     1      -2.549   3.204   1.958  0.00  0.00    +0.155 HD
ENDBRANCH   1   3
BRANCH   1  19
ATOM     19  S   UNL     1       2.001  -2.062   4.548  0.00  0.00    -0.053 S 
BRANCH  19  23
ATOM     20  C   UNL     1       2.589  -3.114   8.236  0.00  0.00    +0.249 A 
ATOM     21  N   UNL     1       2.164  -1.882   8.372  0.00  0.00    -0.106 NA
ATOM     22  N   UNL     1       1.919  -1.382   7.212  0.00  0.00    -0.101 NA
ATOM     23  C   UNL     1       2.179  -2.278   6.287  0.00  0.00    +0.278 A 
ATOM     24  O   UNL     1       2.603  -3.393   6.913  0.00  0.00    -0.411 OA
BRANCH  20  30
ATOM     25  C   UNL     1       4.249  -7.572   9.742  0.00  0.00    +0.044 C 
ATOM     26  C   UNL     1       3.776  -6.176  10.057  0.00  0.00    -0.049 A 
ATOM     27  C   UNL     1       3.705  -5.751  11.372  0.00  0.00    +0.006 A 
ATOM     28  C   UNL     1       3.272  -4.471  11.669  0.00  0.00    -0.049 A 
ATOM     29  C   UNL     1       2.908  -3.610  10.656  0.00  0.00    +0.016 A 
ATOM     30  C   UNL     1       2.977  -4.032   9.327  0.00  0.00    +0.039 A 
ATOM     31  C   UNL     1       3.410  -5.326   9.034  0.00  0.00    +0.016 A 
ATOM     32  C   UNL     1       3.198  -4.018  13.105  0.00  0.00    +0.044 C 
ENDBRANCH  20  30
ENDBRANCH  19  23
ENDBRANCH   1  19
TORSDOF 4
