REMARK  Name = ZINC12631021
REMARK  8 active torsions:
REMARK  status: ('A' for Active; 'I' for Inactive)
REMARK    1  A    between atoms: C_1  and  O_2
REMARK    2  A    between atoms: O_2  and  C_3
REMARK    3  A    between atoms: C_8  and  N_9
REMARK    4  A    between atoms: N_9  and  S_10
REMARK    5  A    between atoms: S_10  and  C_13
REMARK    6  A    between atoms: C_16  and  O_33
REMARK    7  A    between atoms: C_17  and  N_19
REMARK    8  A    between atoms: C_20  and  C_22
REMARK                            x       y       z     vdW  Elec       q    Type
REMARK                         _______ _______ _______ _____ _____    ______ ____
ROOT
ATOM      1  C   UNL     1      -2.361  -0.221   2.462  0.00  0.00    +0.110 A 
ATOM      2  C   UNL     1      -3.499  -0.002   3.216  0.00  0.00    +0.032 A 
ATOM      3  C   UNL     1      -3.401   0.207   4.579  0.00  0.00    +0.049 A 
ATOM      4  C   UNL     1      -2.159   0.199   5.193  0.00  0.00    +0.138 A 
ATOM      5  C   UNL     1      -1.012  -0.022   4.435  0.00  0.00    +0.077 A 
ATOM      6  C   UNL     1      -1.119  -0.236   3.068  0.00  0.00    +0.055 A 
ENDROOT
BRANCH   5   7
ATOM      7  N   UNL     1       0.247  -0.032   5.051  0.00  0.00    -0.279 N 
ATOM      8  C   UNL     1       1.272  -0.693   4.479  0.00  0.00    +0.258 C 
ATOM      9  O   UNL     1       1.083  -1.360   3.483  0.00  0.00    -0.271 OA
ATOM     10  H   UNL     1       0.380   0.437   5.889  0.00  0.00    +0.155 HD
BRANCH   8  11
ATOM     11  C   UNL     1       2.653  -0.605   5.075  0.00  0.00    +0.263 C 
ATOM     12  C   UNL     1       3.223   0.826   4.927  0.00  0.00    +0.093 C 
ATOM     13  C   UNL     1       4.694   0.548   4.666  0.00  0.00    -0.000 A 
ATOM     14  C   UNL     1       5.810   1.355   4.720  0.00  0.00    +0.027 A 
ATOM     15  C   UNL     1       7.060   0.824   4.450  0.00  0.00    +0.041 A 
ATOM     16  C   UNL     1       7.182  -0.516   4.127  0.00  0.00    +0.023 A 
ATOM     17  C   UNL     1       6.065  -1.323   4.069  0.00  0.00    +0.047 A 
ATOM     18  C   UNL     1       4.803  -0.796   4.335  0.00  0.00    +0.125 A 
ATOM     19  O   UNL     1       3.584  -1.402   4.325  0.00  0.00    -0.479 OA
ATOM     20 CL   UNL     1       8.469   1.837   4.516  0.00  0.00    -0.084 Cl
ENDBRANCH   8  11
ENDBRANCH   5   7
BRANCH   1  21
ATOM     21  S   UNL     1      -2.494  -0.487   0.725  0.00  0.00    +0.073 S 
ATOM     22  O   UNL     1      -3.808  -0.972   0.488  0.00  0.00    -0.150 OA
ATOM     23  O   UNL     1      -1.334  -1.209   0.335  0.00  0.00    -0.150 OA
BRANCH  21  24
ATOM     24  N   UNL     1      -2.397   0.995  -0.006  0.00  0.00    -0.213 N 
ATOM     25  H   UNL     1      -3.134   1.318  -0.548  0.00  0.00    +0.174 HD
BRANCH  24  31
ATOM     26  C   UNL     1      -1.364   3.169   0.246  0.00  0.00    +0.142 A 
ATOM     27  C   UNL     1      -0.226   3.944   0.400  0.00  0.00    +0.047 A 
ATOM     28  C   UNL     1       1.017   3.341   0.473  0.00  0.00    +0.004 A 
ATOM     29  C   UNL     1       1.128   1.966   0.392  0.00  0.00    +0.002 A 
ATOM     30  C   UNL     1      -0.002   1.185   0.237  0.00  0.00    +0.028 A 
ATOM     31  C   UNL     1      -1.252   1.783   0.157  0.00  0.00    +0.090 A 
BRANCH  26  33
ATOM     32  C   UNL     1      -2.624   5.186   0.265  0.00  0.00    +0.277 C 
ATOM     33  O   UNL     1      -2.586   3.760   0.174  0.00  0.00    -0.493 OA
ENDBRANCH  26  33
ENDBRANCH  24  31
ENDBRANCH  21  24
ENDBRANCH   1  21
BRANCH   4  34
ATOM     34  O   UNL     1      -2.061   0.405   6.534  0.00  0.00    -0.505 OA
ATOM     35  H   UNL     1      -2.107  -0.405   7.061  0.00  0.00    +0.292 HD
ENDBRANCH   4  34
TORSDOF 7
