REMARK  Name = ZINC35672788
REMARK  2 active torsions:
REMARK  status: ('A' for Active; 'I' for Inactive)
REMARK    1  A    between atoms: C_8  and  C_12
REMARK    2  A    between atoms: N_14  and  C_15
REMARK                            x       y       z     vdW  Elec       q    Type
REMARK                         _______ _______ _______ _____ _____    ______ ____
ROOT
ATOM      1  C   UNL     1       2.620  -4.182   0.286  0.00  0.00    +0.255 C 
ATOM      2  O   UNL     1       1.637  -4.881   0.134  0.00  0.00    -0.270 OA
ATOM      3  N   UNL     1       3.825  -4.750   0.492  0.00  0.00    -0.279 N 
ATOM      4  H   UNL     1       4.620  -4.196   0.546  0.00  0.00    +0.155 HD
ENDROOT
BRANCH   1  12
ATOM      5  C   UNL     1      -0.013   1.361  -0.017  0.00  0.00    +0.001 A 
ATOM      6  C   UNL     1       1.173   2.083  -0.029  0.00  0.00    +0.004 A 
ATOM      7  C   UNL     1       2.390   1.434  -0.055  0.00  0.00    +0.047 A 
ATOM      8  C   UNL     1       2.433   0.046  -0.062  0.00  0.00    +0.139 A 
ATOM      9  C   UNL     1       1.231  -0.685  -0.021  0.00  0.00    +0.018 A 
ATOM     10  C   UNL     1       0.005  -0.004  -0.018  0.00  0.00    +0.011 A 
ATOM     11  C   UNL     1       1.267  -2.102   0.037  0.00  0.00    +0.031 A 
ATOM     12  C   UNL     1       2.495  -2.716   0.246  0.00  0.00    +0.122 A 
ATOM     13  C   UNL     1       3.668  -1.841   0.428  0.00  0.00    +0.350 A 
ATOM     14  O   UNL     1       4.645  -2.220   1.046  0.00  0.00    -0.244 OA
ATOM     15  O   UNL     1       3.621  -0.603  -0.116  0.00  0.00    -0.422 OA
ENDBRANCH   1  12
BRANCH   3  16
ATOM     16  C   UNL     1       3.930  -6.135   0.627  0.00  0.00    +0.062 A 
ATOM     17  C   UNL     1       3.111  -6.953  -0.089  0.00  0.00    +0.025 A 
ATOM     18  C   UNL     1       3.190  -8.339   0.024  0.00  0.00    +0.004 A 
ATOM     19  C   UNL     1       4.084  -8.934   0.850  0.00  0.00    +0.031 A 
ATOM     20  C   UNL     1       4.973  -8.146   1.631  0.00  0.00    +0.102 A 
ATOM     21  C   UNL     1       4.899  -6.694   1.512  0.00  0.00    +0.121 A 
ATOM     22  N   UNL     1       5.782  -6.060   2.283  0.00  0.00    -0.189 NA
ATOM     23  S   UNL     1       6.599  -7.215   3.049  0.00  0.00    +0.117 S 
ATOM     24  N   UNL     1       5.908  -8.555   2.488  0.00  0.00    -0.191 NA
ENDBRANCH   3  16
TORSDOF 2
