REMARK  Name = ZINC15240253
REMARK  4 active torsions:
REMARK  status: ('A' for Active; 'I' for Inactive)
REMARK    1  A    between atoms: C_1  and  C_2
REMARK    2  A    between atoms: C_2  and  O_3
REMARK    3  A    between atoms: O_3  and  C_4
REMARK    4  A    between atoms: C_4  and  C_6
REMARK                            x       y       z     vdW  Elec       q    Type
REMARK                         _______ _______ _______ _____ _____    ______ ____
ROOT
ATOM      1  C   UNL     1       1.337   3.149  -0.250  0.00  0.00    +0.191 C 
ATOM      2  C   UNL     1       1.502   1.641  -0.027  0.00  0.00    +0.054 C 
ATOM      3  C   UNL     1       2.155   1.408   1.310  0.00  0.00    -0.001 A 
ATOM      4  C   UNL     1       3.529   1.557   1.417  0.00  0.00    +0.007 A 
ATOM      5  C   UNL     1       4.160   1.354   2.629  0.00  0.00    +0.001 A 
ATOM      6  C   UNL     1       3.421   1.001   3.743  0.00  0.00    +0.004 A 
ATOM      7  C   UNL     1       2.053   0.850   3.643  0.00  0.00    +0.046 A 
ATOM      8  C   UNL     1       1.415   1.053   2.424  0.00  0.00    +0.127 A 
ATOM      9  O   UNL     1       0.068   0.893   2.359  0.00  0.00    -0.468 OA
ATOM     10  C   UNL     1      -0.614   1.466   1.238  0.00  0.00    +0.181 C 
ATOM     11  C   UNL     1       0.100   1.011  -0.040  0.00  0.00    +0.061 C 
ATOM     12  C   UNL     1      -0.643   1.518  -1.278  0.00  0.00    +0.010 C 
ATOM     13  C   UNL     1      -2.089   1.017  -1.258  0.00  0.00    +0.001 C 
ATOM     14  C   UNL     1      -2.795   1.512   0.008  0.00  0.00    +0.006 C 
ATOM     15  C   UNL     1      -2.060   0.971   1.235  0.00  0.00    +0.069 C 
ATOM     16  N   UNL     1      -0.579   2.920   1.339  0.00  0.00    -0.277 N 
ATOM     17  C   UNL     1       0.298   3.689   0.691  0.00  0.00    +0.230 C 
ATOM     18  O   UNL     1       0.255   4.887   0.872  0.00  0.00    -0.275 OA
ATOM     19  H   UNL     1      -1.232   3.354   1.911  0.00  0.00    +0.152 HD
ENDROOT
BRANCH   1  20
ATOM     20  C   UNL     1       0.906   3.401  -1.672  0.00  0.00    +0.320 C 
ATOM     21  O   UNL     1       1.270   2.661  -2.554  0.00  0.00    -0.250 OA
BRANCH  20  22
ATOM     22  O   UNL     1       0.116   4.448  -1.957  0.00  0.00    -0.464 OA
BRANCH  22  24
ATOM     23  C   UNL     1      -1.155   5.864  -3.477  0.00  0.00    +0.048 C 
ATOM     24  C   UNL     1      -0.261   4.630  -3.348  0.00  0.00    +0.229 C 
ENDBRANCH  22  24
ENDBRANCH  20  22
ENDBRANCH   1  20
TORSDOF 3
