REMARK  Name = ZINC05379319
REMARK  9 active torsions:
REMARK  status: ('A' for Active; 'I' for Inactive)
REMARK    1  A    between atoms: C_1  and  C_2
REMARK    2  A    between atoms: C_4  and  C_22
REMARK    3  A    between atoms: N_5  and  C_7
REMARK    4  A    between atoms: C_7  and  N_8
REMARK    5  A    between atoms: C_7  and  N_15
REMARK    6  A    between atoms: C_9  and  C_14
REMARK    7  A    between atoms: C_11  and  C_13
REMARK    8  A    between atoms: C_16  and  C_21
REMARK    9  A    between atoms: C_18  and  C_20
REMARK                            x       y       z     vdW  Elec       q    Type
REMARK                         _______ _______ _______ _____ _____    ______ ____
ROOT
ATOM      1  C   UNL     1       1.739   3.160   0.002  0.00  0.00    +0.347 C 
ENDROOT
BRANCH   1   6
ATOM      2  C   UNL     1      -1.206  -0.904   0.009  0.00  0.00    +0.067 C 
ATOM      3  C   UNL     1       0.002  -0.004   0.002  0.00  0.00    +0.060 A 
ATOM      4  C   UNL     1       1.337  -0.423  -0.013  0.00  0.00    +0.047 A 
ATOM      5  C   UNL     1       2.119   0.681  -0.015  0.00  0.00    +0.041 A 
ATOM      6  N   UNL     1       1.309   1.760  -0.001  0.00  0.00    -0.224 N 
ATOM      7  N   UNL     1      -0.016   1.304   0.009  0.00  0.00    -0.173 NA
ATOM      8  C   UNL     1       3.626   0.702  -0.029  0.00  0.00    +0.065 C 
ENDBRANCH   1   6
BRANCH   1   9
ATOM      9  N   UNL     1       1.210   3.836  -1.185  0.00  0.00    -0.224 N 
ATOM     10  C   UNL     1       1.940   4.434  -2.149  0.00  0.00    +0.041 A 
ATOM     11  C   UNL     1       1.080   4.935  -3.067  0.00  0.00    +0.047 A 
ATOM     12  C   UNL     1      -0.220   4.640  -2.644  0.00  0.00    +0.060 A 
ATOM     13  N   UNL     1      -0.144   3.982  -1.516  0.00  0.00    -0.173 NA
ATOM     14  C   UNL     1      -1.490   5.016  -3.364  0.00  0.00    +0.067 C 
ATOM     15  C   UNL     1       3.443   4.526  -2.197  0.00  0.00    +0.065 C 
ENDBRANCH   1   9
BRANCH   1  16
ATOM     16  N   UNL     1       1.234   3.823   1.207  0.00  0.00    -0.224 N 
ATOM     17  C   UNL     1       1.983   4.401   2.169  0.00  0.00    +0.041 A 
ATOM     18  C   UNL     1       1.142   4.899   3.104  0.00  0.00    +0.047 A 
ATOM     19  C   UNL     1      -0.167   4.609   2.705  0.00  0.00    +0.060 A 
ATOM     20  N   UNL     1      -0.113   3.964   1.568  0.00  0.00    -0.173 NA
ATOM     21  C   UNL     1      -1.421   4.976   3.454  0.00  0.00    +0.067 C 
ATOM     22  C   UNL     1       3.488   4.480   2.195  0.00  0.00    +0.065 C 
ENDBRANCH   1  16
TORSDOF 3
