REMARK  Name = ZINC32205511
REMARK  3 active torsions:
REMARK  status: ('A' for Active; 'I' for Inactive)
REMARK    1  A    between atoms: C_1  and  N_2
REMARK    2  A    between atoms: N_2  and  C_15
REMARK    3  A    between atoms: C_7  and  C_9
REMARK                            x       y       z     vdW  Elec       q    Type
REMARK                         _______ _______ _______ _____ _____    ______ ____
ROOT
ATOM      1  C   UNL     1      -4.081   2.358  -1.694  0.00  0.00    +0.132 C 
ATOM      2  N   UNL     1      -3.098   3.414  -1.442  0.00  0.00    -0.298 N 
ATOM      3  C   UNL     1      -3.311   4.691  -1.933  0.00  0.00    +0.219 A 
ATOM      4  N   UNL     1      -4.407   4.938  -2.634  0.00  0.00    -0.219 NA
ATOM      5  C   UNL     1      -4.656   6.148  -3.120  0.00  0.00    +0.051 A 
ATOM      6  C   UNL     1      -3.748   7.160  -2.893  0.00  0.00    +0.010 A 
ATOM      7  C   UNL     1      -2.594   6.868  -2.154  0.00  0.00    +0.149 A 
ATOM      8  N   UNL     1      -2.413   5.632  -1.696  0.00  0.00    -0.204 NA
ATOM      9  C   UNL     1      -3.948   8.562  -3.396  0.00  0.00    +0.040 C 
ATOM     10  C   UNL     1      -5.000   8.587  -4.504  0.00  0.00    +0.005 C 
ATOM     11  C   UNL     1      -6.247   7.847  -4.007  0.00  0.00    +0.006 C 
ATOM     12  C   UNL     1      -5.921   6.358  -3.908  0.00  0.00    +0.056 C 
ENDROOT
BRANCH   2  13
ATOM     13  C   UNL     1      -1.889   3.120  -0.669  0.00  0.00    +0.098 C 
ATOM     14  C   UNL     1      -2.276   2.604   0.726  0.00  0.00    +0.046 C 
ATOM     15  C   UNL     1      -1.037   1.994   1.427  0.00  0.00    +0.168 C 
ATOM     16  S   UNL     1      -0.017   1.417   0.010  0.00  0.00    -0.029 S 
ATOM     17  O   UNL     1       0.002  -0.004   0.002  0.00  0.00    -0.174 OA
ATOM     18  O   UNL     1       1.210   2.133   0.002  0.00  0.00    -0.174 OA
ATOM     19  C   UNL     1      -1.066   2.010  -1.384  0.00  0.00    +0.188 C 
ENDBRANCH   2  13
BRANCH   7  20
ATOM     20  C   UNL     1      -1.621   7.887  -1.897  0.00  0.00    +0.120 C 
ATOM     21  N   UNL     1      -0.849   8.695  -1.692  0.00  0.00    -0.189 NA
ENDBRANCH   7  20
TORSDOF 2
