REMARK  Name = ZINC09205346
REMARK  8 active torsions:
REMARK  status: ('A' for Active; 'I' for Inactive)
REMARK    1  A    between atoms: C_1  and  C_2
REMARK    2  A    between atoms: C_2  and  C_3
REMARK    3  A    between atoms: C_3  and  C_5
REMARK    4  A    between atoms: C_3  and  N_6
REMARK    5  A    between atoms: N_6  and  S_7
REMARK    6  A    between atoms: S_7  and  C_10
REMARK    7  A    between atoms: C_13  and  N_16
REMARK    8  A    between atoms: C_17  and  C_19
REMARK                            x       y       z     vdW  Elec       q    Type
REMARK                         _______ _______ _______ _____ _____    ______ ____
ROOT
ATOM      1  C   UNL     1       1.651   2.211   0.005  0.00  0.00    +0.105 A 
ATOM      2  C   UNL     1       2.265   2.589   1.185  0.00  0.00    +0.030 A 
ATOM      3  C   UNL     1       3.582   3.005   1.177  0.00  0.00    +0.025 A 
ATOM      4  C   UNL     1       4.286   3.055  -0.020  0.00  0.00    +0.034 A 
ATOM      5  C   UNL     1       3.664   2.679  -1.204  0.00  0.00    +0.025 A 
ATOM      6  C   UNL     1       2.348   2.259  -1.188  0.00  0.00    +0.030 A 
ENDROOT
BRANCH   4   7
ATOM      7  N   UNL     1       5.617   3.482  -0.033  0.00  0.00    -0.279 N 
ATOM      8  C   UNL     1       6.421   3.215   1.016  0.00  0.00    +0.284 C 
ATOM      9  O   UNL     1       6.017   2.521   1.931  0.00  0.00    -0.266 OA
ATOM     10  H   UNL     1       5.963   3.970  -0.797  0.00  0.00    +0.155 HD
BRANCH   8  11
ATOM     11  C   UNL     1       7.780   3.760   1.055  0.00  0.00    +0.191 A 
ATOM     12  C   UNL     1       8.691   3.573   2.055  0.00  0.00    +0.056 A 
ATOM     13  C   UNL     1       9.851   4.267   1.679  0.00  0.00    +0.058 A 
ATOM     14  C   UNL     1       9.598   4.848   0.484  0.00  0.00    +0.171 A 
ATOM     15  O   UNL     1       8.349   4.540   0.112  0.00  0.00    -0.444 OA
ATOM     16 BR   UNL     1      10.808   5.919  -0.499  0.00  0.00    -0.008 Br
ENDBRANCH   8  11
ENDBRANCH   4   7
BRANCH   1  17
ATOM     17  S   UNL     1      -0.027   1.673   0.021  0.00  0.00    +0.059 S 
ATOM     18  O   UNL     1      -0.539   1.900  -1.285  0.00  0.00    -0.153 OA
ATOM     19  O   UNL     1      -0.623   2.237   1.182  0.00  0.00    -0.153 OA
BRANCH  17  20
ATOM     20  N   UNL     1      -0.014   0.032   0.246  0.00  0.00    -0.187 NA
ATOM     21  H   UNL     1      -0.339  -0.556  -0.453  0.00  0.00    +0.148 HD
BRANCH  20  22
ATOM     22  C   UNL     1       0.489  -0.531   1.502  0.00  0.00    +0.073 C 
ATOM     23  C   UNL     1       1.963  -0.908   1.337  0.00  0.00    +0.025 C 
BRANCH  22  25
ATOM     24  C   UNL     1      -1.769  -1.381   2.148  0.00  0.00    +0.005 C 
ATOM     25  C   UNL     1      -0.320  -1.778   1.861  0.00  0.00    +0.017 C 
ENDBRANCH  22  25
ENDBRANCH  20  22
ENDBRANCH  17  20
ENDBRANCH   1  17
TORSDOF 6
