REMARK  Name = ZINC50928271
REMARK  4 active torsions:
REMARK  status: ('A' for Active; 'I' for Inactive)
REMARK    1  A    between atoms: C_2  and  C_9
REMARK    2  A    between atoms: C_11  and  C_14
REMARK    3  A    between atoms: C_14  and  C_15
REMARK    4  A    between atoms: C_15  and  C_16
REMARK                            x       y       z     vdW  Elec       q    Type
REMARK                         _______ _______ _______ _____ _____    ______ ____
ROOT
ATOM      1  C   UNL     1       1.166   3.573   0.010  0.00  0.00    +0.202 A 
ATOM      2  N   UNL     1       2.251   4.369  -0.002  0.00  0.00    -0.191 NA
ATOM      3  C   UNL     1       1.886   5.620   0.009  0.00  0.00    +0.228 A 
ATOM      4  O   UNL     1       0.548   5.672   0.028  0.00  0.00    -0.338 OA
ATOM      5  N   UNL     1       0.094   4.327   0.023  0.00  0.00    -0.056 NA
ENDROOT
BRANCH   1   7
ATOM      6  C   UNL     1      -0.017   1.378   0.010  0.00  0.00    +0.050 A 
ATOM      7  C   UNL     1       1.181   2.089   0.002  0.00  0.00    +0.028 A 
ATOM      8  C   UNL     1       2.393   1.403  -0.013  0.00  0.00    +0.050 A 
ATOM      9  C   UNL     1       2.403   0.021  -0.021  0.00  0.00    +0.127 A 
ATOM     10  C   UNL     1       1.210  -0.682  -0.014  0.00  0.00    +0.076 A 
ATOM     11  C   UNL     1       0.002  -0.004   0.002  0.00  0.00    +0.127 A 
ATOM     12  F   UNL     1      -1.159  -0.695   0.009  0.00  0.00    -0.205 F 
ATOM     13  F   UNL     1       3.578  -0.646  -0.036  0.00  0.00    -0.205 F 
ENDBRANCH   1   7
BRANCH   3  14
ATOM     14  C   UNL     1       2.814   6.807   0.002  0.00  0.00    +0.099 C 
BRANCH  14  15
ATOM     15  C   UNL     1       3.107   7.216  -1.443  0.00  0.00    +0.013 C 
BRANCH  15  16
ATOM     16  C   UNL     1       4.049   8.422  -1.451  0.00  0.00    -0.014 C 
ATOM     17  C   UNL     1       3.339   9.630  -0.834  0.00  0.00    -0.016 C 
ATOM     18  C   UNL     1       4.257  10.851  -0.917  0.00  0.00    -0.082 C 
ATOM     19  N   UNL     1       4.576  11.134  -2.322  0.00  0.00    +0.379 N 
ATOM     20  C   UNL     1       5.321  10.008  -2.900  0.00  0.00    -0.082 C 
ATOM     21  C   UNL     1       4.443   8.755  -2.893  0.00  0.00    -0.016 C 
ATOM     22  H   UNL     1       3.721  11.271  -2.839  0.00  0.00    -0.086 HD
ATOM     23  H   UNL     1       5.137  11.970  -2.377  0.00  0.00    -0.086 HD
ENDBRANCH  15  16
ENDBRANCH  14  15
ENDBRANCH   3  14
TORSDOF 4
