REMARK  Name = ZINC19939671
REMARK  5 active torsions:
REMARK  status: ('A' for Active; 'I' for Inactive)
REMARK    1  A    between atoms: C_4  and  C_7
REMARK    2  A    between atoms: C_7  and  C_8
REMARK    3  A    between atoms: N_15  and  C_16
REMARK    4  A    between atoms: C_16  and  C_17
REMARK    5  A    between atoms: C_22  and  C_23
REMARK                            x       y       z     vdW  Elec       q    Type
REMARK                         _______ _______ _______ _____ _____    ______ ____
ROOT
ATOM      1  C   UNL     1       1.859  -1.401   1.933  0.00  0.00    +0.124 C 
ENDROOT
BRANCH   1   8
ATOM      2  C   UNL     1       3.952  -1.082   0.759  0.00  0.00    +0.148 C 
ATOM      3  C   UNL     1       5.367  -1.573   0.640  0.00  0.00    +0.231 C 
ATOM      4  O   UNL     1       6.037  -1.194  -0.298  0.00  0.00    -0.274 OA
ATOM      5  N   UNL     1       5.920  -2.410   1.524  0.00  0.00    -0.313 N 
ATOM      6  C   UNL     1       5.190  -2.952   2.667  0.00  0.00    +0.119 C 
ATOM      7  C   UNL     1       3.944  -2.108   2.942  0.00  0.00    +0.104 C 
ATOM      8  N   UNL     1       3.201  -1.943   1.682  0.00  0.00    -0.285 NA
ATOM      9  H   UNL     1       6.846  -2.668   1.401  0.00  0.00    +0.149 HD
BRANCH   2  10
ATOM     10  C   UNL     1       3.287  -1.112  -0.619  0.00  0.00    +0.063 C 
BRANCH  10  14
ATOM     11  C   UNL     1      -0.322   1.171  -0.507  0.00  0.00    +0.000 A 
ATOM     12  C   UNL     1       0.888   1.778  -0.228  0.00  0.00    +0.000 A 
ATOM     13  C   UNL     1       2.056   1.039  -0.264  0.00  0.00    +0.004 A 
ATOM     14  C   UNL     1       2.013  -0.307  -0.579  0.00  0.00    -0.045 A 
ATOM     15  C   UNL     1       0.803  -0.913  -0.858  0.00  0.00    +0.004 A 
ATOM     16  C   UNL     1      -0.365  -0.174  -0.823  0.00  0.00    +0.000 A 
ENDBRANCH  10  14
ENDBRANCH   2  10
ENDBRANCH   1   8
BRANCH   1  17
ATOM     17  C   UNL     1       1.078  -2.366   2.786  0.00  0.00    +0.015 A 
ATOM     18  C   UNL     1       1.461  -3.615   3.128  0.00  0.00    +0.110 A 
ATOM     19  N   UNL     1       0.491  -4.155   3.897  0.00  0.00    -0.284 N 
ATOM     20  H   UNL     1       0.501  -5.044   4.284  0.00  0.00    +0.188 HD
ATOM     21  N   UNL     1      -0.531  -3.208   4.039  0.00  0.00    -0.170 NA
ATOM     22  C   UNL     1      -0.180  -2.125   3.376  0.00  0.00    +0.132 A 
BRANCH  22  23
ATOM     23  C   UNL     1      -0.968  -0.878   3.266  0.00  0.00    +0.156 A 
ATOM     24  C   UNL     1      -2.313  -0.817   3.123  0.00  0.00    +0.060 A 
ATOM     25  C   UNL     1      -2.651   0.607   3.057  0.00  0.00    +0.021 A 
ATOM     26  C   UNL     1      -3.842   1.319   2.916  0.00  0.00    +0.011 A 
ATOM     27  C   UNL     1      -3.816   2.685   2.889  0.00  0.00    +0.001 A 
ATOM     28  C   UNL     1      -2.613   3.367   3.001  0.00  0.00    +0.004 A 
ATOM     29  C   UNL     1      -1.425   2.681   3.141  0.00  0.00    +0.047 A 
ATOM     30  C   UNL     1      -1.428   1.292   3.171  0.00  0.00    +0.136 A 
ATOM     31  O   UNL     1      -0.455   0.367   3.298  0.00  0.00    -0.453 OA
ENDBRANCH  22  23
ENDBRANCH   1  17
TORSDOF 5
