REMARK  Name = ZINC39214990
REMARK  2 active torsions:
REMARK  status: ('A' for Active; 'I' for Inactive)
REMARK    1  A    between atoms: C_5  and  C_18
REMARK    2  A    between atoms: C_12  and  C_14
REMARK                            x       y       z     vdW  Elec       q    Type
REMARK                         _______ _______ _______ _____ _____    ______ ____
ROOT
ATOM      1  C   UNL     1      -0.017   1.367  -0.018  0.00  0.00    +0.004 C 
ATOM      2  C   UNL     1       1.127   2.128  -0.252  0.00  0.00    +0.027 C 
ATOM      3  C   UNL     1       2.347   1.542  -0.419  0.00  0.00    +0.077 C 
ATOM      4  N   UNL     1       3.604   2.055  -0.657  0.00  0.00    -0.213 NA
ATOM      5  C   UNL     1       4.509   0.900  -0.738  0.00  0.00    +0.314 C 
ATOM      6  N   UNL     1       3.685  -0.294  -0.530  0.00  0.00    -0.247 NA
ATOM      7  C   UNL     1       2.455   0.068  -0.348  0.00  0.00    +0.105 C 
ATOM      8  C   UNL     1       1.209  -0.708  -0.097  0.00  0.00    +0.061 C 
ATOM      9  C   UNL     1       0.008  -0.002   0.059  0.00  0.00    +0.025 C 
ATOM     10  N   UNL     1       1.235  -2.039  -0.021  0.00  0.00    -0.276 N 
ATOM     11  C   UNL     1       0.097  -2.723   0.087  0.00  0.00    +0.322 C 
ATOM     12  O   UNL     1      -0.779  -2.579  -0.744  0.00  0.00    -0.266 OA
ATOM     13  H   UNL     1       2.083  -2.510  -0.044  0.00  0.00    +0.155 HD
ENDROOT
BRANCH  11  14
ATOM     14  C   UNL     1      -0.105  -3.674   1.238  0.00  0.00    +0.470 C 
ATOM     15  F   UNL     1      -1.367  -4.269   1.136  0.00  0.00    -0.162 F 
ATOM     16  F   UNL     1       0.882  -4.664   1.203  0.00  0.00    -0.162 F 
ATOM     17  F   UNL     1      -0.017  -2.970   2.445  0.00  0.00    -0.162 F 
ENDBRANCH  11  14
BRANCH   5  18
ATOM     18  C   UNL     1       5.170   0.848  -2.116  0.00  0.00    +0.430 C 
ATOM     19  F   UNL     1       5.929   2.006  -2.314  0.00  0.00    -0.167 F 
ATOM     20  F   UNL     1       6.003  -0.274  -2.192  0.00  0.00    -0.167 F 
ATOM     21  F   UNL     1       4.184   0.763  -3.104  0.00  0.00    -0.167 F 
ENDBRANCH   5  18
TORSDOF 2
