REMARK  Name = ZINC16609835
REMARK  6 active torsions:
REMARK  status: ('A' for Active; 'I' for Inactive)
REMARK    1  A    between atoms: C_1  and  C_2
REMARK    2  A    between atoms: C_2  and  C_3
REMARK    3  A    between atoms: C_20  and  C_22
REMARK    4  A    between atoms: C_22  and  C_23
REMARK    5  A    between atoms: C_24  and  C_26
REMARK    6  A    between atoms: C_26  and  C_27
REMARK                            x       y       z     vdW  Elec       q    Type
REMARK                         _______ _______ _______ _____ _____    ______ ____
ROOT
ATOM      1  C   UNL     1       0.707  -0.490  -1.238  0.00  0.00    +0.218 C 
ATOM      2  O   UNL     1       1.150   0.308  -2.036  0.00  0.00    -0.275 OA
ATOM      3  N   UNL     1       0.847  -1.812  -1.460  0.00  0.00    -0.264 N 
ATOM      4  C   UNL     1       1.496  -2.260  -2.602  0.00  0.00    +0.181 C 
ATOM      5  N   UNL     1       2.032  -1.548  -3.552  0.00  0.00    -0.152 NA
ATOM      6  N   UNL     1       2.657  -2.107  -4.651  0.00  0.00    -0.160 N 
ATOM      7  C   UNL     1       2.675  -3.570  -4.669  0.00  0.00    +0.215 C 
ATOM      8  S   UNL     1       1.800  -3.948  -3.108  0.00  0.00    -0.047 S 
ATOM      9  C   UNL     1       1.977  -4.162  -5.852  0.00  0.00    +0.019 A 
ATOM     10  C   UNL     1       0.713  -4.032  -6.382  0.00  0.00    +0.009 A 
ATOM     11  C   UNL     1       0.361  -4.735  -7.520  0.00  0.00    +0.000 A 
ATOM     12  C   UNL     1       1.284  -5.569  -8.126  0.00  0.00    +0.002 A 
ATOM     13  C   UNL     1       2.551  -5.703  -7.600  0.00  0.00    +0.024 A 
ATOM     14  C   UNL     1       2.913  -5.001  -6.454  0.00  0.00    +0.051 A 
ATOM     15  N   UNL     1       4.118  -4.972  -5.741  0.00  0.00    -0.207 N 
ATOM     16  C   UNL     1       4.055  -4.150  -4.672  0.00  0.00    +0.267 C 
ATOM     17  O   UNL     1       4.939  -3.926  -3.873  0.00  0.00    -0.271 OA
ATOM     18  C   UNL     1       5.212  -5.682  -6.081  0.00  0.00    +0.226 C 
ATOM     19  O   UNL     1       5.189  -6.400  -7.058  0.00  0.00    -0.275 OA
ATOM     20  C   UNL     1       3.207  -1.363  -5.629  0.00  0.00    +0.237 C 
ATOM     21  O   UNL     1       3.744  -1.904  -6.574  0.00  0.00    -0.274 OA
ATOM     22  H   UNL     1       0.493  -2.451  -0.821  0.00  0.00    +0.157 HD
ENDROOT
BRANCH   1  24
ATOM     23  C   UNL     1      -0.019   1.526   0.010  0.00  0.00    +0.013 C 
ATOM     24  C   UNL     1       0.002  -0.004   0.002  0.00  0.00    +0.093 C 
ENDBRANCH   1  24
BRANCH  18  25
ATOM     25  C   UNL     1       6.463  -5.584  -5.247  0.00  0.00    +0.093 C 
ATOM     26  C   UNL     1       7.547  -6.482  -5.847  0.00  0.00    +0.013 C 
ENDBRANCH  18  25
BRANCH  20  27
ATOM     27  C   UNL     1       3.156   0.141  -5.551  0.00  0.00    +0.094 C 
ATOM     28  C   UNL     1       3.847   0.739  -6.778  0.00  0.00    +0.013 C 
ENDBRANCH  20  27
TORSDOF 3
