REMARK  Name = ZINC05035785
REMARK  4 active torsions:
REMARK  status: ('A' for Active; 'I' for Inactive)
REMARK    1  A    between atoms: C_1  and  C_2
REMARK    2  A    between atoms: C_5  and  N_9
REMARK    3  A    between atoms: N_9  and  S_10
REMARK    4  A    between atoms: S_10  and  C_13
REMARK                            x       y       z     vdW  Elec       q    Type
REMARK                         _______ _______ _______ _____ _____    ______ ____
ROOT
ATOM      1  C   UNL     1       3.624   2.657  -1.585  0.00  0.00    +0.110 A 
ATOM      2  C   UNL     1       2.904   1.550  -1.171  0.00  0.00    +0.031 A 
ATOM      3  C   UNL     1       1.970   0.985  -2.011  0.00  0.00    +0.027 A 
ATOM      4  C   UNL     1       1.740   1.516  -3.283  0.00  0.00    +0.055 A 
ATOM      5  C   UNL     1       2.460   2.624  -3.698  0.00  0.00    +0.057 A 
ATOM      6  C   UNL     1       3.404   3.189  -2.837  0.00  0.00    +0.054 A 
ATOM      7  N   UNL     1       2.306   3.225  -4.943  0.00  0.00    -0.284 N 
ATOM      8  C   UNL     1       1.147   3.442  -5.561  0.00  0.00    +0.226 C 
ATOM      9  O   UNL     1       1.141   4.012  -6.631  0.00  0.00    -0.275 OA
ATOM     10  C   UNL     1      -0.157   2.992  -4.955  0.00  0.00    +0.192 C 
ATOM     11  C   UNL     1      -0.122   1.490  -4.831  0.00  0.00    +0.226 C 
ATOM     12  O   UNL     1      -0.932   0.824  -5.441  0.00  0.00    -0.275 OA
ATOM     13  N   UNL     1       0.779   0.881  -4.064  0.00  0.00    -0.284 N 
ATOM     14  H   UNL     1       3.112   3.510  -5.401  0.00  0.00    +0.155 HD
ATOM     15  H   UNL     1       0.767  -0.089  -4.051  0.00  0.00    +0.155 HD
ENDROOT
BRANCH   1  16
ATOM     16  S   UNL     1       4.818   3.384  -0.513  0.00  0.00    +0.072 S 
ATOM     17  O   UNL     1       4.873   4.765  -0.845  0.00  0.00    -0.150 OA
ATOM     18  O   UNL     1       4.519   2.927   0.798  0.00  0.00    -0.150 OA
BRANCH  16  19
ATOM     19  N   UNL     1       6.291   2.743  -0.915  0.00  0.00    -0.216 N 
ATOM     20  H   UNL     1       6.996   3.319  -1.250  0.00  0.00    +0.174 HD
BRANCH  19  25
ATOM     21  C   UNL     1       7.215  -2.821  -0.323  0.00  0.00    +0.045 C 
ATOM     22  C   UNL     1       6.970  -1.343  -0.480  0.00  0.00    -0.032 A 
ATOM     23  C   UNL     1       6.946  -0.525   0.634  0.00  0.00    +0.006 A 
ATOM     24  C   UNL     1       6.726   0.831   0.493  0.00  0.00    +0.025 A 
ATOM     25  C   UNL     1       6.519   1.372  -0.769  0.00  0.00    +0.049 A 
ATOM     26  C   UNL     1       6.544   0.549  -1.887  0.00  0.00    +0.044 A 
ATOM     27  C   UNL     1       6.770  -0.807  -1.740  0.00  0.00    +0.046 A 
ATOM     28 CL   UNL     1       6.801  -1.838  -3.136  0.00  0.00    -0.083 Cl
ENDBRANCH  19  25
ENDBRANCH  16  19
ENDBRANCH   1  16
TORSDOF 3
