REMARK  Name = ZINC04313631
REMARK  4 active torsions:
REMARK  status: ('A' for Active; 'I' for Inactive)
REMARK    1  A    between atoms: C_1  and  O_2
REMARK    2  A    between atoms: O_2  and  C_3
REMARK    3  A    between atoms: C_5  and  N_26
REMARK    4  A    between atoms: C_10  and  C_19
REMARK                            x       y       z     vdW  Elec       q    Type
REMARK                         _______ _______ _______ _____ _____    ______ ____
ROOT
ATOM      1  C   UNL     1      -3.175   7.527   0.526  0.00  0.00    +0.143 A 
ATOM      2  C   UNL     1      -4.091   8.496   0.167  0.00  0.00    +0.080 A 
ATOM      3  C   UNL     1      -5.169   8.171  -0.636  0.00  0.00    +0.130 A 
ATOM      4  C   UNL     1      -5.328   6.869  -1.071  0.00  0.00    +0.039 A 
ATOM      5  C   UNL     1      -4.421   5.892  -0.714  0.00  0.00    -0.014 A 
ATOM      6  C   UNL     1      -3.320   6.206   0.084  0.00  0.00    +0.074 A 
ATOM      7  N   UNL     1      -2.341   5.267   0.472  0.00  0.00    -0.334 N 
ATOM      8  C   UNL     1      -2.552   3.874   0.048  0.00  0.00    +0.108 C 
ATOM      9  C   UNL     1      -3.137   3.918  -1.349  0.00  0.00    +0.029 C 
ATOM     10  C   UNL     1      -4.577   4.488  -1.154  0.00  0.00    +0.049 C 
ATOM     11  C   UNL     1      -5.253   4.134  -2.426  0.00  0.00    -0.023 C 
ATOM     12  C   UNL     1      -4.685   3.037  -2.915  0.00  0.00    -0.030 C 
ATOM     13  C   UNL     1      -3.540   2.591  -2.002  0.00  0.00    +0.033 C 
ATOM     14  H   UNL     1      -2.144   5.318   1.461  0.00  0.00    +0.147 HD
ENDROOT
BRANCH   8  15
ATOM     15  C   UNL     1      -1.238   3.136   0.031  0.00  0.00    +0.008 A 
ATOM     16  C   UNL     1      -0.050   3.842   0.023  0.00  0.00    +0.008 A 
ATOM     17  C   UNL     1       1.156   3.166   0.008  0.00  0.00    +0.000 A 
ATOM     18  C   UNL     1       1.174   1.783   0.000  0.00  0.00    +0.003 A 
ATOM     19  C   UNL     1      -0.013   1.076   0.008  0.00  0.00    +0.039 A 
ATOM     20  C   UNL     1      -1.221   1.752   0.017  0.00  0.00    +0.128 A 
ATOM     21  F   UNL     1      -2.382   1.062   0.019  0.00  0.00    -0.205 F 
ENDBRANCH   8  15
BRANCH   3  22
ATOM     22  N   UNL     1      -6.147   9.211  -1.026  0.00  0.00    +0.057 N 
ATOM     23  O   UNL     1      -7.095   8.921  -1.732  0.00  0.00    -0.126 OA
ATOM     24  O   UNL     1      -6.003  10.357  -0.640  0.00  0.00    -0.126 OA
ENDBRANCH   3  22
BRANCH   1  26
ATOM     25  C   UNL     1      -2.025   9.222   1.735  0.00  0.00    +0.277 C 
ATOM     26  O   UNL     1      -2.119   7.859   1.317  0.00  0.00    -0.493 OA
ENDBRANCH   1  26
TORSDOF 3
