REMARK  Name = ZINC02800049
REMARK  2 active torsions:
REMARK  status: ('A' for Active; 'I' for Inactive)
REMARK    1  A    between atoms: C_1  and  N_2
REMARK    2  A    between atoms: C_9  and  C_14
REMARK                            x       y       z     vdW  Elec       q    Type
REMARK                         _______ _______ _______ _____ _____    ______ ____
ROOT
ATOM      1  C   UNL     1      -7.286  -4.426   0.042  0.00  0.00    +0.174 C 
ATOM      2  N   UNL     1      -6.402  -3.258   0.042  0.00  0.00    -0.249 N 
ATOM      3  C   UNL     1      -5.040  -3.288   0.029  0.00  0.00    +0.163 A 
ATOM      4  C   UNL     1      -4.612  -1.952   0.033  0.00  0.00    +0.083 A 
ATOM      5  C   UNL     1      -5.762  -1.143   0.049  0.00  0.00    +0.148 A 
ATOM      6  N   UNL     1      -6.811  -1.919   0.054  0.00  0.00    -0.177 NA
ATOM      7  C   UNL     1      -3.171  -1.695   0.022  0.00  0.00    +0.170 A 
ATOM      8  N   UNL     1      -2.427  -0.609   0.021  0.00  0.00    -0.205 NA
ATOM      9  C   UNL     1      -1.133  -0.951   0.007  0.00  0.00    +0.189 A 
ATOM     10  N   UNL     1      -1.030  -2.267  -0.007  0.00  0.00    -0.143 NA
ATOM     11  N   UNL     1      -2.334  -2.781   0.007  0.00  0.00    -0.201 N 
ATOM     12  C   UNL     1      -2.850  -4.037   0.005  0.00  0.00    +0.227 A 
ATOM     13  N   UNL     1      -4.130  -4.272   0.015  0.00  0.00    -0.216 NA
ENDROOT
BRANCH   9  14
ATOM     14  C   UNL     1       0.002  -0.004   0.002  0.00  0.00    +0.059 A 
ATOM     15  C   UNL     1       1.346  -0.268  -0.012  0.00  0.00    +0.034 A 
ATOM     16  C   UNL     1       2.228   0.790  -0.015  0.00  0.00    +0.026 A 
ATOM     17  C   UNL     1       1.741   2.058  -0.004  0.00  0.00    +0.061 A 
ATOM     18  S   UNL     1      -0.022   1.781   0.012  0.00  0.00    -0.092 S 
ATOM     19 BR   UNL     1       4.094   0.480  -0.035  0.00  0.00    -0.050 Br
ENDBRANCH   9  14
TORSDOF 1
