REMARK  Name = ZINC04626021
REMARK  4 active torsions:
REMARK  status: ('A' for Active; 'I' for Inactive)
REMARK    1  A    between atoms: C_1  and  N_2
REMARK    2  A    between atoms: C_13  and  C_24
REMARK    3  A    between atoms: C_19  and  N_23
REMARK    4  A    between atoms: C_20  and  C_21
REMARK                            x       y       z     vdW  Elec       q    Type
REMARK                         _______ _______ _______ _____ _____    ______ ____
ROOT
ATOM      1  C   UNL     1       0.326   1.592   0.046  0.00  0.00    +0.138 C 
ATOM      2  N   UNL     1       0.294   0.128  -0.013  0.00  0.00    -0.273 N 
ATOM      3  C   UNL     1      -0.870  -0.620  -0.031  0.00  0.00    +0.041 A 
ATOM      4  C   UNL     1      -2.198  -0.193   0.001  0.00  0.00    +0.024 A 
ATOM      5  C   UNL     1      -3.180  -1.171  -0.028  0.00  0.00    +0.002 A 
ATOM      6  C   UNL     1      -2.871  -2.515  -0.085  0.00  0.00    +0.000 A 
ATOM      7  C   UNL     1      -1.552  -2.954  -0.117  0.00  0.00    +0.007 A 
ATOM      8  C   UNL     1      -0.570  -1.987  -0.089  0.00  0.00    -0.001 A 
ATOM      9  C   UNL     1       0.922  -2.085  -0.112  0.00  0.00    +0.145 C 
ATOM     10  C   UNL     1       1.396  -0.650  -0.062  0.00  0.00    +0.240 C 
ATOM     11  O   UNL     1       2.548  -0.270  -0.064  0.00  0.00    -0.274 OA
ATOM     12  C   UNL     1       1.438  -2.853   1.072  0.00  0.00    +0.066 A 
ATOM     13  C   UNL     1       1.437  -2.511   2.427  0.00  0.00    +0.101 A 
ATOM     14  N   UNL     1       1.998  -3.500   3.097  0.00  0.00    -0.171 NA
ATOM     15  N   UNL     1       2.371  -4.497   2.183  0.00  0.00    -0.246 N 
ATOM     16  H   UNL     1       2.805  -5.337   2.401  0.00  0.00    +0.192 HD
ATOM     17  C   UNL     1       2.021  -4.083   0.948  0.00  0.00    +0.224 A 
ATOM     18  O   UNL     1       2.174  -4.701  -0.250  0.00  0.00    -0.423 OA
ATOM     19  C   UNL     1       1.982  -3.971  -1.367  0.00  0.00    +0.201 C 
ATOM     20  C   UNL     1       1.407  -2.745  -1.373  0.00  0.00    +0.110 C 
ENDROOT
BRANCH  13  21
ATOM     21  C   UNL     1       0.899  -1.257   3.011  0.00  0.00    +0.003 A 
ATOM     22  C   UNL     1      -0.389  -0.833   2.691  0.00  0.00    +0.010 A 
ATOM     23  C   UNL     1      -0.884   0.335   3.236  0.00  0.00    +0.001 A 
ATOM     24  C   UNL     1      -0.104   1.083   4.099  0.00  0.00    +0.000 A 
ATOM     25  C   UNL     1       1.176   0.667   4.420  0.00  0.00    +0.001 A 
ATOM     26  C   UNL     1       1.679  -0.502   3.885  0.00  0.00    +0.010 A 
ENDBRANCH  13  21
BRANCH  19  27
ATOM     27  N   UNL     1       2.393  -4.499  -2.565  0.00  0.00    -0.328 N 
ATOM     28  H   UNL     1       2.810  -5.375  -2.592  0.00  0.00    +0.145 HD
ATOM     29  H   UNL     1       2.268  -3.997  -3.385  0.00  0.00    +0.145 HD
ENDBRANCH  19  27
BRANCH  20  30
ATOM     30  C   UNL     1       1.254  -2.057  -2.620  0.00  0.00    +0.102 C 
ATOM     31  N   UNL     1       1.132  -1.510  -3.608  0.00  0.00    -0.191 NA
ENDBRANCH  20  30
TORSDOF 3
