REMARK  Name = ZINC35511562
REMARK  4 active torsions:
REMARK  status: ('A' for Active; 'I' for Inactive)
REMARK    1  A    between atoms: C_1  and  C_2
REMARK    2  A    between atoms: C_5  and  C_8
REMARK    3  A    between atoms: C_14  and  C_20
REMARK    4  A    between atoms: C_20  and  C_22
REMARK                            x       y       z     vdW  Elec       q    Type
REMARK                         _______ _______ _______ _____ _____    ______ ____
ROOT
ATOM      1  C   UNL     1       0.180  -4.206  -0.088  0.00  0.00    +0.082 C 
ATOM      2  N   UNL     1       0.133  -4.986  -1.137  0.00  0.00    -0.151 NA
ATOM      3  N   UNL     1       0.188  -6.337  -0.792  0.00  0.00    -0.138 NA
ATOM      4  C   UNL     1       0.368  -6.503   0.472  0.00  0.00    +0.134 C 
ATOM      5  C   UNL     1       0.219  -5.124   1.106  0.00  0.00    +0.116 C 
ATOM      6  C   UNL     1       1.478  -4.925   1.955  0.00  0.00    +0.085 C 
ATOM      7  C   UNL     1       1.532  -6.042   3.001  0.00  0.00    +0.108 C 
ATOM      8  C   UNL     1       1.289  -7.397   2.413  0.00  0.00    +0.219 C 
ATOM      9  O   UNL     1       1.658  -8.366   3.043  0.00  0.00    -0.275 OA
ATOM     10  N   UNL     1       0.677  -7.606   1.228  0.00  0.00    -0.272 N 
ATOM     11  H   UNL     1       0.472  -8.502   0.918  0.00  0.00    +0.156 HD
ENDROOT
BRANCH   1  16
ATOM     12  C   UNL     1       0.248   1.542  -0.045  0.00  0.00    +0.044 C 
ATOM     13  C   UNL     1       0.230   0.036  -0.056  0.00  0.00    -0.050 A 
ATOM     14  C   UNL     1       0.939  -0.654  -1.024  0.00  0.00    +0.004 A 
ATOM     15  C   UNL     1       0.928  -2.033  -1.041  0.00  0.00    +0.010 A 
ATOM     16  C   UNL     1       0.198  -2.734  -0.077  0.00  0.00    -0.001 A 
ATOM     17  C   UNL     1      -0.516  -2.030   0.898  0.00  0.00    +0.010 A 
ATOM     18  C   UNL     1      -0.491  -0.652   0.905  0.00  0.00    +0.004 A 
ENDBRANCH   1  16
BRANCH   6  19
ATOM     19  C   UNL     1       1.419  -3.586   2.644  0.00  0.00    +0.168 C 
ATOM     20  O   UNL     1       0.365  -3.172   3.077  0.00  0.00    -0.292 OA
BRANCH  19  21
ATOM     21  C   UNL     1       2.641  -2.779   2.789  0.00  0.00    +0.018 A 
ATOM     22  C   UNL     1       3.858  -3.250   2.285  0.00  0.00    +0.012 A 
ATOM     23  C   UNL     1       4.998  -2.489   2.425  0.00  0.00    +0.016 A 
ATOM     24  C   UNL     1       4.942  -1.261   3.063  0.00  0.00    +0.018 A 
ATOM     25  C   UNL     1       3.740  -0.788   3.565  0.00  0.00    +0.016 A 
ATOM     26  C   UNL     1       2.590  -1.536   3.428  0.00  0.00    +0.012 A 
ATOM     27 BR   UNL     1       6.513  -0.225   3.251  0.00  0.00    -0.050 Br
ENDBRANCH  19  21
ENDBRANCH   6  19
TORSDOF 3
