REMARK  Name = ZINC03888827
REMARK  1 active torsions:
REMARK  status: ('A' for Active; 'I' for Inactive)
REMARK    1  A    between atoms: C_5  and  N_7
REMARK                            x       y       z     vdW  Elec       q    Type
REMARK                         _______ _______ _______ _____ _____    ______ ____
ROOT
ATOM      1  N   UNL     1      -0.859   3.285   1.447  0.00  0.00    -0.258 N 
ATOM      2  C   UNL     1      -1.536   3.355   2.611  0.00  0.00    +0.181 A 
ATOM      3  S   UNL     1      -2.015   4.787   3.417  0.00  0.00    -0.011 S 
ATOM      4  N   UNL     1      -1.763   2.092   3.027  0.00  0.00    -0.252 N 
ATOM      5  H   UNL     1      -2.303   1.911   3.968  0.00  0.00    +0.191 HD
ATOM      6  N   UNL     1      -1.205   1.230   2.073  0.00  0.00    -0.137 NA
ATOM      7  C   UNL     1      -0.672   1.957   1.135  0.00  0.00    +0.223 A 
ATOM      8  N   UNL     1      -0.018   1.475   0.010  0.00  0.00    -0.299 N 
ATOM      9  C   UNL     1       1.405   1.899  -0.001  0.00  0.00    +0.108 C 
ATOM     10  C   UNL     1       2.070   0.885  -0.966  0.00  0.00    +0.020 C 
ATOM     11  C   UNL     1       1.333  -0.434  -0.643  0.00  0.00    +0.020 C 
ATOM     12  C   UNL     1       0.002  -0.004   0.002  0.00  0.00    +0.108 C 
ENDROOT
BRANCH   1  17
ATOM     13  C   UNL     1      -0.814   5.991  -1.046  0.00  0.00    +0.002 A 
ATOM     14  C   UNL     1       0.437   6.535  -0.821  0.00  0.00    +0.002 A 
ATOM     15  C   UNL     1       1.260   6.003   0.155  0.00  0.00    +0.022 A 
ATOM     16  C   UNL     1       0.832   4.929   0.912  0.00  0.00    +0.065 A 
ATOM     17  C   UNL     1      -0.423   4.378   0.684  0.00  0.00    +0.070 A 
ATOM     18  C   UNL     1      -1.246   4.914  -0.296  0.00  0.00    +0.028 A 
ATOM     19 CL   UNL     1       1.862   4.266   2.141  0.00  0.00    -0.081 Cl
ENDBRANCH   1  17
TORSDOF 1
