REMARK  Name = ZINC36152618
REMARK  3 active torsions:
REMARK  status: ('A' for Active; 'I' for Inactive)
REMARK    1  A    between atoms: C_1  and  C_2
REMARK    2  A    between atoms: C_5  and  C_8
REMARK    3  A    between atoms: C_15  and  C_18
REMARK                            x       y       z     vdW  Elec       q    Type
REMARK                         _______ _______ _______ _____ _____    ______ ____
ROOT
ATOM      1  C   UNL     1       0.059  -4.275  -0.021  0.00  0.00    +0.128 C 
ATOM      2  C   UNL     1       1.500  -4.763   0.202  0.00  0.00    +0.106 C 
ATOM      3  S   UNL     1       1.509  -6.563  -0.113  0.00  0.00    -0.082 S 
ATOM      4  C   UNL     1      -0.008  -7.036   0.661  0.00  0.00    +0.209 A 
ATOM      5  N   UNL     1      -0.459  -8.225   0.927  0.00  0.00    -0.121 NA
ATOM      6  N   UNL     1      -1.617  -8.126   1.487  0.00  0.00    -0.123 NA
ATOM      7  C   UNL     1      -1.954  -6.870   1.606  0.00  0.00    +0.255 A 
ATOM      8  N   UNL     1      -0.934  -6.124   1.092  0.00  0.00    -0.217 N 
ATOM      9  N   UNL     1      -0.829  -4.773   1.028  0.00  0.00    -0.273 N 
ATOM     10  H   UNL     1      -0.581  -4.386   1.925  0.00  0.00    +0.167 HD
ENDROOT
BRANCH   1  15
ATOM     11  C   UNL     1      -0.018   1.503   0.010  0.00  0.00    +0.044 C 
ATOM     12  C   UNL     1       0.002  -0.004   0.002  0.00  0.00    -0.050 A 
ATOM     13  C   UNL     1       0.006  -0.689  -1.199  0.00  0.00    +0.004 A 
ATOM     14  C   UNL     1       0.025  -2.071  -1.206  0.00  0.00    +0.006 A 
ATOM     15  C   UNL     1       0.040  -2.768  -0.013  0.00  0.00    -0.025 A 
ATOM     16  C   UNL     1       0.037  -2.084   1.188  0.00  0.00    +0.006 A 
ATOM     17  C   UNL     1       0.023  -0.702   1.195  0.00  0.00    +0.004 A 
ENDBRANCH   1  15
BRANCH   7  18
ATOM     18  C   UNL     1      -3.233  -6.342   2.202  0.00  0.00    +0.454 C 
ATOM     19  F   UNL     1      -3.868  -7.361   2.920  0.00  0.00    -0.163 F 
ATOM     20  F   UNL     1      -2.943  -5.277   3.061  0.00  0.00    -0.163 F 
ATOM     21  F   UNL     1      -4.076  -5.899   1.177  0.00  0.00    -0.163 F 
ENDBRANCH   7  18
TORSDOF 2
