REMARK  Name = ZINC33939879
REMARK  6 active torsions:
REMARK  status: ('A' for Active; 'I' for Inactive)
REMARK    1  A    between atoms: C_4  and  C_7
REMARK    2  A    between atoms: C_7  and  N_8
REMARK    3  A    between atoms: C_9  and  C_11
REMARK    4  A    between atoms: C_19  and  C_32
REMARK    5  A    between atoms: N_25  and  C_26
REMARK    6  A    between atoms: N_34  and  C_35
REMARK                            x       y       z     vdW  Elec       q    Type
REMARK                         _______ _______ _______ _____ _____    ______ ____
ROOT
ATOM      1  C   UNL     1       5.744  -1.821   2.992  0.00  0.00    +0.203 C 
ATOM      2  C   UNL     1       6.444  -0.629   3.566  0.00  0.00    +0.127 C 
ATOM      3  C   UNL     1       7.456  -0.023   2.611  0.00  0.00    +0.009 C 
ATOM      4  C   UNL     1       7.978   1.013   3.250  0.00  0.00    +0.004 C 
ATOM      5  C   UNL     1       7.319   0.999   4.635  0.00  0.00    +0.155 C 
ATOM      6  O   UNL     1       5.967   0.469   4.309  0.00  0.00    -0.358 OA
ATOM      7  C   UNL     1       8.023  -0.234   5.325  0.00  0.00    +0.123 C 
ATOM      8  C   UNL     1       7.225  -1.386   4.715  0.00  0.00    +0.128 C 
ATOM      9  C   UNL     1       7.763  -2.530   3.956  0.00  0.00    +0.228 C 
ATOM     10  O   UNL     1       8.826  -3.083   4.141  0.00  0.00    -0.275 OA
ATOM     11  N   UNL     1       6.829  -2.852   3.001  0.00  0.00    -0.256 N 
ENDROOT
BRANCH  11  12
ATOM     12  C   UNL     1       6.883  -3.972   2.163  0.00  0.00    +0.037 A 
ATOM     13  C   UNL     1       7.906  -4.094   1.232  0.00  0.00    +0.023 A 
ATOM     14  C   UNL     1       7.957  -5.201   0.407  0.00  0.00    +0.002 A 
ATOM     15  C   UNL     1       6.992  -6.186   0.508  0.00  0.00    +0.000 A 
ATOM     16  C   UNL     1       5.973  -6.066   1.434  0.00  0.00    +0.002 A 
ATOM     17  C   UNL     1       5.919  -4.965   2.266  0.00  0.00    +0.023 A 
ENDBRANCH  11  12
BRANCH   1  19
ATOM     18  N   UNL     1       4.111  -0.897   1.380  0.00  0.00    -0.310 N 
ATOM     19  C   UNL     1       5.274  -1.545   1.587  0.00  0.00    +0.237 C 
ATOM     20  O   UNL     1       5.944  -1.905   0.642  0.00  0.00    -0.274 OA
ATOM     21  H   UNL     1       3.575  -0.609   2.135  0.00  0.00    +0.149 HD
BRANCH  18  22
ATOM     22  C   UNL     1       3.655  -0.628   0.013  0.00  0.00    +0.139 C 
BRANCH  22  26
ATOM     23  C   UNL     1      -0.080   1.441   0.138  0.00  0.00    +0.000 A 
ATOM     24  C   UNL     1       1.105   2.153   0.131  0.00  0.00    +0.000 A 
ATOM     25  C   UNL     1       2.313   1.483   0.091  0.00  0.00    +0.005 A 
ATOM     26  C   UNL     1       2.337   0.102   0.058  0.00  0.00    -0.030 A 
ATOM     27  C   UNL     1       1.152  -0.611   0.066  0.00  0.00    +0.005 A 
ATOM     28  C   UNL     1      -0.056   0.059   0.105  0.00  0.00    +0.000 A 
ENDBRANCH  22  26
ENDBRANCH  18  22
ENDBRANCH   1  19
BRANCH   7  29
ATOM     29  C   UNL     1       9.481  -0.303   4.951  0.00  0.00    +0.224 C 
ATOM     30  O   UNL     1       9.909  -1.270   4.356  0.00  0.00    -0.275 OA
ATOM     31  N   UNL     1      10.309   0.708   5.277  0.00  0.00    -0.283 N 
ATOM     32  H   UNL     1       9.981   1.454   5.803  0.00  0.00    +0.155 HD
BRANCH  31  33
ATOM     33  C   UNL     1      11.645   0.683   4.856  0.00  0.00    +0.069 A 
ATOM     34  C   UNL     1      12.268  -0.528   4.589  0.00  0.00    +0.026 A 
ATOM     35  C   UNL     1      13.585  -0.549   4.173  0.00  0.00    +0.002 A 
ATOM     36  C   UNL     1      14.285   0.634   4.024  0.00  0.00    +0.003 A 
ATOM     37  C   UNL     1      13.669   1.843   4.289  0.00  0.00    +0.040 A 
ATOM     38  C   UNL     1      12.348   1.873   4.700  0.00  0.00    +0.144 A 
ATOM     39  F   UNL     1      11.745   3.054   4.954  0.00  0.00    -0.204 F 
ENDBRANCH  31  33
ENDBRANCH   7  29
TORSDOF 6
