REMARK  Name = ZINC09563044
REMARK  5 active torsions:
REMARK  status: ('A' for Active; 'I' for Inactive)
REMARK    1  A    between atoms: C_1  and  C_2
REMARK    2  A    between atoms: C_5  and  N_8
REMARK    3  A    between atoms: C_10  and  C_15
REMARK    4  A    between atoms: N_17  and  N_18
REMARK    5  A    between atoms: N_27  and  C_28
REMARK                            x       y       z     vdW  Elec       q    Type
REMARK                         _______ _______ _______ _____ _____    ______ ____
ROOT
ATOM      1  C   UNL     1      -0.198   2.930   1.698  0.00  0.00    +0.236 C 
ATOM      2  O   UNL     1      -0.882   3.932   1.694  0.00  0.00    -0.274 OA
ATOM      3  N   UNL     1       1.082   2.990   2.114  0.00  0.00    -0.219 N 
ATOM      4  H   UNL     1       1.629   2.189   2.118  0.00  0.00    +0.176 HD
ENDROOT
BRANCH   3   5
ATOM      5  N   UNL     1       1.623   4.209   2.543  0.00  0.00    -0.212 N 
ATOM      6  C   UNL     1       1.958   5.157   1.632  0.00  0.00    +0.224 A 
ATOM      7  N   UNL     1       2.458   6.312   1.961  0.00  0.00    -0.216 NA
ATOM      8  C   UNL     1       2.692   6.645   3.240  0.00  0.00    +0.170 A 
ATOM      9  C   UNL     1       2.382   5.725   4.254  0.00  0.00    +0.105 A 
ATOM     10  C   UNL     1       1.814   4.434   3.864  0.00  0.00    +0.282 A 
ATOM     11  O   UNL     1       1.524   3.594   4.697  0.00  0.00    -0.265 OA
ATOM     12  C   UNL     1       2.723   6.325   5.481  0.00  0.00    +0.150 A 
ATOM     13  N   UNL     1       3.201   7.514   5.238  0.00  0.00    -0.172 NA
ATOM     14  N   UNL     1       3.197   7.747   3.857  0.00  0.00    -0.214 N 
BRANCH  14  15
ATOM     15  C   UNL     1       3.639   8.915   3.220  0.00  0.00    +0.068 A 
ATOM     16  C   UNL     1       4.270   8.838   1.986  0.00  0.00    +0.030 A 
ATOM     17  C   UNL     1       4.700   9.990   1.358  0.00  0.00    +0.040 A 
ATOM     18  C   UNL     1       4.512  11.221   1.963  0.00  0.00    +0.124 A 
ATOM     19  C   UNL     1       3.887  11.300   3.196  0.00  0.00    +0.040 A 
ATOM     20  C   UNL     1       3.451  10.150   3.825  0.00  0.00    +0.030 A 
ATOM     21  F   UNL     1       4.938  12.347   1.349  0.00  0.00    -0.205 F 
ENDBRANCH  14  15
ENDBRANCH   3   5
BRANCH   1  24
ATOM     22  N   UNL     1      -2.016   2.009  -0.784  0.00  0.00    -0.271 N 
ATOM     23  C   UNL     1      -2.203   1.815   0.658  0.00  0.00    +0.127 C 
ATOM     24  C   UNL     1      -0.780   1.619   1.236  0.00  0.00    +0.103 C 
ATOM     25  C   UNL     1      -0.016   1.077   0.006  0.00  0.00    +0.110 C 
ATOM     26  C   UNL     1      -0.799   1.597  -1.179  0.00  0.00    +0.221 C 
ATOM     27  O   UNL     1      -0.388   1.638  -2.319  0.00  0.00    -0.275 OA
BRANCH  22  32
ATOM     28  C   UNL     1      -5.929   4.215  -4.250  0.00  0.00    +0.044 C 
ATOM     29  C   UNL     1      -4.890   3.629  -3.329  0.00  0.00    -0.050 A 
ATOM     30  C   UNL     1      -5.204   3.375  -2.007  0.00  0.00    +0.005 A 
ATOM     31  C   UNL     1      -4.253   2.838  -1.161  0.00  0.00    +0.024 A 
ATOM     32  C   UNL     1      -2.982   2.552  -1.639  0.00  0.00    +0.036 A 
ATOM     33  C   UNL     1      -2.668   2.813  -2.967  0.00  0.00    +0.024 A 
ATOM     34  C   UNL     1      -3.624   3.346  -3.809  0.00  0.00    +0.005 A 
ENDBRANCH  22  32
ENDBRANCH   1  24
TORSDOF 4
