REMARK  Name = ZINC42623899
REMARK  4 active torsions:
REMARK  status: ('A' for Active; 'I' for Inactive)
REMARK    1  A    between atoms: C_1  and  C_2
REMARK    2  A    between atoms: N_8  and  S_9
REMARK    3  A    between atoms: S_9  and  C_12
REMARK    4  A    between atoms: N_20  and  C_23
REMARK                            x       y       z     vdW  Elec       q    Type
REMARK                         _______ _______ _______ _____ _____    ______ ____
ROOT
ATOM      1  C   UNL     1       0.122   0.795   3.656  0.00  0.00    +0.106 A 
ATOM      2  C   UNL     1      -0.879   1.739   3.518  0.00  0.00    +0.029 A 
ATOM      3  C   UNL     1      -1.805   1.933   4.531  0.00  0.00    +0.016 A 
ATOM      4  C   UNL     1      -1.726   1.176   5.689  0.00  0.00    +0.050 A 
ATOM      5  C   UNL     1      -0.706   0.213   5.829  0.00  0.00    +0.051 A 
ATOM      6  C   UNL     1       0.210   0.027   4.806  0.00  0.00    +0.042 A 
ATOM      7  C   UNL     1      -0.909  -0.402   7.157  0.00  0.00    +0.254 C 
ATOM      8  O   UNL     1      -0.225  -1.279   7.644  0.00  0.00    -0.270 OA
ATOM      9  N   UNL     1      -1.978   0.174   7.737  0.00  0.00    -0.237 N 
ATOM     10  C   UNL     1      -2.515   1.113   6.937  0.00  0.00    +0.254 C 
ATOM     11  O   UNL     1      -3.486   1.794   7.197  0.00  0.00    -0.270 OA
ATOM     12  C   UNL     1      -2.489  -0.175   9.065  0.00  0.00    +0.142 C 
ENDROOT
BRANCH   1  13
ATOM     13  S   UNL     1       1.290   0.564   2.357  0.00  0.00    +0.061 S 
ATOM     14  O   UNL     1       2.381  -0.156   2.915  0.00  0.00    -0.153 OA
ATOM     15  O   UNL     1       1.454   1.827   1.728  0.00  0.00    -0.153 OA
BRANCH  13  22
ATOM     16  C   UNL     1       1.418  -2.247   2.664  0.00  0.00    +0.026 C 
ATOM     17  C   UNL     1       0.577  -1.890   1.437  0.00  0.00    +0.077 C 
ATOM     18  C   UNL     1       1.169  -2.564   0.195  0.00  0.00    +0.020 C 
ATOM     19  C   UNL     1       0.408  -2.094  -1.047  0.00  0.00    +0.003 C 
ATOM     20  C   UNL     1       0.564  -0.579  -1.199  0.00  0.00    +0.017 C 
ATOM     21  C   UNL     1      -0.035   0.118   0.027  0.00  0.00    +0.110 C 
ATOM     22  N   UNL     1       0.587  -0.435   1.238  0.00  0.00    -0.174 NA
ENDBRANCH  13  22
ENDBRANCH   1  13
TORSDOF 2
