REMARK  Name = ZINC17639403
REMARK  4 active torsions:
REMARK  status: ('A' for Active; 'I' for Inactive)
REMARK    1  A    between atoms: C_1  and  C_2
REMARK    2  A    between atoms: C_14  and  C_15
REMARK    3  A    between atoms: C_19  and  C_26
REMARK    4  A    between atoms: C_22  and  C_25
REMARK                            x       y       z     vdW  Elec       q    Type
REMARK                         _______ _______ _______ _____ _____    ______ ____
ROOT
ATOM      1  C   UNL     1       0.931   4.199   1.617  0.00  0.00    +0.046 C 
ATOM      2  C   UNL     1       1.758   3.362   0.675  0.00  0.00    -0.017 A 
ATOM      3  C   UNL     1       1.474   2.003   0.513  0.00  0.00    +0.076 A 
ATOM      4  C   UNL     1       2.305   1.305  -0.392  0.00  0.00    +0.116 A 
ATOM      5  N   UNL     1       2.138   0.014  -0.633  0.00  0.00    -0.226 NA
ATOM      6  C   UNL     1       1.197  -0.691  -0.052  0.00  0.00    +0.114 A 
ATOM      7  N   UNL     1       0.340  -0.132   0.839  0.00  0.00    -0.296 N 
ATOM      8  C   UNL     1       0.425   1.182   1.153  0.00  0.00    +0.263 A 
ATOM      9  O   UNL     1      -0.353   1.681   1.947  0.00  0.00    -0.267 OA
ATOM     10  C   UNL     1      -0.611  -1.136   1.351  0.00  0.00    +0.127 C 
ATOM     11  C   UNL     1      -0.552  -2.311   0.353  0.00  0.00    +0.029 C 
ATOM     12  C   UNL     1       0.873  -2.164  -0.224  0.00  0.00    +0.076 C 
ATOM     13  S   UNL     1       3.425   2.557  -0.966  0.00  0.00    -0.064 S 
ATOM     14  C   UNL     1       2.784   3.929  -0.021  0.00  0.00    +0.080 A 
ENDROOT
BRANCH  14  15
ATOM     15  C   UNL     1       3.247   5.320   0.001  0.00  0.00    +0.254 C 
ATOM     16  O   UNL     1       2.441   6.230  -0.062  0.00  0.00    -0.269 OA
ATOM     17  N   UNL     1       4.564   5.591   0.091  0.00  0.00    -0.297 N 
ATOM     18  C   UNL     1       5.037   6.978   0.201  0.00  0.00    +0.111 C 
ATOM     19  C   UNL     1       5.945   7.088   1.435  0.00  0.00    +0.004 C 
ATOM     20  C   UNL     1       7.064   6.048   1.333  0.00  0.00    +0.009 C 
ATOM     21  C   UNL     1       6.457   4.644   1.306  0.00  0.00    +0.004 C 
ATOM     22  C   UNL     1       5.554   4.506   0.076  0.00  0.00    +0.111 C 
ATOM     23  C   UNL     1       7.577   3.604   1.236  0.00  0.00    +0.009 C 
ATOM     24  C   UNL     1       5.125   6.832   2.701  0.00  0.00    +0.009 C 
ENDBRANCH  14  15
TORSDOF 1
