REMARK  Name = ZINC16449151
REMARK  4 active torsions:
REMARK  status: ('A' for Active; 'I' for Inactive)
REMARK    1  A    between atoms: C_5  and  N_7
REMARK    2  A    between atoms: N_7  and  C_8
REMARK    3  A    between atoms: C_13  and  C_14
REMARK    4  A    between atoms: C_17  and  C_20
REMARK                            x       y       z     vdW  Elec       q    Type
REMARK                         _______ _______ _______ _____ _____    ______ ____
ROOT
ATOM      1  C   UNL     1       0.046  -2.751   0.691  0.00  0.00    +0.175 C 
ATOM      2  N   UNL     1      -1.195  -2.314   0.831  0.00  0.00    -0.152 NA
ATOM      3  C   UNL     1      -2.236  -3.115   0.775  0.00  0.00    +0.276 C 
ATOM      4  O   UNL     1      -3.376  -2.700   0.905  0.00  0.00    -0.267 OA
ATOM      5  C   UNL     1      -1.946  -4.553   0.545  0.00  0.00    +0.079 C 
ATOM      6  C   UNL     1      -2.796  -5.604   0.441  0.00  0.00    +0.028 C 
ATOM      7  S   UNL     1      -0.162  -4.507   0.437  0.00  0.00    -0.050 S 
ENDROOT
BRANCH   6   8
ATOM      8  C   UNL     1      -4.246  -5.374   0.382  0.00  0.00    -0.024 A 
ATOM      9  C   UNL     1      -4.752  -4.258  -0.296  0.00  0.00    +0.009 A 
ATOM     10  C   UNL     1      -6.100  -4.045  -0.350  0.00  0.00    +0.019 A 
ATOM     11  C   UNL     1      -6.975  -4.941   0.272  0.00  0.00    +0.052 A 
ATOM     12  C   UNL     1      -6.471  -6.056   0.949  0.00  0.00    +0.019 A 
ATOM     13  C   UNL     1      -5.124  -6.274   0.999  0.00  0.00    +0.009 A 
BRANCH  11  14
ATOM     14  C   UNL     1      -8.388  -4.716   0.215  0.00  0.00    +0.099 C 
ATOM     15  N   UNL     1      -9.509  -4.538   0.170  0.00  0.00    -0.191 NA
ENDBRANCH  11  14
ENDBRANCH   6   8
BRANCH   1  16
ATOM     16  N   UNL     1       1.210  -2.030   0.726  0.00  0.00    -0.190 NA
BRANCH  16  21
ATOM     17  C   UNL     1       0.160   1.093   2.357  0.00  0.00    +0.002 A 
ATOM     18  C   UNL     1       1.153   1.957   1.933  0.00  0.00    +0.002 A 
ATOM     19  C   UNL     1       2.166   1.501   1.109  0.00  0.00    +0.022 A 
ATOM     20  C   UNL     1       2.188   0.179   0.707  0.00  0.00    +0.064 A 
ATOM     21  C   UNL     1       1.191  -0.692   1.131  0.00  0.00    +0.074 A 
ATOM     22  C   UNL     1       0.176  -0.229   1.959  0.00  0.00    +0.026 A 
ATOM     23 CL   UNL     1       3.459  -0.393  -0.329  0.00  0.00    -0.082 Cl
ENDBRANCH  16  21
ENDBRANCH   1  16
TORSDOF 4
