REMARK  Name = ZINC17445108
REMARK  7 active torsions:
REMARK  status: ('A' for Active; 'I' for Inactive)
REMARK    1  A    between atoms: C_1  and  N_2
REMARK    2  A    between atoms: N_2  and  C_3
REMARK    3  A    between atoms: N_2  and  S_4
REMARK    4  A    between atoms: S_4  and  C_7
REMARK    5  A    between atoms: C_11  and  C_13
REMARK    6  A    between atoms: N_15  and  N_16
REMARK    7  A    between atoms: C_17  and  C_19
REMARK                            x       y       z     vdW  Elec       q    Type
REMARK                         _______ _______ _______ _____ _____    ______ ____
ROOT
ATOM      1  C   UNL     1       1.175   3.566   0.009  0.00  0.00    +0.262 C 
ATOM      2  O   UNL     1       0.117   4.166   0.022  0.00  0.00    -0.269 OA
ATOM      3  N   UNL     1       2.337   4.249   0.002  0.00  0.00    -0.230 N 
ATOM      4  H   UNL     1       3.180   3.770  -0.008  0.00  0.00    +0.173 HD
ENDROOT
BRANCH   1   9
ATOM      5  C   UNL     1       2.402   0.017  -0.021  0.00  0.00    +0.106 A 
ATOM      6  C   UNL     1       1.207  -0.682  -0.013  0.00  0.00    +0.030 A 
ATOM      7  C   UNL     1       0.002  -0.004   0.002  0.00  0.00    +0.022 A 
ATOM      8  C   UNL     1      -0.017   1.377   0.010  0.00  0.00    +0.053 A 
ATOM      9  C   UNL     1       1.186   2.088   0.002  0.00  0.00    +0.058 A 
ATOM     10  C   UNL     1       2.398   1.396  -0.013  0.00  0.00    +0.043 A 
ATOM     11 CL   UNL     1      -1.530   2.227   0.021  0.00  0.00    -0.083 Cl
BRANCH   5  12
ATOM     12  S   UNL     1       3.931  -0.857  -0.040  0.00  0.00    +0.060 S 
ATOM     13  O   UNL     1       4.907   0.019   0.507  0.00  0.00    -0.153 OA
ATOM     14  O   UNL     1       3.671  -2.143   0.507  0.00  0.00    -0.153 OA
BRANCH  12  16
ATOM     15  C   UNL     1       5.153  -0.095  -2.329  0.00  0.00    +0.131 C 
ATOM     16  N   UNL     1       4.342  -1.092  -1.627  0.00  0.00    -0.183 NA
ATOM     17  C   UNL     1       3.893  -2.298  -2.328  0.00  0.00    +0.131 C 
ENDBRANCH  12  16
ENDBRANCH   5  12
ENDBRANCH   1   9
BRANCH   3  18
ATOM     18  N   UNL     1       2.326   5.650   0.009  0.00  0.00    -0.230 N 
ATOM     19  C   UNL     1       3.488   6.332   0.002  0.00  0.00    +0.267 C 
ATOM     20  O   UNL     1       4.546   5.732  -0.011  0.00  0.00    -0.268 OA
ATOM     21  H   UNL     1       1.482   6.128   0.019  0.00  0.00    +0.173 HD
BRANCH  19  22
ATOM     22  C   UNL     1       3.477   7.798   0.009  0.00  0.00    +0.076 A 
ATOM     23  C   UNL     1       4.540   8.677   0.004  0.00  0.00    +0.024 A 
ATOM     24  C   UNL     1       4.266  10.044   0.013  0.00  0.00    -0.036 A 
ATOM     25  C   UNL     1       2.955  10.405   0.029  0.00  0.00    -0.006 A 
ATOM     26  S   UNL     1       2.084   8.912   0.020  0.00  0.00    -0.088 S 
ATOM     27  C   UNL     1       2.784  11.899   0.043  0.00  0.00    +0.043 C 
ATOM     28  C   UNL     1       4.163  12.446   0.471  0.00  0.00    +0.010 C 
ATOM     29  C   UNL     1       5.110  11.322   0.007  0.00  0.00    +0.036 C 
ENDBRANCH  19  22
ENDBRANCH   3  18
TORSDOF 5
