REMARK  Name = ZINC45064030
REMARK  4 active torsions:
REMARK  status: ('A' for Active; 'I' for Inactive)
REMARK    1  A    between atoms: C_1  and  N_2
REMARK    2  A    between atoms: C_4  and  N_20
REMARK    3  A    between atoms: C_6  and  C_7
REMARK    4  A    between atoms: C_13  and  C_15
REMARK                            x       y       z     vdW  Elec       q    Type
REMARK                         _______ _______ _______ _____ _____    ______ ____
ROOT
ATOM      1  C   UNL     1      -0.141  -0.302   2.435  0.00  0.00    +0.263 C 
ATOM      2  O   UNL     1      -0.066  -1.147   3.308  0.00  0.00    -0.268 OA
ATOM      3  N   UNL     1      -0.372   0.985   2.761  0.00  0.00    -0.293 N 
ATOM      4  C   UNL     1      -0.624   2.081   1.807  0.00  0.00    +0.108 C 
ATOM      5  C   UNL     1      -1.413   3.139   2.619  0.00  0.00    +0.021 C 
ATOM      6  C   UNL     1      -0.734   3.034   4.010  0.00  0.00    +0.024 C 
ATOM      7  C   UNL     1      -0.419   1.528   4.126  0.00  0.00    +0.080 C 
ENDROOT
BRANCH   1  13
ATOM      8  C   UNL     1       0.125  -3.190   1.352  0.00  0.00    +0.149 C 
ATOM      9  N   UNL     1       0.137  -1.967   0.544  0.00  0.00    -0.344 N 
ATOM     10  C   UNL     1       0.261  -1.913  -0.809  0.00  0.00    +0.108 A 
ATOM     11  C   UNL     1       0.229  -0.611  -1.198  0.00  0.00    +0.043 A 
ATOM     12  C   UNL     1       0.081   0.176  -0.048  0.00  0.00    +0.055 A 
ATOM     13  C   UNL     1       0.018  -0.685   1.028  0.00  0.00    +0.106 A 
BRANCH  11  14
ATOM     14  N   UNL     1       0.329  -0.138  -2.520  0.00  0.00    -0.357 N 
ATOM     15  H   UNL     1       0.430  -0.765  -3.253  0.00  0.00    +0.142 HD
ATOM     16  H   UNL     1       0.296   0.815  -2.698  0.00  0.00    +0.142 HD
ENDBRANCH  11  14
ENDBRANCH   1  13
BRANCH   7  17
ATOM     17  C   UNL     1       0.935   1.334   4.811  0.00  0.00    +0.010 C 
ATOM     18  C   UNL     1       1.164  -0.162   5.114  0.00  0.00    +0.005 C 
ATOM     19  C   UNL     1       1.890  -0.165   6.482  0.00  0.00    +0.000 C 
ATOM     20  C   UNL     1       1.188   0.986   7.244  0.00  0.00    +0.000 C 
ATOM     21  C   UNL     1       0.950   2.063   6.166  0.00  0.00    +0.005 C 
ENDBRANCH   7  17
TORSDOF 3
