REMARK  Name = ZINC66834012
REMARK  8 active torsions:
REMARK  status: ('A' for Active; 'I' for Inactive)
REMARK    1  A    between atoms: C_1  and  C_2
REMARK    2  A    between atoms: C_2  and  C_4
REMARK    3  A    between atoms: C_2  and  N_18
REMARK    4  A    between atoms: N_6  and  C_7
REMARK    5  A    between atoms: C_12  and  C_13
REMARK    6  A    between atoms: C_22  and  C_25
REMARK    7  A    between atoms: C_25  and  O_27
REMARK    8  A    between atoms: O_27  and  C_28
REMARK                            x       y       z     vdW  Elec       q    Type
REMARK                         _______ _______ _______ _____ _____    ______ ____
ROOT
ATOM      1  C   UNL     1       0.640  -0.262   1.292  0.00  0.00    +0.203 C 
ATOM      2  O   UNL     1      -0.016  -0.738   2.195  0.00  0.00    -0.277 OA
ATOM      3  N   UNL     1       1.946   0.012   1.480  0.00  0.00    -0.286 N 
ATOM      4  H   UNL     1       2.452   0.462   0.785  0.00  0.00    +0.155 HD
ENDROOT
BRANCH   3   5
ATOM      5  C   UNL     1       2.572  -0.353   2.677  0.00  0.00    +0.045 A 
ATOM      6  C   UNL     1       1.863  -0.324   3.870  0.00  0.00    +0.025 A 
ATOM      7  C   UNL     1       2.483  -0.684   5.050  0.00  0.00    +0.022 A 
ATOM      8  C   UNL     1       3.811  -1.074   5.044  0.00  0.00    +0.042 A 
ATOM      9  C   UNL     1       4.521  -1.104   3.857  0.00  0.00    +0.034 A 
ATOM     10  C   UNL     1       3.903  -0.750   2.673  0.00  0.00    +0.077 A 
ATOM     11 CL   UNL     1       4.589  -1.525   6.529  0.00  0.00    -0.084 Cl
BRANCH  10  12
ATOM     12  C   UNL     1       4.674  -0.789   1.379  0.00  0.00    +0.419 C 
ATOM     13  F   UNL     1       5.982  -1.218   1.628  0.00  0.00    -0.166 F 
ATOM     14  F   UNL     1       4.054  -1.677   0.493  0.00  0.00    -0.166 F 
ATOM     15  F   UNL     1       4.702   0.490   0.814  0.00  0.00    -0.166 F 
ENDBRANCH  10  12
ENDBRANCH   3   5
BRANCH   1  17
ATOM     16  C   UNL     1      -0.190   1.533  -0.204  0.00  0.00    -0.004 C 
ATOM     17  C   UNL     1      -0.006   0.023  -0.039  0.00  0.00    +0.016 C 
BRANCH  17  18
ATOM     18  N   UNL     1      -1.316  -0.639  -0.100  0.00  0.00    +0.388 N 
ATOM     19  C   UNL     1      -1.129  -2.095  -0.064  0.00  0.00    -0.078 C 
ATOM     20  C   UNL     1      -2.493  -2.788  -0.045  0.00  0.00    -0.018 C 
ATOM     21  C   UNL     1      -3.273  -2.403  -1.306  0.00  0.00    +0.011 C 
ATOM     22  C   UNL     1      -3.397  -0.878  -1.371  0.00  0.00    +0.081 C 
ATOM     23  C   UNL     1      -2.000  -0.256  -1.341  0.00  0.00    -0.063 C 
ATOM     24  H   UNL     1      -1.873  -0.354   0.692  0.00  0.00    -0.081 HD
BRANCH  22  25
ATOM     25  C   UNL     1      -4.097  -0.485  -2.646  0.00  0.00    +0.308 C 
ATOM     26  O   UNL     1      -3.537   0.224  -3.449  0.00  0.00    -0.251 OA
BRANCH  25  27
ATOM     27  O   UNL     1      -5.342  -0.922  -2.891  0.00  0.00    -0.468 OA
ATOM     28  C   UNL     1      -5.945  -0.510  -4.120  0.00  0.00    +0.280 C 
ENDBRANCH  25  27
ENDBRANCH  22  25
ENDBRANCH  17  18
ENDBRANCH   1  17
TORSDOF 6
