REMARK  Name = ZINC20029225
REMARK  12 active torsions:
REMARK  status: ('A' for Active; 'I' for Inactive)
REMARK    1  A    between atoms: C_1  and  C_2
REMARK    2  A    between atoms: C_2  and  C_4
REMARK    3  A    between atoms: C_4  and  O_5
REMARK    4  A    between atoms: O_5  and  C_6
REMARK    5  A    between atoms: C_9  and  C_14
REMARK    6  A    between atoms: C_11  and  O_12
REMARK    7  A    between atoms: O_12  and  C_13
REMARK    8  A    between atoms: N_19  and  C_33
REMARK    9  A    between atoms: C_23  and  C_31
REMARK   10  A    between atoms: C_24  and  N_30
REMARK   11  A    between atoms: C_25  and  C_26
REMARK   12  A    between atoms: C_25  and  C_28
REMARK                            x       y       z     vdW  Elec       q    Type
REMARK                         _______ _______ _______ _____ _____    ______ ____
ROOT
ATOM      1  C   UNL     1      -0.736   1.964  -1.246  0.00  0.00    +0.068 C 
ATOM      2  C   UNL     1      -2.225   1.618  -1.287  0.00  0.00    +0.044 C 
ATOM      3  C   UNL     1      -2.821   1.856  -2.657  0.00  0.00    +0.093 C 
ATOM      4  N   UNL     1      -3.536   3.134  -2.729  0.00  0.00    -0.301 NA
ATOM      5  C   UNL     1      -4.635   3.158  -1.748  0.00  0.00    +0.111 C 
ATOM      6  C   UNL     1      -4.024   3.062  -0.372  0.00  0.00    -0.007 C 
ATOM      7  C   UNL     1      -2.912   2.376  -0.187  0.00  0.00    -0.026 C 
ATOM      8  C   UNL     1      -2.257   2.377   1.145  0.00  0.00    +0.074 C 
ATOM      9  C   UNL     1      -0.968   1.971   1.249  0.00  0.00    +0.054 C 
ATOM     10  C   UNL     1      -0.153   1.490   0.086  0.00  0.00    +0.188 C 
ATOM     11  C   UNL     1      -4.036   3.381  -4.088  0.00  0.00    +0.105 C 
ENDROOT
BRANCH   1  15
ATOM     12  C   UNL     1      -0.238   6.197  -1.596  0.00  0.00    +0.162 A 
ATOM     13  C   UNL     1      -0.363   5.612  -0.346  0.00  0.00    +0.050 A 
ATOM     14  C   UNL     1      -0.524   4.243  -0.236  0.00  0.00    +0.008 A 
ATOM     15  C   UNL     1      -0.560   3.455  -1.371  0.00  0.00    -0.037 A 
ATOM     16  C   UNL     1      -0.431   4.031  -2.621  0.00  0.00    +0.053 A 
ATOM     17  C   UNL     1      -0.275   5.403  -2.739  0.00  0.00    +0.162 A 
BRANCH  17  18
ATOM     18  O   UNL     1      -0.154   5.972  -3.968  0.00  0.00    -0.491 OA
ATOM     19  C   UNL     1      -0.201   5.096  -5.096  0.00  0.00    +0.277 C 
ENDBRANCH  17  18
BRANCH  12  20
ATOM     20  O   UNL     1      -0.081   7.543  -1.706  0.00  0.00    -0.484 OA
BRANCH  20  21
ATOM     21  C   UNL     1      -0.052   8.294  -0.491  0.00  0.00    +0.259 C 
BRANCH  21  23
ATOM     22  C   UNL     1       0.191  10.767   0.307  0.00  0.00    +0.042 C 
ATOM     23  C   UNL     1       0.128   9.756  -0.808  0.00  0.00    -0.043 C 
ATOM     24  C   UNL     1       0.231  10.148  -2.054  0.00  0.00    +0.011 C 
ENDBRANCH  21  23
ENDBRANCH  20  21
ENDBRANCH  12  20
ENDBRANCH   1  15
BRANCH   9  25
ATOM     25  N   UNL     1      -0.379   2.003   2.482  0.00  0.00    -0.358 N 
ATOM     26  H   UNL     1       0.666   1.681   2.602  0.00  0.00    +0.142 HD
ATOM     27  H   UNL     1      -0.951   2.351   3.355  0.00  0.00    +0.142 HD
ENDBRANCH   9  25
BRANCH  10  28
ATOM     28  C   UNL     1      -0.120   0.018   0.100  0.00  0.00    +0.091 C 
ATOM     29  N   UNL     1      -0.095  -1.117   0.110  0.00  0.00    -0.194 NA
ENDBRANCH  10  28
BRANCH  10  30
ATOM     30  C   UNL     1       1.221   2.002   0.218  0.00  0.00    +0.091 C 
ATOM     31  N   UNL     1       2.281   2.397   0.320  0.00  0.00    -0.194 NA
ENDBRANCH  10  30
BRANCH   8  32
ATOM     32  C   UNL     1      -2.980   2.801   2.306  0.00  0.00    +0.101 C 
ATOM     33  N   UNL     1      -3.553   3.138   3.227  0.00  0.00    -0.191 NA
ENDBRANCH   8  32
TORSDOF 9
