REMARK  Name = ZINC60017193
REMARK  9 active torsions:
REMARK  status: ('A' for Active; 'I' for Inactive)
REMARK    1  A    between atoms: C_1  and  C_2
REMARK    2  A    between atoms: C_2  and  C_3
REMARK    3  A    between atoms: C_3  and  C_11
REMARK    4  A    between atoms: C_14  and  N_17
REMARK    5  A    between atoms: C_18  and  C_20
REMARK    6  A    between atoms: C_22  and  S_27
REMARK    7  A    between atoms: C_25  and  C_26
REMARK    8  A    between atoms: S_27  and  N_30
REMARK    9  A    between atoms: N_30  and  C_31
REMARK                            x       y       z     vdW  Elec       q    Type
REMARK                         _______ _______ _______ _____ _____    ______ ____
ROOT
ATOM      1  N   UNL     1      -2.153   1.031   6.112  0.00  0.00    -0.281 N 
ATOM      2  C   UNL     1      -2.345   2.339   6.373  0.00  0.00    +0.249 C 
ATOM      3  O   UNL     1      -2.303   3.152   5.470  0.00  0.00    -0.270 OA
ATOM      4  H   UNL     1      -2.272   0.374   6.816  0.00  0.00    +0.155 HD
ENDROOT
BRANCH   2   5
ATOM      5  C   UNL     1      -2.607   2.786   7.758  0.00  0.00    +0.042 A 
ATOM      6  C   UNL     1      -2.786   1.847   8.776  0.00  0.00    +0.041 A 
ATOM      7  C   UNL     1      -3.030   2.271  10.065  0.00  0.00    +0.106 A 
ATOM      8  C   UNL     1      -3.098   3.623  10.352  0.00  0.00    +0.029 A 
ATOM      9  C   UNL     1      -2.922   4.559   9.348  0.00  0.00    +0.006 A 
ATOM     10  C   UNL     1      -2.671   4.148   8.055  0.00  0.00    -0.038 A 
ATOM     11  C   UNL     1      -2.473   5.169   6.963  0.00  0.00    +0.044 C 
BRANCH   7  12
ATOM     12  S   UNL     1      -3.256   1.088  11.351  0.00  0.00    +0.059 S 
ATOM     13  O   UNL     1      -4.012   1.732  12.368  0.00  0.00    -0.153 OA
ATOM     14  O   UNL     1      -3.687  -0.114  10.727  0.00  0.00    -0.153 OA
BRANCH  12  15
ATOM     15  N   UNL     1      -1.763   0.776  11.998  0.00  0.00    -0.187 NA
ATOM     16  H   UNL     1      -1.373  -0.109  11.914  0.00  0.00    +0.148 HD
BRANCH  15  17
ATOM     17  C   UNL     1      -1.031   1.835  12.696  0.00  0.00    +0.077 C 
ATOM     18  C   UNL     1       0.494   1.832  12.584  0.00  0.00    +0.022 C 
ATOM     19  C   UNL     1      -0.176   1.429  13.898  0.00  0.00    +0.022 C 
ENDBRANCH  15  17
ENDBRANCH  12  15
ENDBRANCH   7  12
ENDBRANCH   2   5
BRANCH   1  23
ATOM     20  C   UNL     1      -1.048  -0.190   2.287  0.00  0.00    -0.032 A 
ATOM     21  C   UNL     1      -0.563   1.000   2.798  0.00  0.00    +0.006 A 
ATOM     22  C   UNL     1      -0.927   1.408   4.066  0.00  0.00    +0.023 A 
ATOM     23  C   UNL     1      -1.782   0.621   4.828  0.00  0.00    +0.034 A 
ATOM     24  C   UNL     1      -2.268  -0.573   4.311  0.00  0.00    +0.023 A 
ATOM     25  C   UNL     1      -1.903  -0.973   3.040  0.00  0.00    +0.006 A 
BRANCH  20  26
ATOM     26  C   UNL     1      -0.648  -0.631   0.902  0.00  0.00    +0.072 C 
ATOM     27  C   UNL     1       0.407   0.329   0.342  0.00  0.00    +0.030 C 
ATOM     28  C   UNL     1       0.714  -0.075  -1.105  0.00  0.00    +0.097 C 
ATOM     29  C   UNL     1      -0.567  -0.094  -1.896  0.00  0.00    +0.219 C 
ATOM     30  O   UNL     1      -0.535   0.139  -3.085  0.00  0.00    -0.275 OA
ATOM     31  N   UNL     1      -1.743  -0.364  -1.310  0.00  0.00    -0.256 N 
ATOM     32  C   UNL     1      -1.855  -0.621   0.002  0.00  0.00    +0.230 C 
ATOM     33  O   UNL     1      -2.949  -0.848   0.472  0.00  0.00    -0.274 OA
ATOM     34  H   UNL     1      -2.544  -0.374  -1.856  0.00  0.00    +0.157 HD
BRANCH  26  36
ATOM     35  C   UNL     1       1.140  -2.062   1.902  0.00  0.00    +0.005 C 
ATOM     36  C   UNL     1      -0.069  -2.046   0.964  0.00  0.00    +0.017 C 
ENDBRANCH  26  36
ENDBRANCH  20  26
ENDBRANCH   1  23
TORSDOF 7
