REMARK  Name = ZINC19224487
REMARK  8 active torsions:
REMARK  status: ('A' for Active; 'I' for Inactive)
REMARK    1  A    between atoms: C_1  and  O_2
REMARK    2  A    between atoms: O_2  and  C_3
REMARK    3  A    between atoms: C_6  and  C_9
REMARK    4  A    between atoms: C_9  and  N_10
REMARK    5  A    between atoms: C_12  and  O_25
REMARK    6  A    between atoms: N_15  and  C_19
REMARK    7  A    between atoms: O_25  and  C_26
REMARK    8  A    between atoms: C_26  and  C_27
REMARK                            x       y       z     vdW  Elec       q    Type
REMARK                         _______ _______ _______ _____ _____    ______ ____
ROOT
ATOM      1  N   UNL     1       7.460   3.310   1.379  0.00  0.00    -0.296 N 
ATOM      2  C   UNL     1       6.581   2.129   1.440  0.00  0.00    +0.137 C 
ATOM      3  C   UNL     1       6.082   1.825   0.025  0.00  0.00    +0.120 C 
ATOM      4  C   UNL     1       7.079   0.960  -0.722  0.00  0.00    -0.044 C 
ATOM      5  N   UNL     1       8.343   1.627  -1.007  0.00  0.00    +0.389 N 
ATOM      6  C   UNL     1       9.120   1.899   0.210  0.00  0.00    +0.019 C 
ATOM      7  C   UNL     1       8.659   3.216   0.796  0.00  0.00    +0.199 C 
ATOM      8  O   UNL     1       9.380   4.189   0.737  0.00  0.00    -0.278 OA
ATOM      9  H   UNL     1       8.088   2.600  -1.451  0.00  0.00    -0.081 HD
ENDROOT
BRANCH   5  10
ATOM     10  C   UNL     1       9.136   0.860  -1.977  0.00  0.00    -0.064 C 
ATOM     11  C   UNL     1       8.450   0.903  -3.346  0.00  0.00    +0.013 C 
ATOM     12  C   UNL     1       9.239   0.035  -4.331  0.00  0.00    +0.158 C 
ATOM     13  O   UNL     1       9.327  -1.299  -3.826  0.00  0.00    -0.380 OA
ATOM     14  C   UNL     1      10.002  -1.404  -2.571  0.00  0.00    +0.158 C 
ATOM     15  C   UNL     1       9.242  -0.597  -1.515  0.00  0.00    +0.013 C 
ENDBRANCH   5  10
BRANCH   1  16
ATOM     16  C   UNL     1       7.021   4.583   1.954  0.00  0.00    +0.142 C 
BRANCH  16  20
ATOM     17  C   UNL     1       4.958   6.856  -1.019  0.00  0.00    +0.120 A 
ATOM     18  C   UNL     1       4.257   5.979  -0.204  0.00  0.00    +0.046 A 
ATOM     19  C   UNL     1       4.926   5.246   0.757  0.00  0.00    +0.009 A 
ATOM     20  C   UNL     1       6.294   5.385   0.906  0.00  0.00    -0.030 A 
ATOM     21  C   UNL     1       6.994   6.262   0.098  0.00  0.00    +0.009 A 
ATOM     22  C   UNL     1       6.330   6.993  -0.868  0.00  0.00    +0.046 A 
BRANCH  17  24
ATOM     23  C   UNL     1       5.088   8.462  -2.767  0.00  0.00    +0.277 C 
ATOM     24  O   UNL     1       4.302   7.579  -1.964  0.00  0.00    -0.495 OA
ENDBRANCH  17  24
ENDBRANCH  16  20
ENDBRANCH   1  16
BRANCH   3  25
ATOM     25  O   UNL     1       4.831   1.139   0.106  0.00  0.00    -0.372 OA
BRANCH  25  26
ATOM     26  C   UNL     1       3.694   2.004   0.129  0.00  0.00    +0.198 C 
BRANCH  26  27
ATOM     27  C   UNL     1       2.436   1.178   0.214  0.00  0.00    +0.013 A 
ATOM     28  C   UNL     1       2.516  -0.202   0.257  0.00  0.00    +0.009 A 
ATOM     29  C   UNL     1       1.363  -0.959   0.334  0.00  0.00    +0.001 A 
ATOM     30  C   UNL     1       0.128  -0.339   0.369  0.00  0.00    +0.003 A 
ATOM     31  C   UNL     1       0.045   1.040   0.327  0.00  0.00    +0.039 A 
ATOM     32  C   UNL     1       1.200   1.800   0.249  0.00  0.00    +0.129 A 
ATOM     33  F   UNL     1       1.120   3.148   0.207  0.00  0.00    -0.205 F 
ENDBRANCH  26  27
ENDBRANCH  25  26
ENDBRANCH   3  25
TORSDOF 7
