REMARK  Name = ZINC07158211
REMARK  5 active torsions:
REMARK  status: ('A' for Active; 'I' for Inactive)
REMARK    1  A    between atoms: C_1  and  C_2
REMARK    2  A    between atoms: C_8  and  N_10
REMARK    3  A    between atoms: C_11  and  C_13
REMARK    4  A    between atoms: C_13  and  C_25
REMARK    5  A    between atoms: C_14  and  C_15
REMARK                            x       y       z     vdW  Elec       q    Type
REMARK                         _______ _______ _______ _____ _____    ______ ____
ROOT
ATOM      1  C   UNL     1      -3.771   6.959  -0.649  0.00  0.00    +0.114 C 
ATOM      2  C   UNL     1      -3.122   5.966  -1.350  0.00  0.00    +0.032 C 
ENDROOT
BRANCH   2   3
ATOM      3  C   UNL     1      -2.546   4.823  -0.637  0.00  0.00    -0.019 A 
ATOM      4  C   UNL     1      -3.122   4.380   0.562  0.00  0.00    +0.057 A 
ATOM      5  C   UNL     1      -2.575   3.303   1.229  0.00  0.00    +0.168 A 
ATOM      6  C   UNL     1      -1.451   2.656   0.711  0.00  0.00    +0.180 A 
ATOM      7  C   UNL     1      -0.880   3.095  -0.479  0.00  0.00    +0.064 A 
ATOM      8  C   UNL     1      -1.418   4.169  -1.152  0.00  0.00    +0.027 A 
ATOM      9 BR   UNL     1       0.641   2.214  -1.175  0.00  0.00    -0.046 Br
ATOM     10  O   UNL     1      -1.112   1.632   1.548  0.00  0.00    -0.451 OA
ATOM     11  C   UNL     1      -2.275   1.404   2.365  0.00  0.00    +0.466 C 
ATOM     12  O   UNL     1      -2.936   2.683   2.392  0.00  0.00    -0.453 OA
ENDBRANCH   2   3
BRANCH   1  14
ATOM     13  N   UNL     1      -5.113   8.999  -0.686  0.00  0.00    -0.308 N 
ATOM     14  C   UNL     1      -4.478   8.028  -1.371  0.00  0.00    +0.255 C 
ATOM     15  O   UNL     1      -4.489   8.035  -2.588  0.00  0.00    -0.269 OA
ATOM     16  H   UNL     1      -5.104   8.993   0.284  0.00  0.00    +0.149 HD
BRANCH  13  23
ATOM     17  C   UNL     1      -4.489  11.779  -0.166  0.00  0.00    +0.009 C 
ATOM     18  C   UNL     1      -5.902  11.308  -0.520  0.00  0.00    +0.006 C 
ATOM     19  C   UNL     1      -6.636  12.420  -1.271  0.00  0.00    +0.005 C 
ATOM     20  C   UNL     1      -8.049  11.949  -1.625  0.00  0.00    +0.000 C 
ATOM     21  C   UNL     1      -7.964  10.704  -2.511  0.00  0.00    +0.002 C 
ATOM     22  C   UNL     1      -7.229   9.592  -1.760  0.00  0.00    +0.022 C 
ATOM     23  C   UNL     1      -5.817  10.063  -1.405  0.00  0.00    +0.076 C 
ENDBRANCH  13  23
ENDBRANCH   1  14
BRANCH   1  24
ATOM     24  C   UNL     1      -3.759   6.950   0.783  0.00  0.00    +0.104 C 
ATOM     25  N   UNL     1      -3.748   6.943   1.919  0.00  0.00    -0.191 NA
ENDBRANCH   1  24
TORSDOF 4
