REMARK  Name = ZINC13756230
REMARK  6 active torsions:
REMARK  status: ('A' for Active; 'I' for Inactive)
REMARK    1  A    between atoms: C_1  and  C_2
REMARK    2  A    between atoms: C_5  and  S_8
REMARK    3  A    between atoms: S_8  and  N_11
REMARK    4  A    between atoms: N_14  and  N_15
REMARK    5  A    between atoms: C_16  and  C_25
REMARK    6  A    between atoms: N_17  and  C_18
REMARK                            x       y       z     vdW  Elec       q    Type
REMARK                         _______ _______ _______ _____ _____    ______ ____
ROOT
ATOM      1  N   UNL     1      -1.460   2.016  -0.961  0.00  0.00    -0.168 N 
ATOM      2  C   UNL     1      -1.959   3.250  -1.170  0.00  0.00    +0.335 C 
ATOM      3  O   UNL     1      -1.994   4.054  -0.258  0.00  0.00    -0.250 OA
ATOM      4  N   UNL     1      -2.419   3.594  -2.389  0.00  0.00    -0.218 N 
ATOM      5  H   UNL     1      -1.432   1.374  -1.688  0.00  0.00    +0.178 HD
ATOM      6  H   UNL     1      -2.778   4.482  -2.539  0.00  0.00    +0.174 HD
ENDROOT
BRANCH   4   7
ATOM      7  N   UNL     1      -2.378   2.667  -3.439  0.00  0.00    -0.243 N 
ATOM      8  C   UNL     1      -2.846   3.016  -4.677  0.00  0.00    +0.217 C 
ATOM      9  N   UNL     1      -3.327   4.209  -4.879  0.00  0.00    -0.227 NA
ATOM     10  H   UNL     1      -2.019   1.779  -3.289  0.00  0.00    +0.172 HD
BRANCH   9  11
ATOM     11  C   UNL     1      -3.957   4.503  -6.062  0.00  0.00    +0.066 A 
ATOM     12  C   UNL     1      -3.376   5.401  -6.959  0.00  0.00    +0.029 A 
ATOM     13  C   UNL     1      -4.011   5.689  -8.150  0.00  0.00    +0.022 A 
ATOM     14  C   UNL     1      -5.226   5.099  -8.450  0.00  0.00    +0.041 A 
ATOM     15  C   UNL     1      -5.810   4.212  -7.562  0.00  0.00    +0.022 A 
ATOM     16  C   UNL     1      -5.182   3.911  -6.371  0.00  0.00    +0.029 A 
ATOM     17 CL   UNL     1      -6.023   5.472  -9.947  0.00  0.00    -0.084 Cl
ENDBRANCH   9  11
BRANCH   8  18
ATOM     18  C   UNL     1      -2.802   2.020  -5.807  0.00  0.00    +0.449 C 
ATOM     19  F   UNL     1      -3.191   2.646  -6.996  0.00  0.00    -0.163 F 
ATOM     20  F   UNL     1      -1.500   1.526  -5.944  0.00  0.00    -0.163 F 
ATOM     21  F   UNL     1      -3.675   0.962  -5.530  0.00  0.00    -0.163 F 
ENDBRANCH   8  18
ENDBRANCH   4   7
BRANCH   1  22
ATOM     22  S   UNL     1      -0.894   1.594   0.537  0.00  0.00    +0.076 S 
ATOM     23  O   UNL     1      -0.467   0.242   0.444  0.00  0.00    -0.150 OA
ATOM     24  O   UNL     1      -0.028   2.640   0.954  0.00  0.00    -0.150 OA
BRANCH  22  29
ATOM     25  C   UNL     1      -5.606   1.657   4.306  0.00  0.00    +0.044 C 
ATOM     26  C   UNL     1      -4.429   1.641   3.365  0.00  0.00    -0.050 A 
ATOM     27  C   UNL     1      -4.101   0.481   2.688  0.00  0.00    +0.005 A 
ATOM     28  C   UNL     1      -3.022   0.467   1.824  0.00  0.00    +0.029 A 
ATOM     29  C   UNL     1      -2.271   1.612   1.638  0.00  0.00    +0.109 A 
ATOM     30  C   UNL     1      -2.596   2.770   2.319  0.00  0.00    +0.029 A 
ATOM     31  C   UNL     1      -3.678   2.786   3.179  0.00  0.00    +0.005 A 
ENDBRANCH  22  29
ENDBRANCH   1  22
TORSDOF 5
