REMARK  Name = ZINC01750428
REMARK  4 active torsions:
REMARK  status: ('A' for Active; 'I' for Inactive)
REMARK    1  A    between atoms: C_1  and  C_2
REMARK    2  A    between atoms: C_5  and  C_8
REMARK    3  A    between atoms: C_11  and  C_18
REMARK    4  A    between atoms: C_21  and  C_24
REMARK                            x       y       z     vdW  Elec       q    Type
REMARK                         _______ _______ _______ _____ _____    ______ ____
ROOT
ATOM      1  C   UNL     1       0.059  -4.275  -0.021  0.00  0.00    +0.148 C 
ATOM      2  C   UNL     1      -1.171  -4.814   0.720  0.00  0.00    +0.088 C 
ATOM      3  C   UNL     1      -0.994  -4.713   2.208  0.00  0.00    +0.055 C 
ATOM      4  N   UNL     1       0.166  -4.853   2.792  0.00  0.00    -0.214 NA
ATOM      5  C   UNL     1       1.270  -5.023   2.017  0.00  0.00    +0.270 A 
ATOM      6  N   UNL     1       1.251  -4.758   0.671  0.00  0.00    -0.202 N 
ATOM      7  N   UNL     1       2.533  -5.042   0.213  0.00  0.00    -0.042 NA
ATOM      8  N   UNL     1       3.218  -5.420   1.244  0.00  0.00    -0.021 NA
ATOM      9  N   UNL     1       2.485  -5.406   2.308  0.00  0.00    -0.088 NA
ENDROOT
BRANCH   1  14
ATOM     10  C   UNL     1      -0.018   1.503   0.010  0.00  0.00    +0.044 C 
ATOM     11  C   UNL     1       0.002  -0.004   0.002  0.00  0.00    -0.050 A 
ATOM     12  C   UNL     1       0.006  -0.689  -1.199  0.00  0.00    +0.004 A 
ATOM     13  C   UNL     1       0.025  -2.071  -1.206  0.00  0.00    +0.006 A 
ATOM     14  C   UNL     1       0.040  -2.768  -0.013  0.00  0.00    -0.023 A 
ATOM     15  C   UNL     1       0.037  -2.084   1.188  0.00  0.00    +0.006 A 
ATOM     16  C   UNL     1       0.023  -0.702   1.195  0.00  0.00    +0.004 A 
ENDBRANCH   1  14
BRANCH   3  17
ATOM     17  C   UNL     1      -2.176  -4.446   3.043  0.00  0.00    -0.004 A 
ATOM     18  C   UNL     1      -3.435  -4.296   2.451  0.00  0.00    +0.010 A 
ATOM     19  C   UNL     1      -4.538  -4.046   3.240  0.00  0.00    +0.004 A 
ATOM     20  C   UNL     1      -4.402  -3.942   4.613  0.00  0.00    -0.050 A 
ATOM     21  C   UNL     1      -3.160  -4.088   5.206  0.00  0.00    +0.004 A 
ATOM     22  C   UNL     1      -2.048  -4.345   4.432  0.00  0.00    +0.010 A 
ATOM     23  C   UNL     1      -5.612  -3.668   5.468  0.00  0.00    +0.044 C 
ENDBRANCH   3  17
TORSDOF 2
