REMARK  Name = ZINC39862278
REMARK  6 active torsions:
REMARK  status: ('A' for Active; 'I' for Inactive)
REMARK    1  A    between atoms: C_4  and  C_7
REMARK    2  A    between atoms: C_7  and  C_8
REMARK    3  A    between atoms: N_10  and  N_11
REMARK    4  A    between atoms: C_15  and  C_16
REMARK    5  A    between atoms: C_17  and  C_18
REMARK    6  A    between atoms: C_23  and  N_24
REMARK                            x       y       z     vdW  Elec       q    Type
REMARK                         _______ _______ _______ _____ _____    ______ ____
ROOT
ATOM      1  N   UNL     1       5.198  -1.000   3.261  0.00  0.00    -0.170 N 
ATOM      2  C   UNL     1       6.151  -0.271   3.818  0.00  0.00    +0.275 C 
ATOM      3  O   UNL     1       6.569   0.744   3.293  0.00  0.00    -0.267 OA
ATOM      4  C   UNL     1       6.681  -0.750   5.109  0.00  0.00    +0.078 C 
ATOM      5  C   UNL     1       7.651  -0.212   5.904  0.00  0.00    +0.020 C 
ATOM      6  S   UNL     1       5.703  -2.227   5.346  0.00  0.00    -0.060 S 
ATOM      7  C   UNL     1       4.734  -2.121   3.850  0.00  0.00    +0.138 C 
ATOM      8  S   UNL     1       3.513  -3.185   3.296  0.00  0.00    -0.026 S 
ENDROOT
BRANCH   1  11
ATOM      9  C   UNL     1       3.431  -0.031   1.993  0.00  0.00    +0.234 C 
ATOM     10  O   UNL     1       2.800   0.126   3.017  0.00  0.00    -0.274 OA
ATOM     11  N   UNL     1       4.655  -0.595   2.035  0.00  0.00    -0.226 N 
ATOM     12  H   UNL     1       5.160  -0.720   1.216  0.00  0.00    +0.173 HD
BRANCH   9  13
ATOM     13  C   UNL     1       2.847   0.404   0.674  0.00  0.00    +0.132 C 
BRANCH  13  17
ATOM     14  C   UNL     1      -1.025   2.089   1.316  0.00  0.00    +0.000 A 
ATOM     15  C   UNL     1       0.095   2.898   1.352  0.00  0.00    +0.000 A 
ATOM     16  C   UNL     1       1.348   2.353   1.144  0.00  0.00    +0.004 A 
ATOM     17  C   UNL     1       1.481   0.999   0.901  0.00  0.00    -0.039 A 
ATOM     18  C   UNL     1       0.361   0.189   0.866  0.00  0.00    +0.004 A 
ATOM     19  C   UNL     1      -0.892   0.735   1.073  0.00  0.00    +0.000 A 
ENDBRANCH  13  17
ENDBRANCH   9  13
ENDBRANCH   1  11
BRANCH   5  20
ATOM     20  C   UNL     1       8.003  -0.846   7.112  0.00  0.00    +0.002 C 
ATOM     21  C   UNL     1       8.966  -0.312   7.900  0.00  0.00    +0.010 C 
BRANCH  21  22
ATOM     22  C   UNL     1       9.334  -0.974   9.161  0.00  0.00    +0.005 A 
ATOM     23  C   UNL     1       8.495  -1.947   9.716  0.00  0.00    +0.010 A 
ATOM     24  C   UNL     1       8.847  -2.562  10.898  0.00  0.00    +0.001 A 
ATOM     25  C   UNL     1      10.027  -2.220  11.536  0.00  0.00    +0.002 A 
ATOM     26  C   UNL     1      10.862  -1.259  10.994  0.00  0.00    +0.033 A 
ATOM     27  C   UNL     1      10.527  -0.638   9.809  0.00  0.00    +0.133 A 
BRANCH  27  28
ATOM     28  N   UNL     1      11.427   0.386   9.227  0.00  0.00    +0.057 N 
ATOM     29  O   UNL     1      11.571   0.452   8.028  0.00  0.00    -0.126 OA
ATOM     30  O   UNL     1      12.016   1.155   9.950  0.00  0.00    -0.126 OA
ENDBRANCH  27  28
ENDBRANCH  21  22
ENDBRANCH   5  20
TORSDOF 6
