REMARK  Name = ZINC22289473
REMARK  4 active torsions:
REMARK  status: ('A' for Active; 'I' for Inactive)
REMARK    1  A    between atoms: C_4  and  C_9
REMARK    2  A    between atoms: C_6  and  C_7
REMARK    3  A    between atoms: C_9  and  O_10
REMARK    4  A    between atoms: O_10  and  C_11
REMARK                            x       y       z     vdW  Elec       q    Type
REMARK                         _______ _______ _______ _____ _____    ______ ____
ROOT
ATOM      1  C   UNL     1      -0.148   1.182   2.380  0.00  0.00    +0.121 A 
ATOM      2  C   UNL     1       0.995   0.397   2.420  0.00  0.00    +0.047 A 
ATOM      3  C   UNL     1       1.537   0.026   3.634  0.00  0.00    +0.027 A 
ATOM      4  C   UNL     1       0.938   0.440   4.816  0.00  0.00    +0.037 A 
ATOM      5  C   UNL     1      -0.206   1.226   4.776  0.00  0.00    -0.022 A 
ATOM      6  C   UNL     1      -0.745   1.600   3.561  0.00  0.00    +0.051 A 
ATOM      7  C   UNL     1      -0.854   1.673   6.060  0.00  0.00    +0.046 C 
ATOM      8  C   UNL     1      -0.689   0.586   7.123  0.00  0.00    +0.101 C 
ATOM      9  C   UNL     1       0.745   0.131   7.172  0.00  0.00    +0.218 C 
ATOM     10  O   UNL     1       1.239  -0.181   8.235  0.00  0.00    -0.275 OA
ATOM     11  N   UNL     1       1.485   0.066   6.050  0.00  0.00    -0.285 N 
ATOM     12  H   UNL     1       2.527  -0.283   6.106  0.00  0.00    +0.155 HD
ENDROOT
BRANCH   1  13
ATOM     13  O   UNL     1      -0.682   1.547   1.184  0.00  0.00    -0.487 OA
BRANCH  13  14
ATOM     14  C   UNL     1      -0.013   1.086   0.008  0.00  0.00    +0.267 C 
BRANCH  14  18
ATOM     15  C   UNL     1      -2.070   2.496  -3.474  0.00  0.00    +0.021 A 
ATOM     16  C   UNL     1      -0.939   1.719  -3.605  0.00  0.00    +0.040 A 
ATOM     17  C   UNL     1      -0.271   1.267  -2.478  0.00  0.00    +0.130 A 
ATOM     18  C   UNL     1      -0.742   1.585  -1.213  0.00  0.00    +0.026 A 
ATOM     19  C   UNL     1      -1.871   2.361  -1.070  0.00  0.00    +0.028 A 
ATOM     20  C   UNL     1      -2.546   2.824  -2.203  0.00  0.00    +0.052 A 
ATOM     21  F   UNL     1       0.840   0.511  -2.612  0.00  0.00    -0.205 F 
BRANCH  20  22
ATOM     22  C   UNL     1      -3.720   3.631  -2.061  0.00  0.00    +0.099 C 
ATOM     23  N   UNL     1      -4.652   4.271  -1.948  0.00  0.00    -0.191 NA
ENDBRANCH  20  22
ENDBRANCH  14  18
ENDBRANCH  13  14
ENDBRANCH   1  13
TORSDOF 4
