REMARK  Name = ZINC39679738
REMARK  8 active torsions:
REMARK  status: ('A' for Active; 'I' for Inactive)
REMARK    1  A    between atoms: C_1  and  C_2
REMARK    2  A    between atoms: C_2  and  C_3
REMARK    3  A    between atoms: C_2  and  C_4
REMARK    4  A    between atoms: C_2  and  C_5
REMARK    5  A    between atoms: C_16  and  C_18
REMARK    6  A    between atoms: C_18  and  C_19
REMARK    7  A    between atoms: C_19  and  C_21
REMARK    8  A    between atoms: C_19  and  C_27
REMARK                            x       y       z     vdW  Elec       q    Type
REMARK                         _______ _______ _______ _____ _____    ______ ____
ROOT
ATOM      1  C   UNL     1       0.532   0.015  -0.986  0.00  0.00    +0.216 C 
ATOM      2  N   UNL     1      -0.066   0.334  -2.286  0.00  0.00    -0.258 NA
ATOM      3  C   UNL     1       0.809   0.966  -3.011  0.00  0.00    +0.083 C 
ATOM      4  C   UNL     1       0.730   1.510  -4.383  0.00  0.00    +0.031 C 
ATOM      5  C   UNL     1       1.801   2.131  -4.908  0.00  0.00    +0.025 C 
ATOM      6  C   UNL     1       3.036   2.269  -4.130  0.00  0.00    +0.035 C 
ATOM      7  C   UNL     1       3.128   1.758  -2.822  0.00  0.00    +0.050 C 
ATOM      8  C   UNL     1       2.070   1.122  -2.252  0.00  0.00    +0.077 C 
ATOM      9  N   UNL     1       1.903   0.540  -1.012  0.00  0.00    -0.222 NA
ATOM     10  N   UNL     1       4.088   2.890  -4.670  0.00  0.00    -0.285 N 
ATOM     11  C   UNL     1       3.975   3.480  -5.857  0.00  0.00    +0.218 C 
ATOM     12  O   UNL     1       3.121   4.326  -6.037  0.00  0.00    -0.275 OA
ATOM     13  H   UNL     1       4.934   2.910  -4.197  0.00  0.00    +0.155 HD
ENDROOT
BRANCH   1  15
ATOM     14  C   UNL     1      -0.295   2.197  -0.094  0.00  0.00    +0.014 C 
ATOM     15  C   UNL     1      -0.265   0.685   0.135  0.00  0.00    +0.003 C 
ATOM     16  C   UNL     1       0.399   0.386   1.481  0.00  0.00    +0.014 C 
ATOM     17  C   UNL     1      -1.695   0.141   0.140  0.00  0.00    +0.014 C 
ENDBRANCH   1  15
BRANCH  11  18
ATOM     18  C   UNL     1       4.906   3.099  -6.980  0.00  0.00    +0.115 C 
BRANCH  18  19
ATOM     19  C   UNL     1       4.565   3.919  -8.225  0.00  0.00    +0.141 C 
BRANCH  19  20
ATOM     20  C   UNL     1       5.413   3.453  -9.381  0.00  0.00    -0.033 A 
ATOM     21  C   UNL     1       6.791   3.519  -9.298  0.00  0.00    +0.004 A 
ATOM     22  C   UNL     1       7.568   3.092 -10.358  0.00  0.00    +0.000 A 
ATOM     23  C   UNL     1       6.967   2.597 -11.501  0.00  0.00    +0.000 A 
ATOM     24  C   UNL     1       5.589   2.530 -11.583  0.00  0.00    +0.000 A 
ATOM     25  C   UNL     1       4.812   2.954 -10.521  0.00  0.00    +0.004 A 
ENDBRANCH  19  20
BRANCH  19  26
ATOM     26  C   UNL     1       4.839   5.377  -7.957  0.00  0.00    +0.364 C 
ATOM     27  O   UNL     1       5.965   5.742  -7.663  0.00  0.00    -0.246 OA
ATOM     28  O   UNL     1       3.935   6.191  -8.035  0.00  0.00    -0.246 OA
ENDBRANCH  19  26
ENDBRANCH  18  19
ENDBRANCH  11  18
TORSDOF 5
