REMARK  Name = ZINC07827208
REMARK  8 active torsions:
REMARK  status: ('A' for Active; 'I' for Inactive)
REMARK    1  A    between atoms: C_1  and  N_2
REMARK    2  A    between atoms: C_3  and  C_5
REMARK    3  A    between atoms: C_16  and  C_18
REMARK    4  A    between atoms: C_19  and  C_20
REMARK    5  A    between atoms: C_24  and  O_30
REMARK    6  A    between atoms: C_25  and  O_26
REMARK    7  A    between atoms: O_26  and  C_27
REMARK    8  A    between atoms: O_30  and  C_31
REMARK                            x       y       z     vdW  Elec       q    Type
REMARK                         _______ _______ _______ _____ _____    ______ ____
ROOT
ATOM      1  C   UNL     1      -3.062  10.441   6.787  0.00  0.00    +0.276 C 
ATOM      2  C   UNL     1      -3.842   9.174   6.396  0.00  0.00    +0.168 C 
ATOM      3  N   UNL     1      -3.165   8.582   5.229  0.00  0.00    -0.261 N 
ATOM      4  C   UNL     1      -2.726   9.454   4.218  0.00  0.00    +0.079 A 
ATOM      5  C   UNL     1      -2.350   8.951   2.983  0.00  0.00    +0.027 A 
ATOM      6  C   UNL     1      -1.916   9.812   1.992  0.00  0.00    +0.002 A 
ATOM      7  C   UNL     1      -1.858  11.172   2.233  0.00  0.00    +0.004 A 
ATOM      8  C   UNL     1      -2.233  11.679   3.463  0.00  0.00    +0.047 A 
ATOM      9  C   UNL     1      -2.670  10.823   4.463  0.00  0.00    +0.143 A 
ATOM     10  O   UNL     1      -3.041  11.330   5.668  0.00  0.00    -0.476 OA
ATOM     11  C   UNL     1      -2.978   7.251   5.132  0.00  0.00    +0.244 C 
ATOM     12  O   UNL     1      -2.327   6.794   4.210  0.00  0.00    -0.270 OA
ENDROOT
BRANCH   1  15
ATOM     13  C   UNL     1      -4.448  11.149  10.285  0.00  0.00    +0.128 C 
ATOM     14  N   UNL     1      -3.787  10.497   9.151  0.00  0.00    -0.315 N 
ATOM     15  C   UNL     1      -3.741  11.112   7.953  0.00  0.00    +0.255 C 
ATOM     16  O   UNL     1      -4.248  12.205   7.813  0.00  0.00    -0.272 OA
ATOM     17  H   UNL     1      -3.382   9.623   9.264  0.00  0.00    +0.148 HD
ENDBRANCH   1  15
BRANCH  11  18
ATOM     18  C   UNL     1      -3.557   6.357   6.133  0.00  0.00    +0.068 C 
ATOM     19  C   UNL     1      -3.280   5.036   6.098  0.00  0.00    +0.017 C 
BRANCH  19  20
ATOM     20  C   UNL     1      -3.862   4.137   7.105  0.00  0.00    +0.021 A 
ATOM     21  C   UNL     1      -4.703   4.646   8.101  0.00  0.00    +0.012 A 
ATOM     22  C   UNL     1      -5.246   3.799   9.043  0.00  0.00    +0.004 A 
ATOM     23  C   UNL     1      -4.963   2.443   9.010  0.00  0.00    +0.049 A 
ATOM     24  C   UNL     1      -4.133   1.923   8.031  0.00  0.00    +0.162 A 
ATOM     25  C   UNL     1      -3.573   2.765   7.075  0.00  0.00    +0.175 A 
BRANCH  24  26
ATOM     26  O   UNL     1      -3.861   0.591   8.007  0.00  0.00    -0.491 OA
ATOM     27  C   UNL     1      -4.466  -0.213   9.022  0.00  0.00    +0.277 C 
ENDBRANCH  24  26
BRANCH  25  28
ATOM     28  O   UNL     1      -2.755   2.260   6.117  0.00  0.00    -0.430 OA
BRANCH  28  29
ATOM     29  C   UNL     1      -3.369   1.827   4.901  0.00  0.00    +0.541 C 
ATOM     30  F   UNL     1      -4.292   0.813   5.180  0.00  0.00    -0.166 F 
ATOM     31  F   UNL     1      -4.028   2.906   4.303  0.00  0.00    -0.166 F 
ENDBRANCH  28  29
ENDBRANCH  25  28
ENDBRANCH  19  20
ENDBRANCH  11  18
TORSDOF 6
