REMARK  Name = ZINC22901169
REMARK  9 active torsions:
REMARK  status: ('A' for Active; 'I' for Inactive)
REMARK    1  A    between atoms: C_1  and  C_2
REMARK    2  A    between atoms: C_2  and  C_3
REMARK    3  A    between atoms: C_2  and  C_4
REMARK    4  A    between atoms: C_2  and  C_5
REMARK    5  A    between atoms: C_8  and  C_11
REMARK    6  A    between atoms: N_13  and  N_14
REMARK    7  A    between atoms: C_15  and  C_17
REMARK    8  A    between atoms: C_20  and  C_23
REMARK    9  A    between atoms: C_23  and  N_24
REMARK                            x       y       z     vdW  Elec       q    Type
REMARK                         _______ _______ _______ _____ _____    ______ ____
ROOT
ATOM      1  N   UNL     1       2.455  -4.213  -0.043  0.00  0.00    -0.230 N 
ATOM      2  C   UNL     1       3.635  -4.865  -0.058  0.00  0.00    +0.260 C 
ATOM      3  O   UNL     1       4.676  -4.238  -0.065  0.00  0.00    -0.269 OA
ATOM      4  H   UNL     1       1.513  -4.781  -0.037  0.00  0.00    +0.173 HD
ENDROOT
BRANCH   2   5
ATOM      5  C   UNL     1       3.662  -6.343  -0.066  0.00  0.00    +0.038 A 
ATOM      6  C   UNL     1       2.469  -7.067  -0.052  0.00  0.00    +0.013 A 
ATOM      7  C   UNL     1       2.501  -8.446  -0.065  0.00  0.00    +0.006 A 
ATOM      8  C   UNL     1       3.714  -9.112  -0.080  0.00  0.00    -0.030 A 
ATOM      9  C   UNL     1       4.901  -8.401  -0.088  0.00  0.00    +0.006 A 
ATOM     10  C   UNL     1       4.882  -7.021  -0.081  0.00  0.00    +0.013 A 
BRANCH   8  11
ATOM     11  C   UNL     1       3.742 -10.619  -0.087  0.00  0.00    +0.151 C 
BRANCH  11  12
ATOM     12  N   UNL     1       3.765 -11.113   1.292  0.00  0.00    -0.238 N 
ATOM     13  C   UNL     1       4.902 -11.342   1.961  0.00  0.00    +0.223 C 
ATOM     14  O   UNL     1       6.020 -11.175   1.523  0.00  0.00    -0.275 OA
ATOM     15  C   UNL     1       4.570 -11.841   3.350  0.00  0.00    +0.105 C 
ATOM     16  C   UNL     1       3.028 -11.869   3.365  0.00  0.00    +0.105 C 
ATOM     17  C   UNL     1       2.650 -11.379   1.985  0.00  0.00    +0.223 C 
ATOM     18  O   UNL     1       1.518 -11.248   1.571  0.00  0.00    -0.275 OA
ENDBRANCH  11  12
ENDBRANCH   8  11
ENDBRANCH   2   5
BRANCH   1  21
ATOM     19  C   UNL     1       1.250  -2.160  -0.021  0.00  0.00    +0.260 C 
ATOM     20  O   UNL     1       0.208  -2.788  -0.014  0.00  0.00    -0.269 OA
ATOM     21  N   UNL     1       2.429  -2.812  -0.036  0.00  0.00    -0.230 N 
ATOM     22  H   UNL     1       3.371  -2.245  -0.042  0.00  0.00    +0.173 HD
BRANCH  19  26
ATOM     23  C   UNL     1       1.170   2.086   0.002  0.00  0.00    -0.042 A 
ATOM     24  C   UNL     1      -0.017   1.375   0.010  0.00  0.00    +0.005 A 
ATOM     25  C   UNL     1       0.002  -0.004   0.002  0.00  0.00    +0.013 A 
ATOM     26  C   UNL     1       1.222  -0.682  -0.013  0.00  0.00    +0.038 A 
ATOM     27  C   UNL     1       2.416   0.041  -0.021  0.00  0.00    +0.013 A 
ATOM     28  C   UNL     1       2.383   1.420  -0.013  0.00  0.00    +0.005 A 
BRANCH  23  30
ATOM     29  C   UNL     1       0.423   4.083   1.268  0.00  0.00    +0.015 C 
ATOM     30  C   UNL     1       1.142   3.593   0.010  0.00  0.00    -0.013 C 
ATOM     31  C   UNL     1       2.575   4.130  -0.001  0.00  0.00    +0.015 C 
ATOM     32  C   UNL     1       0.400   4.096  -1.230  0.00  0.00    +0.015 C 
ENDBRANCH  23  30
ENDBRANCH  19  26
ENDBRANCH   1  21
TORSDOF 6
