REMARK  Name = ZINC05226440
REMARK  9 active torsions:
REMARK  status: ('A' for Active; 'I' for Inactive)
REMARK    1  A    between atoms: C_1  and  C_2
REMARK    2  A    between atoms: C_3  and  C_30
REMARK    3  A    between atoms: C_4  and  C_29
REMARK    4  A    between atoms: C_7  and  C_8
REMARK    5  A    between atoms: C_8  and  C_10
REMARK    6  A    between atoms: C_10  and  N_11
REMARK    7  A    between atoms: C_14  and  C_18
REMARK    8  A    between atoms: C_14  and  C_19
REMARK    9  A    between atoms: C_30  and  C_32
REMARK                            x       y       z     vdW  Elec       q    Type
REMARK                         _______ _______ _______ _____ _____    ______ ____
ROOT
ATOM      1  N   UNL     1      -5.917   3.207   2.958  0.00  0.00    -0.216 N 
ATOM      2  C   UNL     1      -6.785   2.419   3.623  0.00  0.00    +0.251 C 
ATOM      3  O   UNL     1      -6.711   1.219   3.782  0.00  0.00    -0.272 OA
ATOM      4  C   UNL     1      -7.872   3.344   4.131  0.00  0.00    +0.136 C 
ATOM      5  N   UNL     1      -7.455   4.670   3.642  0.00  0.00    -0.281 N 
ATOM      6  C   UNL     1      -6.304   4.487   2.970  0.00  0.00    +0.310 C 
ATOM      7  O   UNL     1      -5.686   5.385   2.432  0.00  0.00    -0.252 OA
ATOM      8  C   UNL     1      -7.927   3.328   5.660  0.00  0.00    +0.047 C 
ATOM      9  H   UNL     1      -7.920   5.510   3.778  0.00  0.00    +0.152 HD
ENDROOT
BRANCH   4  10
ATOM     10  C   UNL     1      -9.208   2.961   3.550  0.00  0.00    -0.008 A 
ATOM     11  C   UNL     1      -9.871   3.824   2.732  0.00  0.00    +0.007 A 
ATOM     12  C   UNL     1     -11.108   3.487   2.185  0.00  0.00    +0.001 A 
ATOM     13  C   UNL     1     -11.689   2.285   2.453  0.00  0.00    +0.008 A 
ATOM     14  C   UNL     1     -11.034   1.368   3.293  0.00  0.00    -0.018 A 
ATOM     15  C   UNL     1      -9.774   1.709   3.845  0.00  0.00    -0.012 A 
ATOM     16  C   UNL     1      -9.122   0.795   4.690  0.00  0.00    +0.009 A 
ATOM     17  C   UNL     1      -9.703  -0.407   4.958  0.00  0.00    +0.001 A 
ATOM     18  C   UNL     1     -10.940  -0.744   4.411  0.00  0.00    +0.001 A 
ATOM     19  C   UNL     1     -11.602   0.118   3.593  0.00  0.00    +0.008 A 
ENDBRANCH   4  10
BRANCH   1  20
ATOM     20  C   UNL     1      -4.702   2.720   2.299  0.00  0.00    +0.199 C 
BRANCH  20  21
ATOM     21  C   UNL     1      -3.551   2.764   3.271  0.00  0.00    +0.197 C 
ATOM     22  O   UNL     1      -3.728   3.163   4.404  0.00  0.00    -0.289 OA
BRANCH  21  29
ATOM     23  C   UNL     1      -1.028   2.763   5.085  0.00  0.00    +0.047 C 
ATOM     24  C   UNL     1      -1.130   2.329   3.645  0.00  0.00    -0.012 A 
ATOM     25  C   UNL     1      -0.081   1.833   2.838  0.00  0.00    +0.041 A 
ATOM     26  C   UNL     1      -0.621   1.561   1.589  0.00  0.00    +0.024 A 
ATOM     27  N   UNL     1      -1.924   1.872   1.609  0.00  0.00    -0.355 N 
ATOM     28  H   UNL     1      -2.534   1.780   0.860  0.00  0.00    +0.166 HD
ATOM     29  C   UNL     1      -2.263   2.341   2.862  0.00  0.00    +0.088 A 
ATOM     30  C   UNL     1       0.135   1.014   0.406  0.00  0.00    +0.064 C 
BRANCH  25  31
ATOM     31  C   UNL     1       1.315   1.642   3.244  0.00  0.00    +0.162 C 
ATOM     32  O   UNL     1       2.096   2.569   3.185  0.00  0.00    -0.292 OA
ATOM     33  C   UNL     1       1.780   0.295   3.735  0.00  0.00    +0.091 C 
ENDBRANCH  25  31
ENDBRANCH  21  29
ENDBRANCH  20  21
ENDBRANCH   1  20
TORSDOF 5
