REMARK  Name = ZINC41652471
REMARK  10 active torsions:
REMARK  status: ('A' for Active; 'I' for Inactive)
REMARK    1  A    between atoms: C_1  and  C_2
REMARK    2  A    between atoms: C_4  and  N_11
REMARK    3  A    between atoms: C_5  and  O_9
REMARK    4  A    between atoms: O_9  and  C_10
REMARK    5  A    between atoms: C_12  and  C_14
REMARK    6  A    between atoms: N_16  and  C_17
REMARK    7  A    between atoms: C_17  and  C_18
REMARK    8  A    between atoms: C_18  and  C_20
REMARK    9  A    between atoms: C_18  and  N_21
REMARK   10  A    between atoms: C_25  and  C_28
REMARK                            x       y       z     vdW  Elec       q    Type
REMARK                         _______ _______ _______ _____ _____    ______ ____
ROOT
ATOM      1  C   UNL     1      -0.145  -3.040  -4.937  0.00  0.00    +0.299 C 
ATOM      2  O   UNL     1      -0.042  -4.247  -5.014  0.00  0.00    -0.265 OA
ATOM      3  N   UNL     1      -0.307  -2.305  -6.055  0.00  0.00    -0.309 N 
ATOM      4  H   UNL     1      -0.390  -1.341  -5.994  0.00  0.00    +0.149 HD
ENDROOT
BRANCH   1   6
ATOM      5  N   UNL     1       0.068  -3.105  -2.486  0.00  0.00    -0.275 N 
ATOM      6  C   UNL     1      -0.093  -2.370  -3.604  0.00  0.00    +0.303 C 
ATOM      7  O   UNL     1      -0.197  -1.163  -3.527  0.00  0.00    -0.265 OA
ATOM      8  H   UNL     1       0.230  -4.059  -2.551  0.00  0.00    +0.155 HD
BRANCH   5  12
ATOM      9  C   UNL     1      -1.531   0.583   0.343  0.00  0.00    +0.045 C 
ATOM     10  C   UNL     1      -0.766  -0.703   0.172  0.00  0.00    -0.030 A 
ATOM     11  C   UNL     1      -0.702  -1.307  -1.070  0.00  0.00    +0.031 A 
ATOM     12  C   UNL     1       0.003  -2.491  -1.230  0.00  0.00    +0.076 A 
ATOM     13  C   UNL     1       0.646  -3.069  -0.136  0.00  0.00    +0.143 A 
ATOM     14  C   UNL     1       0.577  -2.458   1.105  0.00  0.00    +0.067 A 
ATOM     15  C   UNL     1      -0.123  -1.274   1.256  0.00  0.00    +0.047 A 
ATOM     16 CL   UNL     1      -0.202  -0.507   2.811  0.00  0.00    -0.083 Cl
BRANCH  13  17
ATOM     17  O   UNL     1       1.337  -4.230  -0.286  0.00  0.00    -0.493 OA
ATOM     18  C   UNL     1       1.970  -4.764   0.878  0.00  0.00    +0.277 C 
ENDBRANCH  13  17
ENDBRANCH   5  12
ENDBRANCH   1   6
BRANCH   3  19
ATOM     19  C   UNL     1      -0.358  -2.963  -7.363  0.00  0.00    +0.089 C 
BRANCH  19  20
ATOM     20  C   UNL     1      -0.418  -1.903  -8.465  0.00  0.00    -0.054 C 
ATOM     21  C   UNL     1      -0.338  -2.585  -9.832  0.00  0.00    -0.012 C 
BRANCH  20  22
ATOM     22  N   UNL     1       0.711  -0.975  -8.314  0.00  0.00    +0.383 N 
ATOM     23  C   UNL     1       0.575   0.120  -9.281  0.00  0.00    -0.078 C 
ATOM     24  C   UNL     1       1.704   1.132  -9.074  0.00  0.00    -0.018 C 
ATOM     25  C   UNL     1       3.052   0.433  -9.277  0.00  0.00    -0.001 C 
ATOM     26  C   UNL     1       3.151  -0.753  -8.314  0.00  0.00    -0.031 C 
ATOM     27  C   UNL     1       1.969  -1.695  -8.549  0.00  0.00    -0.075 C 
ATOM     28  C   UNL     1       4.461  -1.504  -8.561  0.00  0.00    +0.005 C 
ATOM     29  H   UNL     1       0.711  -0.597  -7.378  0.00  0.00    -0.081 HD
ENDBRANCH  20  22
ENDBRANCH  19  20
ENDBRANCH   3  19
TORSDOF 6
