REMARK  Name = ZINC05792600
REMARK  4 active torsions:
REMARK  status: ('A' for Active; 'I' for Inactive)
REMARK    1  A    between atoms: C_1  and  C_2
REMARK    2  A    between atoms: C_3  and  C_7
REMARK    3  A    between atoms: N_9  and  N_10
REMARK    4  A    between atoms: C_11  and  C_12
REMARK                            x       y       z     vdW  Elec       q    Type
REMARK                         _______ _______ _______ _____ _____    ______ ____
ROOT
ATOM      1  C   UNL     1       5.931   3.380  -0.034  0.00  0.00    +0.273 C 
ATOM      2  O   UNL     1       5.953   2.164  -0.041  0.00  0.00    -0.268 OA
ATOM      3  N   UNL     1       4.752   4.033  -0.020  0.00  0.00    -0.202 N 
ATOM      4  H   UNL     1       4.734   5.003  -0.015  0.00  0.00    +0.178 HD
ENDROOT
BRANCH   1   7
ATOM      5  C   UNL     1       8.879   2.226  -0.066  0.00  0.00    +0.069 C 
ATOM      6  C   UNL     1       8.507   3.687  -0.056  0.00  0.00    +0.081 A 
ATOM      7  C   UNL     1       7.191   4.139  -0.042  0.00  0.00    +0.118 A 
ATOM      8  S   UNL     1       7.469   5.901  -0.043  0.00  0.00    +0.042 S 
ATOM      9  N   UNL     1       9.049   5.892  -0.050  0.00  0.00    -0.110 NA
ATOM     10  N   UNL     1       9.391   4.655  -0.059  0.00  0.00    -0.146 NA
ENDBRANCH   1   7
BRANCH   3  11
ATOM     11  N   UNL     1       3.551   3.311  -0.013  0.00  0.00    -0.187 NA
ATOM     12  C   UNL     1       2.416   3.939   0.000  0.00  0.00    +0.139 C 
BRANCH  12  13
ATOM     13  C   UNL     1       1.153   3.179   0.008  0.00  0.00    +0.013 A 
ATOM     14  C   UNL     1      -0.071   3.852   0.022  0.00  0.00    +0.012 A 
ATOM     15  C   UNL     1      -1.249   3.135   0.030  0.00  0.00    +0.021 A 
ATOM     16  C   UNL     1      -1.222   1.750   0.017  0.00  0.00    +0.042 A 
ATOM     17  C   UNL     1      -0.013   1.076   0.008  0.00  0.00    +0.040 A 
ATOM     18  C   UNL     1       1.174   1.781   0.000  0.00  0.00    +0.051 A 
ATOM     19 CL   UNL     1       2.690   0.934  -0.018  0.00  0.00    -0.083 Cl
ATOM     20 CL   UNL     1      -2.710   0.856   0.019  0.00  0.00    -0.083 Cl
ENDBRANCH  12  13
ENDBRANCH   3  11
TORSDOF 3
