REMARK  Name = ZINC36544460
REMARK  6 active torsions:
REMARK  status: ('A' for Active; 'I' for Inactive)
REMARK    1  A    between atoms: C_5  and  N_7
REMARK    2  A    between atoms: N_7  and  C_10
REMARK    3  A    between atoms: C_10  and  C_12
REMARK    4  A    between atoms: C_10  and  C_22
REMARK    5  A    between atoms: C_14  and  N_19
REMARK    6  A    between atoms: N_24  and  C_25
REMARK                            x       y       z     vdW  Elec       q    Type
REMARK                         _______ _______ _______ _____ _____    ______ ____
ROOT
ATOM      1  C   UNL     1       1.373  -2.880   1.163  0.00  0.00    +0.198 C 
ENDROOT
BRANCH   1   2
ATOM      2  C   UNL     1       0.242  -3.876   1.201  0.00  0.00    +0.003 A 
ATOM      3  C   UNL     1       0.458  -5.182   0.802  0.00  0.00    +0.040 A 
ATOM      4  C   UNL     1      -0.579  -6.095   0.837  0.00  0.00    +0.127 A 
ATOM      5  C   UNL     1      -1.832  -5.703   1.270  0.00  0.00    +0.034 A 
ATOM      6  C   UNL     1      -2.049  -4.398   1.670  0.00  0.00    +0.022 A 
ATOM      7  C   UNL     1      -1.009  -3.485   1.641  0.00  0.00    +0.047 A 
ATOM      8 CL   UNL     1      -1.278  -1.847   2.149  0.00  0.00    -0.083 Cl
BRANCH   4   9
ATOM      9  N   UNL     1      -0.349  -7.493   0.409  0.00  0.00    +0.056 N 
ATOM     10  O   UNL     1       0.747  -7.836   0.030  0.00  0.00    -0.126 OA
ATOM     11  O   UNL     1      -1.255  -8.292   0.440  0.00  0.00    -0.126 OA
ENDBRANCH   4   9
ENDBRANCH   1   2
BRANCH   1  12
ATOM     12  C   UNL     1       2.687  -3.615   1.098  0.00  0.00    +0.239 C 
ATOM     13  O   UNL     1       3.433  -3.442   0.157  0.00  0.00    -0.273 OA
ATOM     14  N   UNL     1       3.034  -4.464   2.086  0.00  0.00    -0.311 N 
ATOM     15  H   UNL     1       2.438  -4.602   2.839  0.00  0.00    +0.149 HD
BRANCH  14  16
ATOM     16  C   UNL     1       4.312  -5.178   2.023  0.00  0.00    +0.073 C 
ATOM     17  C   UNL     1       4.145  -6.449   1.188  0.00  0.00    +0.022 C 
ATOM     18  C   UNL     1       5.479  -7.195   1.123  0.00  0.00    +0.002 C 
ATOM     19  C   UNL     1       5.925  -7.569   2.538  0.00  0.00    +0.000 C 
ATOM     20  C   UNL     1       6.092  -6.297   3.373  0.00  0.00    +0.002 C 
ATOM     21  C   UNL     1       4.758  -5.551   3.438  0.00  0.00    +0.022 C 
ENDBRANCH  14  16
ENDBRANCH   1  12
BRANCH   1  22
ATOM     22  N   UNL     1       1.232  -2.026  -0.019  0.00  0.00    -0.256 N 
ATOM     23  C   UNL     1       1.214  -2.577  -1.249  0.00  0.00    +0.333 C 
ATOM     24  O   UNL     1       1.217  -3.783  -1.374  0.00  0.00    -0.279 OA
BRANCH  22  29
ATOM     25  C   UNL     1      -0.247   1.328   0.270  0.00  0.00    +0.002 A 
ATOM     26  C   UNL     1       0.888   2.103   0.421  0.00  0.00    +0.002 A 
ATOM     27  C   UNL     1       2.138   1.512   0.426  0.00  0.00    +0.022 A 
ATOM     28  C   UNL     1       2.256   0.142   0.281  0.00  0.00    +0.062 A 
ATOM     29  C   UNL     1       1.117  -0.639   0.129  0.00  0.00    +0.055 A 
ATOM     30  C   UNL     1      -0.136  -0.041   0.124  0.00  0.00    +0.025 A 
ATOM     31 CL   UNL     1       3.825  -0.601   0.287  0.00  0.00    -0.082 Cl
ENDBRANCH  22  29
ENDBRANCH   1  22
TORSDOF 6
