REMARK  Name = ZINC01252796
REMARK  8 active torsions:
REMARK  status: ('A' for Active; 'I' for Inactive)
REMARK    1  A    between atoms: C_1  and  C_2
REMARK    2  A    between atoms: C_5  and  N_8
REMARK    3  A    between atoms: C_17  and  S_18
REMARK    4  A    between atoms: S_18  and  C_19
REMARK    5  A    between atoms: C_19  and  C_20
REMARK    6  A    between atoms: C_25  and  C_28
REMARK    7  A    between atoms: C_28  and  C_29
REMARK    8  A    between atoms: C_28  and  C_30
REMARK                            x       y       z     vdW  Elec       q    Type
REMARK                         _______ _______ _______ _____ _____    ______ ____
ROOT
ATOM      1  N   UNL     1       1.161   3.487   0.009  0.00  0.00    -0.255 N 
ATOM      2  C   UNL     1       2.322   4.160   0.110  0.00  0.00    +0.268 A 
ATOM      3  O   UNL     1       3.379   3.558   0.193  0.00  0.00    -0.267 OA
ATOM      4  C   UNL     1       2.301   5.590   0.111  0.00  0.00    +0.076 A 
ATOM      5  C   UNL     1       3.427   6.516   0.204  0.00  0.00    -0.018 A 
ATOM      6  C   UNL     1       3.142   7.836   0.190  0.00  0.00    +0.021 A 
ATOM      7  S   UNL     1       1.379   7.923   0.055  0.00  0.00    -0.071 S 
ATOM      8  C   UNL     1       1.029   6.183   0.016  0.00  0.00    +0.117 A 
ATOM      9  N   UNL     1      -0.082   5.462  -0.075  0.00  0.00    -0.215 NA
ATOM     10  C   UNL     1      -0.034   4.145  -0.080  0.00  0.00    +0.178 A 
ATOM     11  C   UNL     1       4.131   8.958   0.272  0.00  0.00    +0.203 C 
ATOM     12  O   UNL     1       5.439   8.409   0.046  0.00  0.00    -0.371 OA
ATOM     13  C   UNL     1       5.710   7.242   0.827  0.00  0.00    +0.126 C 
ATOM     14  C   UNL     1       4.880   6.061   0.315  0.00  0.00    +0.068 C 
ENDROOT
BRANCH   1  19
ATOM     15  C   UNL     1       1.225  -2.187  -0.020  0.00  0.00    +0.044 C 
ATOM     16  C   UNL     1       1.208  -0.680  -0.012  0.00  0.00    -0.050 A 
ATOM     17  C   UNL     1       1.296   0.017  -1.203  0.00  0.00    +0.005 A 
ATOM     18  C   UNL     1       1.280   1.398  -1.199  0.00  0.00    +0.026 A 
ATOM     19  C   UNL     1       1.177   2.086   0.002  0.00  0.00    +0.052 A 
ATOM     20  C   UNL     1       1.089   1.383   1.196  0.00  0.00    +0.026 A 
ATOM     21  C   UNL     1       1.105   0.002   1.186  0.00  0.00    +0.005 A 
ENDBRANCH   1  19
BRANCH  13  22
ATOM     22  C   UNL     1       7.198   6.898   0.726  0.00  0.00    +0.012 C 
ATOM     23  C   UNL     1       8.029   8.070   1.253  0.00  0.00    +0.010 C 
ATOM     24  C   UNL     1       7.490   5.649   1.560  0.00  0.00    +0.010 C 
ENDBRANCH  13  22
BRANCH  10  25
ATOM     25  S   UNL     1      -1.528   3.220  -0.204  0.00  0.00    -0.078 S 
BRANCH  25  26
ATOM     26  C   UNL     1      -2.728   4.572  -0.289  0.00  0.00    +0.172 C 
BRANCH  26  27
ATOM     27  C   UNL     1      -4.119   4.003  -0.402  0.00  0.00    +0.221 C 
ATOM     28  O   UNL     1      -4.283   2.802  -0.423  0.00  0.00    -0.275 OA
ATOM     29  N   UNL     1      -5.181   4.830  -0.480  0.00  0.00    -0.329 N 
ATOM     30  H   UNL     1      -5.050   5.791  -0.463  0.00  0.00    +0.145 HD
ATOM     31  H   UNL     1      -6.076   4.463  -0.552  0.00  0.00    +0.145 HD
ENDBRANCH  26  27
ENDBRANCH  25  26
ENDBRANCH  10  25
TORSDOF 5
