REMARK  Name = ZINC35492872
REMARK  6 active torsions:
REMARK  status: ('A' for Active; 'I' for Inactive)
REMARK    1  A    between atoms: C_2  and  C_3
REMARK    2  A    between atoms: C_3  and  N_4
REMARK    3  A    between atoms: C_7  and  C_12
REMARK    4  A    between atoms: N_21  and  C_23
REMARK    5  A    between atoms: N_26  and  C_29
REMARK    6  A    between atoms: C_29  and  C_30
REMARK                            x       y       z     vdW  Elec       q    Type
REMARK                         _______ _______ _______ _____ _____    ______ ____
ROOT
ATOM      1  N   UNL     1      -1.318  -1.700  -1.126  0.00  0.00    -0.253 N 
ATOM      2  C   UNL     1      -1.835  -1.255  -2.309  0.00  0.00    +0.043 C 
ATOM      3  C   UNL     1      -1.887  -2.054  -3.394  0.00  0.00    +0.058 C 
ATOM      4  C   UNL     1      -1.352  -3.465  -3.256  0.00  0.00    +0.142 C 
ATOM      5  N   UNL     1      -0.816  -3.849  -1.939  0.00  0.00    -0.288 N 
ATOM      6  C   UNL     1      -0.827  -2.933  -0.949  0.00  0.00    +0.307 C 
ATOM      7  O   UNL     1      -0.383  -3.239   0.140  0.00  0.00    -0.252 OA
ATOM      8  C   UNL     1      -2.460  -1.366  -4.483  0.00  0.00    +0.247 C 
ATOM      9  O   UNL     1      -2.631  -1.847  -5.588  0.00  0.00    -0.270 OA
ATOM     10  N   UNL     1      -2.795  -0.109  -4.141  0.00  0.00    -0.289 N 
ATOM     11  C   UNL     1      -2.427   0.072  -2.729  0.00  0.00    +0.159 C 
ATOM     12  H   UNL     1      -0.459  -4.738  -1.788  0.00  0.00    +0.151 HD
ENDROOT
BRANCH   4  13
ATOM     13  C   UNL     1      -0.257  -3.649  -4.274  0.00  0.00    -0.021 A 
ATOM     14  C   UNL     1       1.013  -3.164  -4.018  0.00  0.00    +0.006 A 
ATOM     15  C   UNL     1       2.018  -3.332  -4.952  0.00  0.00    +0.002 A 
ATOM     16  C   UNL     1       1.755  -3.984  -6.142  0.00  0.00    +0.020 A 
ATOM     17  C   UNL     1       0.485  -4.469  -6.399  0.00  0.00    +0.041 A 
ATOM     18  C   UNL     1      -0.520  -4.306  -5.461  0.00  0.00    +0.025 A 
ATOM     19 CL   UNL     1       0.153  -5.288  -7.893  0.00  0.00    -0.084 Cl
ENDBRANCH   4  13
BRANCH  10  20
ATOM     20  C   UNL     1      -3.412   0.894  -5.014  0.00  0.00    +0.073 C 
ATOM     21  C   UNL     1      -2.499   1.159  -6.214  0.00  0.00    +0.004 C 
ATOM     22  C   UNL     1      -3.185   2.146  -7.161  0.00  0.00    -0.077 C 
ATOM     23  N   UNL     1      -4.457   1.581  -7.627  0.00  0.00    +0.382 N 
ATOM     24  C   UNL     1      -5.364   1.391  -6.489  0.00  0.00    -0.077 C 
ATOM     25  C   UNL     1      -4.762   0.374  -5.516  0.00  0.00    +0.004 C 
ATOM     26  H   UNL     1      -4.285   0.691  -8.071  0.00  0.00    -0.081 HD
BRANCH  23  27
ATOM     27  C   UNL     1      -5.073   2.498  -8.595  0.00  0.00    -0.043 C 
BRANCH  27  28
ATOM     28  C   UNL     1      -6.316   1.864  -9.165  0.00  0.00    -0.064 A 
ATOM     29  C   UNL     1      -6.233   1.081 -10.302  0.00  0.00    +0.002 A 
ATOM     30  C   UNL     1      -7.373   0.500 -10.825  0.00  0.00    +0.000 A 
ATOM     31  C   UNL     1      -8.595   0.702 -10.212  0.00  0.00    +0.000 A 
ATOM     32  C   UNL     1      -8.678   1.484  -9.076  0.00  0.00    +0.000 A 
ATOM     33  C   UNL     1      -7.538   2.062  -8.550  0.00  0.00    +0.002 A 
ENDBRANCH  27  28
ENDBRANCH  23  27
ENDBRANCH  10  20
BRANCH   1  34
ATOM     34  C   UNL     1      -1.293  -0.775   0.010  0.00  0.00    +0.141 C 
BRANCH  34  36
ATOM     35  C   UNL     1      -0.016   1.306   0.009  0.00  0.00    +0.005 C 
ATOM     36  C   UNL     1       0.002  -0.004   0.002  0.00  0.00    -0.015 C 
ENDBRANCH  34  36
ENDBRANCH   1  34
TORSDOF 6
