REMARK  Name = ZINC37131366
REMARK  5 active torsions:
REMARK  status: ('A' for Active; 'I' for Inactive)
REMARK    1  A    between atoms: C_1  and  N_2
REMARK    2  A    between atoms: C_3  and  C_7
REMARK    3  A    between atoms: C_7  and  N_8
REMARK    4  A    between atoms: N_8  and  C_9
REMARK    5  A    between atoms: C_12  and  N_16
REMARK                            x       y       z     vdW  Elec       q    Type
REMARK                         _______ _______ _______ _____ _____    ______ ____
ROOT
ATOM      1  C   UNL     1      -1.654   0.370  -4.243  0.00  0.00    +0.042 A 
ATOM      2  C   UNL     1      -0.611   0.574  -5.137  0.00  0.00    +0.026 A 
ATOM      3  C   UNL     1      -0.878   1.013  -6.419  0.00  0.00    +0.034 A 
ATOM      4  C   UNL     1      -2.182   1.252  -6.812  0.00  0.00    +0.127 A 
ATOM      5  C   UNL     1      -3.223   1.051  -5.925  0.00  0.00    +0.049 A 
ATOM      6  C   UNL     1      -2.963   0.605  -4.643  0.00  0.00    +0.041 A 
ATOM      7 BR   UNL     1      -4.388   0.323  -3.432  0.00  0.00    -0.048 Br
ENDROOT
BRANCH   4   8
ATOM      8  N   UNL     1      -2.464   1.724  -8.187  0.00  0.00    +0.056 N 
ATOM      9  O   UNL     1      -1.554   1.901  -8.963  0.00  0.00    -0.126 OA
ATOM     10  O   UNL     1      -3.603   1.933  -8.532  0.00  0.00    -0.126 OA
ENDBRANCH   4   8
BRANCH   1  11
ATOM     11  N   UNL     1      -1.387  -0.075  -2.946  0.00  0.00    -0.337 N 
ATOM     12  H   UNL     1      -2.117  -0.221  -2.323  0.00  0.00    +0.146 HD
BRANCH  11  13
ATOM     13  C   UNL     1      -0.005  -0.323  -2.526  0.00  0.00    +0.156 C 
BRANCH  13  16
ATOM     14  C   UNL     1      -0.018   1.461   0.010  0.00  0.00    +0.172 C 
ATOM     15  N   UNL     1       0.002  -0.004   0.002  0.00  0.00    -0.270 N 
ATOM     16  C   UNL     1       0.008  -0.792  -1.094  0.00  0.00    +0.056 A 
ATOM     17  C   UNL     1       0.027  -2.079  -0.676  0.00  0.00    +0.046 A 
ATOM     18  C   UNL     1       0.034  -2.078   0.723  0.00  0.00    +0.134 A 
ATOM     19  N   UNL     1       0.025  -0.834   1.130  0.00  0.00    -0.180 NA
ENDBRANCH  13  16
ENDBRANCH  11  13
ENDBRANCH   1  11
TORSDOF 4
