REMARK  Name = ZINC19852440
REMARK  9 active torsions:
REMARK  status: ('A' for Active; 'I' for Inactive)
REMARK    1  A    between atoms: C_1  and  O_2
REMARK    2  A    between atoms: O_2  and  C_3
REMARK    3  A    between atoms: C_6  and  O_28
REMARK    4  A    between atoms: C_7  and  C_9
REMARK    5  A    between atoms: C_18  and  C_26
REMARK    6  A    between atoms: C_19  and  N_25
REMARK    7  A    between atoms: C_20  and  C_21
REMARK    8  A    between atoms: C_20  and  C_23
REMARK    9  A    between atoms: O_28  and  C_29
REMARK                            x       y       z     vdW  Elec       q    Type
REMARK                         _______ _______ _______ _____ _____    ______ ____
ROOT
ATOM      1  C   UNL     1       1.788   2.529  -1.392  0.00  0.00    +0.071 C 
ATOM      2  C   UNL     1       1.407   2.106   0.027  0.00  0.00    +0.044 C 
ATOM      3  C   UNL     1       0.005   1.546   0.099  0.00  0.00    +0.090 C 
ATOM      4  N   UNL     1      -0.002   0.081   0.142  0.00  0.00    -0.312 NA
ATOM      5  C   UNL     1       0.748  -0.397   1.318  0.00  0.00    +0.108 C 
ATOM      6  C   UNL     1       2.184   0.032   1.147  0.00  0.00    -0.007 C 
ATOM      7  C   UNL     1       2.465   1.167   0.533  0.00  0.00    -0.026 C 
ATOM      8  C   UNL     1       3.878   1.561   0.312  0.00  0.00    +0.074 C 
ATOM      9  C   UNL     1       4.159   2.549  -0.576  0.00  0.00    +0.054 C 
ATOM     10  C   UNL     1       3.110   3.296  -1.342  0.00  0.00    +0.188 C 
ATOM     11  H   UNL     1      -1.039  -0.279   0.205  0.00  0.00    +0.122 HD
ENDROOT
BRANCH   1  16
ATOM     12  C   UNL     1      -0.719   5.331  -1.774  0.00  0.00    +0.121 A 
ATOM     13  C   UNL     1      -1.269   5.045  -3.015  0.00  0.00    +0.049 A 
ATOM     14  C   UNL     1      -0.829   3.946  -3.728  0.00  0.00    +0.049 A 
ATOM     15  C   UNL     1       0.165   3.133  -3.205  0.00  0.00    +0.124 A 
ATOM     16  C   UNL     1       0.711   3.416  -1.962  0.00  0.00    +0.004 A 
ATOM     17  C   UNL     1       0.271   4.515  -1.249  0.00  0.00    +0.053 A 
BRANCH  12  19
ATOM     18  C   UNL     1      -2.174   7.210  -1.673  0.00  0.00    +0.277 C 
ATOM     19  O   UNL     1      -1.152   6.413  -1.072  0.00  0.00    -0.495 OA
ENDBRANCH  12  19
BRANCH  15  20
ATOM     20  O   UNL     1       0.602   2.055  -3.910  0.00  0.00    -0.495 OA
ATOM     21  C   UNL     1      -0.004   1.823  -5.183  0.00  0.00    +0.277 C 
ENDBRANCH  15  20
ENDBRANCH   1  16
BRANCH   9  22
ATOM     22  N   UNL     1       5.468   2.880  -0.783  0.00  0.00    -0.358 N 
ATOM     23  H   UNL     1       5.729   3.676  -1.496  0.00  0.00    +0.142 HD
ATOM     24  H   UNL     1       6.263   2.350  -0.236  0.00  0.00    +0.142 HD
ENDBRANCH   9  22
BRANCH  10  25
ATOM     25  C   UNL     1       2.883   4.601  -0.699  0.00  0.00    +0.091 C 
ATOM     26  N   UNL     1       2.709   5.607  -0.202  0.00  0.00    -0.194 NA
ENDBRANCH  10  25
BRANCH  10  27
ATOM     27  C   UNL     1       3.586   3.517  -2.717  0.00  0.00    +0.091 C 
ATOM     28  N   UNL     1       3.954   3.687  -3.779  0.00  0.00    -0.194 NA
ENDBRANCH  10  27
BRANCH   8  29
ATOM     29  C   UNL     1       4.934   0.908   1.027  0.00  0.00    +0.101 C 
ATOM     30  N   UNL     1       5.771   0.391   1.595  0.00  0.00    -0.191 NA
ENDBRANCH   8  29
TORSDOF 7
