REMARK  Name = ZINC21660324
REMARK  3 active torsions:
REMARK  status: ('A' for Active; 'I' for Inactive)
REMARK    1  A    between atoms: C_1  and  C_2
REMARK    2  A    between atoms: C_10  and  C_12
REMARK    3  A    between atoms: C_21  and  C_24
REMARK                            x       y       z     vdW  Elec       q    Type
REMARK                         _______ _______ _______ _____ _____    ______ ____
ROOT
ATOM      1  C   UNL     1       6.908   2.582   1.455  0.00  0.00    +0.069 C 
ATOM      2  C   UNL     1       6.066   1.373   1.774  0.00  0.00    +0.087 A 
ATOM      3  C   UNL     1       4.775   1.111   1.325  0.00  0.00    +0.049 A 
ATOM      4  C   UNL     1       4.454  -0.097   1.889  0.00  0.00    +0.226 A 
ATOM      5  O   UNL     1       5.513  -0.470   2.599  0.00  0.00    -0.339 OA
ATOM      6  N   UNL     1       6.402   0.357   2.529  0.00  0.00    -0.081 NA
ATOM      7  N   UNL     1       3.225  -0.684   1.667  0.00  0.00    -0.286 N 
ATOM      8  C   UNL     1       2.220   0.080   1.123  0.00  0.00    +0.019 C 
ATOM      9  C   UNL     1       2.451   1.277   0.543  0.00  0.00    +0.024 C 
ATOM     10  C   UNL     1       3.841   1.872   0.439  0.00  0.00    +0.091 C 
ATOM     11  C   UNL     1       1.397   2.034  -0.000  0.00  0.00    +0.162 C 
ATOM     12  O   UNL     1       1.636   3.120  -0.490  0.00  0.00    -0.292 OA
ATOM     13  C   UNL     1      -0.019   1.528   0.010  0.00  0.00    +0.088 C 
ATOM     14  C   UNL     1       0.002  -0.004   0.002  0.00  0.00    +0.032 C 
ATOM     15  C   UNL     1       0.818  -0.480   1.205  0.00  0.00    +0.059 C 
ATOM     16  H   UNL     1       3.067  -1.742   1.925  0.00  0.00    +0.155 HD
ENDROOT
BRANCH  10  17
ATOM     17  C   UNL     1       4.319   1.786  -0.987  0.00  0.00    -0.035 A 
ATOM     18  C   UNL     1       4.442   0.554  -1.602  0.00  0.00    +0.004 A 
ATOM     19  C   UNL     1       4.877   0.475  -2.912  0.00  0.00    +0.000 A 
ATOM     20  C   UNL     1       5.197   1.628  -3.604  0.00  0.00    +0.000 A 
ATOM     21  C   UNL     1       5.079   2.860  -2.988  0.00  0.00    +0.000 A 
ATOM     22  C   UNL     1       4.641   2.939  -1.679  0.00  0.00    +0.004 A 
ENDBRANCH  10  17
BRANCH  14  23
ATOM     23  C   UNL     1      -1.406  -0.532   0.102  0.00  0.00    -0.044 A 
ATOM     24  C   UNL     1      -2.184  -0.222   1.202  0.00  0.00    +0.004 A 
ATOM     25  C   UNL     1      -3.477  -0.703   1.292  0.00  0.00    +0.000 A 
ATOM     26  C   UNL     1      -3.989  -1.500   0.285  0.00  0.00    +0.000 A 
ATOM     27  C   UNL     1      -3.210  -1.814  -0.812  0.00  0.00    +0.000 A 
ATOM     28  C   UNL     1      -1.918  -1.330  -0.904  0.00  0.00    +0.004 A 
ENDBRANCH  14  23
TORSDOF 2
