REMARK  Name = ZINC12813164
REMARK  6 active torsions:
REMARK  status: ('A' for Active; 'I' for Inactive)
REMARK    1  A    between atoms: C_1  and  N_2
REMARK    2  A    between atoms: N_2  and  C_3
REMARK    3  A    between atoms: C_4  and  C_6
REMARK    4  A    between atoms: C_11  and  N_12
REMARK    5  A    between atoms: C_11  and  N_46
REMARK    6  A    between atoms: C_16  and  C_18
REMARK                            x       y       z     vdW  Elec       q    Type
REMARK                         _______ _______ _______ _____ _____    ______ ____
ROOT
ATOM      1  N   UNL     1      -3.166  -1.758   0.025  0.00  0.00    -0.240 N 
ATOM      2  C   UNL     1      -2.299  -2.793   0.011  0.00  0.00    +0.265 A 
ATOM      3  S   UNL     1      -2.708  -4.456   0.009  0.00  0.00    +0.011 S 
ATOM      4  O   UNL     1      -1.057  -2.280   0.001  0.00  0.00    -0.411 OA
ATOM      5  C   UNL     1      -1.141  -0.932   0.008  0.00  0.00    +0.255 A 
ATOM      6  N   UNL     1      -2.398  -0.584   0.028  0.00  0.00    -0.130 NA
ENDROOT
BRANCH   5   7
ATOM      7  C   UNL     1       0.002  -0.004   0.002  0.00  0.00    +0.095 A 
ATOM      8  C   UNL     1       1.327  -0.301  -0.012  0.00  0.00    +0.068 A 
ATOM      9  C   UNL     1       2.292   0.784  -0.016  0.00  0.00    +0.008 A 
ATOM     10  C   UNL     1       3.707   0.710  -0.029  0.00  0.00    +0.010 A 
ATOM     11  C   UNL     1       4.461   1.840  -0.030  0.00  0.00    +0.001 A 
ATOM     12  C   UNL     1       3.880   3.101  -0.018  0.00  0.00    +0.001 A 
ATOM     13  C   UNL     1       2.505   3.217  -0.004  0.00  0.00    +0.016 A 
ATOM     14  C   UNL     1       1.726   2.079  -0.003  0.00  0.00    +0.021 A 
ATOM     15  S   UNL     1      -0.022   1.778   0.012  0.00  0.00    -0.082 S 
ATOM     16 CL   UNL     1       1.859  -1.954  -0.026  0.00  0.00    -0.082 Cl
ENDBRANCH   5   7
BRANCH   1  17
ATOM     17  C   UNL     1      -4.628  -1.845   0.039  0.00  0.00    +0.074 C 
BRANCH  17  22
ATOM     18  C   UNL     1      -4.330  -2.862   2.231  0.00  0.00    +0.022 C 
ATOM     19  C   UNL     1      -4.574  -2.400   3.690  0.00  0.00    -0.008 C 
ATOM     20  C   UNL     1      -4.575  -0.859   3.568  0.00  0.00    -0.020 C 
ATOM     21  C   UNL     1      -4.901  -0.572   2.091  0.00  0.00    -0.075 C 
ATOM     22  N   UNL     1      -5.098  -1.881   1.457  0.00  0.00    +0.400 N 
ATOM     23  H   UNL     1      -6.095  -2.129   1.475  0.00  0.00    -0.078 HD
BRANCH  18  27
ATOM     24  C   UNL     1      -4.811  -6.654   2.453  0.00  0.00    +0.131 C 
ATOM     25  N   UNL     1      -4.294  -5.298   2.659  0.00  0.00    -0.309 N 
ATOM     26  C   UNL     1      -3.162  -5.075   3.562  0.00  0.00    +0.131 C 
ATOM     27  C   UNL     1      -4.861  -4.257   2.019  0.00  0.00    +0.202 C 
ATOM     28  O   UNL     1      -5.798  -4.441   1.272  0.00  0.00    -0.277 OA
ENDBRANCH  18  27
ENDBRANCH  17  22
ENDBRANCH   1  17
TORSDOF 4
