REMARK  Name = ZINC31735878
REMARK  8 active torsions:
REMARK  status: ('A' for Active; 'I' for Inactive)
REMARK    1  A    between atoms: C_1  and  C_2
REMARK    2  A    between atoms: C_2  and  C_4
REMARK    3  A    between atoms: C_2  and  N_15
REMARK    4  A    between atoms: C_16  and  C_18
REMARK    5  A    between atoms: C_20  and  O_27
REMARK    6  A    between atoms: C_22  and  O_24
REMARK    7  A    between atoms: O_24  and  C_25
REMARK    8  A    between atoms: O_27  and  C_28
REMARK                            x       y       z     vdW  Elec       q    Type
REMARK                         _______ _______ _______ _____ _____    ______ ____
ROOT
ATOM      1  N   UNL     1       6.207   0.108  -3.459  0.00  0.00    -0.305 N 
ATOM      2  C   UNL     1       7.267  -0.636  -3.832  0.00  0.00    +0.245 C 
ATOM      3  O   UNL     1       7.096  -1.717  -4.360  0.00  0.00    -0.270 OA
ATOM      4  H   UNL     1       6.362   1.087  -2.981  0.00  0.00    +0.150 HD
ENDROOT
BRANCH   2   5
ATOM      5  C   UNL     1       8.639  -0.137  -3.597  0.00  0.00    +0.044 A 
ATOM      6  C   UNL     1       8.838   1.106  -2.995  0.00  0.00    +0.060 A 
ATOM      7  C   UNL     1      10.125   1.567  -2.773  0.00  0.00    +0.138 A 
ATOM      8  C   UNL     1      11.215   0.800  -3.157  0.00  0.00    +0.101 A 
ATOM      9  C   UNL     1      11.021  -0.435  -3.760  0.00  0.00    +0.138 A 
ATOM     10  C   UNL     1       9.738  -0.906  -3.981  0.00  0.00    +0.060 A 
ATOM     11 BR   UNL     1      12.970   1.438  -2.858  0.00  0.00    -0.043 Br
BRANCH   9  12
ATOM     12  O   UNL     1      12.093  -1.184  -4.135  0.00  0.00    -0.494 OA
ATOM     13  C   UNL     1      11.820  -2.444  -4.750  0.00  0.00    +0.277 C 
ENDBRANCH   9  12
BRANCH   7  14
ATOM     14  O   UNL     1      10.320   2.776  -2.182  0.00  0.00    -0.494 OA
ATOM     15  C   UNL     1       9.153   3.513  -1.812  0.00  0.00    +0.277 C 
ENDBRANCH   7  14
ENDBRANCH   2   5
BRANCH   1  17
ATOM     16  C   UNL     1       4.412  -0.030  -5.115  0.00  0.00    +0.033 C 
ATOM     17  C   UNL     1       4.848  -0.386  -3.692  0.00  0.00    +0.100 C 
BRANCH  17  18
ATOM     18  C   UNL     1       3.905   0.252  -2.704  0.00  0.00    -0.025 A 
ATOM     19  C   UNL     1       4.049   1.588  -2.378  0.00  0.00    +0.009 A 
ATOM     20  C   UNL     1       3.188   2.181  -1.472  0.00  0.00    +0.048 A 
ATOM     21  C   UNL     1       2.179   1.435  -0.891  0.00  0.00    +0.142 A 
ATOM     22  C   UNL     1       2.034   0.088  -1.219  0.00  0.00    +0.076 A 
ATOM     23  C   UNL     1       2.899  -0.500  -2.126  0.00  0.00    +0.032 A 
ATOM     24  N   UNL     1       1.007  -0.657  -0.621  0.00  0.00    -0.280 N 
ATOM     25  C   UNL     1       0.002  -0.004   0.002  0.00  0.00    +0.255 C 
ATOM     26  O   UNL     1      -0.881  -0.628   0.552  0.00  0.00    -0.272 OA
ATOM     27  C   UNL     1      -0.018   1.503   0.010  0.00  0.00    +0.325 C 
ATOM     28  O   UNL     1       1.322   2.002   0.000  0.00  0.00    -0.481 OA
ATOM     29  H   UNL     1       1.028  -1.756  -0.664  0.00  0.00    +0.155 HD
ENDBRANCH  17  18
ENDBRANCH   1  17
TORSDOF 5
