REMARK  Name = ZINC08710512
REMARK  5 active torsions:
REMARK  status: ('A' for Active; 'I' for Inactive)
REMARK    1  A    between atoms: C_1  and  C_2
REMARK    2  A    between atoms: C_8  and  C_10
REMARK    3  A    between atoms: C_10  and  C_12
REMARK    4  A    between atoms: C_10  and  S_13
REMARK    5  A    between atoms: S_13  and  C_14
REMARK                            x       y       z     vdW  Elec       q    Type
REMARK                         _______ _______ _______ _____ _____    ______ ____
ROOT
ATOM      1  S   UNL     1       4.521   2.243  -0.028  0.00  0.00    -0.073 S 
ENDROOT
BRANCH   1   2
ATOM      2  C   UNL     1       3.702   3.803  -0.013  0.00  0.00    +0.198 A 
ATOM      3  N   UNL     1       4.288   4.972  -0.012  0.00  0.00    -0.121 NA
ATOM      4  N   UNL     1       3.291   5.957   0.003  0.00  0.00    -0.121 NA
ATOM      5  C   UNL     1       2.142   5.351   0.010  0.00  0.00    +0.202 A 
ATOM      6  N   UNL     1       2.329   3.994   0.001  0.00  0.00    -0.264 N 
ATOM      7  C   UNL     1       1.192   3.171   0.008  0.00  0.00    +0.065 A 
ATOM      8  C   UNL     1       1.176   1.766   0.000  0.00  0.00    +0.027 A 
ATOM      9  C   UNL     1      -0.013   1.076   0.008  0.00  0.00    +0.002 A 
ATOM     10  C   UNL     1      -1.228   1.739   0.017  0.00  0.00    +0.001 A 
ATOM     11  C   UNL     1      -1.242   3.122   0.030  0.00  0.00    +0.017 A 
ATOM     12  C   UNL     1      -0.051   3.812   0.023  0.00  0.00    +0.040 A 
ATOM     13  S   UNL     1       0.374   5.536   0.028  0.00  0.00    -0.048 S 
ENDBRANCH   1   2
BRANCH   1  14
ATOM     14  C   UNL     1       6.284   2.674  -0.042  0.00  0.00    +0.137 C 
ATOM     15  C   UNL     1       6.622   3.393  -1.349  0.00  0.00    +0.029 C 
BRANCH  14  23
ATOM     16  C   UNL     1      12.528   1.974  -0.101  0.00  0.00    +0.007 C 
ATOM     17  C   UNL     1      11.171   1.750   0.571  0.00  0.00    -0.011 C 
ATOM     18  C   UNL     1      10.515   0.496  -0.011  0.00  0.00    +0.022 C 
ATOM     19  C   UNL     1       9.173   0.257   0.687  0.00  0.00    +0.108 C 
ATOM     20  N   UNL     1       8.357   1.473   0.574  0.00  0.00    -0.301 N 
ATOM     21  C   UNL     1       8.929   2.752   1.015  0.00  0.00    +0.108 C 
ATOM     22  C   UNL     1      10.272   2.963   0.318  0.00  0.00    +0.022 C 
ATOM     23  C   UNL     1       7.108   1.417   0.069  0.00  0.00    +0.229 C 
ATOM     24  O   UNL     1       6.649   0.356  -0.297  0.00  0.00    -0.274 OA
ENDBRANCH  14  23
ENDBRANCH   1  14
TORSDOF 3
