REMARK  Name = ZINC66542673
REMARK  12 active torsions:
REMARK  status: ('A' for Active; 'I' for Inactive)
REMARK    1  A    between atoms: C_1  and  C_2
REMARK    2  A    between atoms: C_2  and  N_3
REMARK    3  A    between atoms: N_3  and  C_4
REMARK    4  A    between atoms: N_3  and  C_6
REMARK    5  A    between atoms: C_4  and  C_5
REMARK    6  A    between atoms: N_9  and  C_12
REMARK    7  A    between atoms: C_12  and  C_14
REMARK    8  A    between atoms: C_12  and  C_15
REMARK    9  A    between atoms: N_17  and  C_18
REMARK   10  A    between atoms: C_19  and  C_28
REMARK   11  A    between atoms: C_20  and  C_27
REMARK   12  A    between atoms: C_23  and  N_24
REMARK                            x       y       z     vdW  Elec       q    Type
REMARK                         _______ _______ _______ _____ _____    ______ ____
ROOT
ATOM      1  C   UNL     1       1.948  -5.974  -4.467  0.00  0.00    +0.234 C 
ATOM      2  O   UNL     1       2.922  -5.270  -4.303  0.00  0.00    -0.274 OA
ATOM      3  N   UNL     1       1.888  -6.804  -5.528  0.00  0.00    -0.282 N 
ATOM      4  H   UNL     1       1.093  -7.338  -5.681  0.00  0.00    +0.155 HD
ENDROOT
BRANCH   3   5
ATOM      5  C   UNL     1       2.972  -6.895  -6.408  0.00  0.00    +0.067 A 
ATOM      6  C   UNL     1       3.445  -5.757  -7.048  0.00  0.00    -0.024 A 
ATOM      7  C   UNL     1       4.515  -5.850  -7.916  0.00  0.00    -0.046 A 
ATOM      8  C   UNL     1       5.116  -7.074  -8.148  0.00  0.00    +0.006 A 
ATOM      9  C   UNL     1       4.646  -8.209  -7.511  0.00  0.00    +0.035 A 
ATOM     10  C   UNL     1       3.580  -8.121  -6.638  0.00  0.00    +0.148 A 
ATOM     11  C   UNL     1       5.029  -4.616  -8.613  0.00  0.00    +0.044 C 
ATOM     12  C   UNL     1       2.791  -4.423  -6.798  0.00  0.00    +0.046 C 
BRANCH  10  13
ATOM     13  N   UNL     1       3.083  -9.335  -5.952  0.00  0.00    +0.058 N 
ATOM     14  O   UNL     1       3.668 -10.385  -6.082  0.00  0.00    -0.126 OA
ATOM     15  O   UNL     1       2.093  -9.276  -5.260  0.00  0.00    -0.126 OA
ENDBRANCH  10  13
ENDBRANCH   3   5
BRANCH   1  16
ATOM     16  C   UNL     1       0.807  -5.923  -3.485  0.00  0.00    +0.140 C 
ATOM     17  C   UNL     1      -0.254  -4.941  -3.986  0.00  0.00    +0.034 C 
BRANCH  16  21
ATOM     18  C   UNL     1       1.805  -5.640   0.664  0.00  0.00    -0.066 C 
ATOM     19  C   UNL     1       0.741  -4.707   0.079  0.00  0.00    +0.000 C 
ATOM     20  C   UNL     1       0.203  -5.307  -1.223  0.00  0.00    +0.083 C 
ATOM     21  N   UNL     1       1.306  -5.479  -2.176  0.00  0.00    -0.292 NA
ATOM     22  C   UNL     1       2.317  -6.408  -1.656  0.00  0.00    +0.083 C 
ATOM     23  C   UNL     1       2.918  -5.841  -0.368  0.00  0.00    +0.000 C 
BRANCH  18  24
ATOM     24  N   UNL     1       2.366  -5.042   1.882  0.00  0.00    +0.381 N 
ATOM     25  H   UNL     1       2.782  -4.150   1.658  0.00  0.00    -0.081 HD
BRANCH  24  27
ATOM     26  C   UNL     1       0.635  -6.194   3.175  0.00  0.00    -0.017 C 
ATOM     27  C   UNL     1       1.297  -4.849   2.870  0.00  0.00    -0.082 C 
ENDBRANCH  24  27
BRANCH  24  28
ATOM     28  C   UNL     1       3.392  -5.934   2.438  0.00  0.00    -0.082 C 
ATOM     29  C   UNL     1       4.075  -5.249   3.623  0.00  0.00    -0.017 C 
ENDBRANCH  24  28
ENDBRANCH  18  24
ENDBRANCH  16  21
ENDBRANCH   1  16
TORSDOF 7
