REMARK  Name = ZINC59056669
REMARK  6 active torsions:
REMARK  status: ('A' for Active; 'I' for Inactive)
REMARK    1  A    between atoms: C_1  and  C_2
REMARK    2  A    between atoms: C_5  and  S_8
REMARK    3  A    between atoms: S_8  and  C_11
REMARK    4  A    between atoms: N_13  and  C_14
REMARK    5  A    between atoms: C_19  and  C_20
REMARK    6  A    between atoms: N_22  and  C_24
REMARK                            x       y       z     vdW  Elec       q    Type
REMARK                         _______ _______ _______ _____ _____    ______ ____
ROOT
ATOM      1  C   UNL     1       3.785  -5.428  -1.152  0.00  0.00    +0.040 A 
ATOM      2  C   UNL     1       4.356  -5.727   0.051  0.00  0.00    +0.055 A 
ATOM      3  C   UNL     1       5.724  -6.041   0.106  0.00  0.00    +0.115 A 
ATOM      4  C   UNL     1       6.505  -6.037  -1.140  0.00  0.00    +0.114 A 
ATOM      5  C   UNL     1       5.856  -5.720  -2.347  0.00  0.00    +0.037 A 
ATOM      6  C   UNL     1       4.529  -5.431  -2.339  0.00  0.00    -0.027 A 
ATOM      7  C   UNL     1       3.842  -5.099  -3.638  0.00  0.00    +0.046 C 
ATOM      8  N   UNL     1       7.733  -6.364  -0.770  0.00  0.00    -0.147 NA
ATOM      9  N   UNL     1       7.748  -6.550   0.504  0.00  0.00    -0.149 N 
ATOM     10  N   UNL     1       6.595  -6.370   1.048  0.00  0.00    -0.147 NA
ENDROOT
BRANCH   9  11
ATOM     11  C   UNL     1       8.896  -6.908   1.221  0.00  0.00    +0.086 A 
ATOM     12  C   UNL     1      10.105  -7.078   0.559  0.00  0.00    +0.031 A 
ATOM     13  C   UNL     1      11.236  -7.431   1.269  0.00  0.00    +0.022 A 
ATOM     14  C   UNL     1      11.165  -7.617   2.639  0.00  0.00    +0.041 A 
ATOM     15  C   UNL     1       9.961  -7.449   3.301  0.00  0.00    +0.022 A 
ATOM     16  C   UNL     1       8.829  -7.089   2.597  0.00  0.00    +0.031 A 
ATOM     17 CL   UNL     1      12.588  -8.061   3.528  0.00  0.00    -0.084 Cl
ENDBRANCH   9  11
BRANCH   1  20
ATOM     18  C   UNL     1       1.589  -5.579  -0.248  0.00  0.00    +0.360 C 
ATOM     19  O   UNL     1       2.000  -6.347   0.595  0.00  0.00    -0.249 OA
ATOM     20  N   UNL     1       2.421  -5.117  -1.202  0.00  0.00    -0.266 N 
ATOM     21  H   UNL     1       2.075  -4.568  -1.923  0.00  0.00    +0.156 HD
BRANCH  18  22
ATOM     22  S   UNL     1      -0.097  -5.066  -0.225  0.00  0.00    +0.076 S 
ATOM     23  O   UNL     1      -0.799  -6.014   0.566  0.00  0.00    -0.160 OA
ATOM     24  O   UNL     1      -0.453  -4.783  -1.571  0.00  0.00    -0.160 OA
BRANCH  22  29
ATOM     25  C   UNL     1      -0.331   0.175   2.756  0.00  0.00    +0.044 C 
ATOM     26  C   UNL     1      -0.272  -1.134   2.011  0.00  0.00    -0.050 A 
ATOM     27  C   UNL     1      -0.078  -1.143   0.642  0.00  0.00    +0.005 A 
ATOM     28  C   UNL     1      -0.024  -2.343  -0.040  0.00  0.00    +0.028 A 
ATOM     29  C   UNL     1      -0.164  -3.535   0.645  0.00  0.00    +0.099 A 
ATOM     30  C   UNL     1      -0.357  -3.527   2.014  0.00  0.00    +0.028 A 
ATOM     31  C   UNL     1      -0.407  -2.326   2.698  0.00  0.00    +0.005 A 
ENDBRANCH  22  29
ENDBRANCH  18  22
ENDBRANCH   1  20
TORSDOF 4
