REMARK  Name = ZINC20734547
REMARK  4 active torsions:
REMARK  status: ('A' for Active; 'I' for Inactive)
REMARK    1  A    between atoms: C_4  and  O_7
REMARK    2  A    between atoms: O_7  and  C_8
REMARK    3  A    between atoms: C_12  and  C_14
REMARK    4  A    between atoms: C_17  and  O_25
REMARK                            x       y       z     vdW  Elec       q    Type
REMARK                         _______ _______ _______ _____ _____    ______ ____
ROOT
ATOM      1  C   UNL     1       3.657  -1.988  -0.010  0.00  0.00    +0.129 A 
ATOM      2  C   UNL     1       2.495  -2.747  -0.046  0.00  0.00    +0.046 A 
ATOM      3  C   UNL     1       2.571  -4.125  -0.020  0.00  0.00    +0.004 A 
ATOM      4  C   UNL     1       3.803  -4.750   0.042  0.00  0.00    +0.004 A 
ATOM      5  C   UNL     1       4.962  -3.997   0.077  0.00  0.00    -0.036 A 
ATOM      6  C   UNL     1       4.892  -2.618   0.046  0.00  0.00    +0.050 A 
ENDROOT
BRANCH   5   7
ATOM      7  C   UNL     1       6.303  -4.682   0.145  0.00  0.00    +0.063 C 
ATOM      8  C   UNL     1       6.378  -5.556   1.402  0.00  0.00    +0.108 C 
ATOM      9  C   UNL     1       5.617  -6.837   1.241  0.00  0.00    +0.190 C 
ATOM     10  N   UNL     1       5.501  -7.479   0.119  0.00  0.00    -0.196 NA
ATOM     11  C   UNL     1       6.074  -6.947  -1.011  0.00  0.00    +0.181 A 
ATOM     12  C   UNL     1       6.478  -5.583  -1.052  0.00  0.00    +0.024 A 
ATOM     13  C   UNL     1       6.989  -5.336  -2.262  0.00  0.00    +0.111 A 
ATOM     14  N   UNL     1       6.927  -6.484  -2.979  0.00  0.00    -0.282 N 
ATOM     15  H   UNL     1       7.229  -6.599  -3.894  0.00  0.00    +0.188 HD
ATOM     16  N   UNL     1       6.350  -7.480  -2.168  0.00  0.00    -0.154 NA
BRANCH   9  17
ATOM     17  O   UNL     1       5.014  -7.355   2.331  0.00  0.00    -0.495 OA
ATOM     18  H   UNL     1       4.540  -8.181   2.163  0.00  0.00    +0.293 HD
ENDBRANCH   9  17
ENDBRANCH   5   7
BRANCH   1  19
ATOM     19  O   UNL     1       3.586  -0.632  -0.036  0.00  0.00    -0.456 OA
BRANCH  19  23
ATOM     20  C   UNL     1       3.336   1.363   3.566  0.00  0.00    +0.000 A 
ATOM     21  C   UNL     1       3.418  -0.017   3.546  0.00  0.00    +0.004 A 
ATOM     22  C   UNL     1       3.502  -0.687   2.341  0.00  0.00    +0.046 A 
ATOM     23  C   UNL     1       3.503   0.025   1.151  0.00  0.00    +0.128 A 
ATOM     24  C   UNL     1       3.420   1.410   1.174  0.00  0.00    +0.046 A 
ATOM     25  C   UNL     1       3.337   2.076   2.381  0.00  0.00    +0.004 A 
ENDBRANCH  19  23
ENDBRANCH   1  19
TORSDOF 4
