REMARK  Name = ZINC19858113
REMARK  6 active torsions:
REMARK  status: ('A' for Active; 'I' for Inactive)
REMARK    1  A    between atoms: C_1  and  C_2
REMARK    2  A    between atoms: N_10  and  C_13
REMARK    3  A    between atoms: C_18  and  O_19
REMARK    4  A    between atoms: O_19  and  C_20
REMARK    5  A    between atoms: N_29  and  C_32
REMARK    6  A    between atoms: C_32  and  C_33
REMARK                            x       y       z     vdW  Elec       q    Type
REMARK                         _______ _______ _______ _____ _____    ______ ____
ROOT
ATOM      1  C   UNL     1      -0.019   1.526   0.010  0.00  0.00    +0.025 C 
ATOM      2  C   UNL     1       0.002  -0.004   0.002  0.00  0.00    +0.064 C 
ATOM      3  C   UNL     1      -1.437  -0.561   0.051  0.00  0.00    +0.107 C 
ATOM      4  C   UNL     1      -1.343  -1.826   0.950  0.00  0.00    +0.123 C 
ATOM      5  C   UNL     1      -1.650  -2.956  -0.006  0.00  0.00    +0.233 C 
ATOM      6  O   UNL     1      -1.677  -4.132   0.286  0.00  0.00    -0.274 OA
ATOM      7  N   UNL     1      -1.888  -2.456  -1.224  0.00  0.00    -0.206 N 
ATOM      8  C   UNL     1      -1.803  -1.108  -1.310  0.00  0.00    +0.232 C 
ATOM      9  O   UNL     1      -1.986  -0.442  -2.306  0.00  0.00    -0.274 OA
ATOM     10  C   UNL     1       0.125  -1.882   1.388  0.00  0.00    +0.136 C 
ATOM     11  N   UNL     1       0.655  -0.519   1.234  0.00  0.00    -0.296 NA
ATOM     12  C   UNL     1       0.261  -2.386   2.797  0.00  0.00    +0.004 A 
ATOM     13  C   UNL     1      -0.221  -1.948   4.010  0.00  0.00    +0.008 A 
ATOM     14  C   UNL     1       0.084  -2.643   5.167  0.00  0.00    +0.000 A 
ATOM     15  C   UNL     1       0.873  -3.777   5.102  0.00  0.00    +0.002 A 
ATOM     16  C   UNL     1       1.357  -4.219   3.888  0.00  0.00    +0.024 A 
ATOM     17  C   UNL     1       1.055  -3.526   2.718  0.00  0.00    +0.043 A 
ATOM     18  N   UNL     1       1.420  -3.770   1.393  0.00  0.00    -0.258 N 
ATOM     19  C   UNL     1       0.914  -2.850   0.549  0.00  0.00    +0.246 C 
ATOM     20  O   UNL     1       1.065  -2.811  -0.654  0.00  0.00    -0.273 OA
ATOM     21  H   UNL     1       1.659  -0.524   1.137  0.00  0.00    +0.123 HD
ENDROOT
BRANCH   7  22
ATOM     22  C   UNL     1      -2.208  -3.264  -2.327  0.00  0.00    +0.085 A 
ATOM     23  C   UNL     1      -3.532  -3.563  -2.609  0.00  0.00    +0.027 A 
ATOM     24  C   UNL     1      -3.844  -4.357  -3.696  0.00  0.00    +0.002 A 
ATOM     25  C   UNL     1      -2.839  -4.857  -4.503  0.00  0.00    +0.004 A 
ATOM     26  C   UNL     1      -1.516  -4.563  -4.228  0.00  0.00    +0.047 A 
ATOM     27  C   UNL     1      -1.196  -3.762  -3.143  0.00  0.00    +0.142 A 
BRANCH  27  28
ATOM     28  O   UNL     1       0.104  -3.467  -2.875  0.00  0.00    -0.493 OA
ATOM     29  C   UNL     1       1.088  -4.013  -3.755  0.00  0.00    +0.277 C 
ENDBRANCH  27  28
ENDBRANCH   7  22
BRANCH  18  30
ATOM     30  C   UNL     1       2.256  -4.896   0.969  0.00  0.00    +0.202 C 
BRANCH  30  31
ATOM     31  C   UNL     1       1.401  -6.053   0.657  0.00  0.00    -0.086 C 
ATOM     32  C   UNL     1       0.719  -6.976   0.409  0.00  0.00    +0.005 C 
ENDBRANCH  30  31
ENDBRANCH  18  30
TORSDOF 4
