REMARK  Name = ZINC50679152
REMARK  9 active torsions:
REMARK  status: ('A' for Active; 'I' for Inactive)
REMARK    1  A    between atoms: C_1  and  C_2
REMARK    2  A    between atoms: C_2  and  O_3
REMARK    3  A    between atoms: O_3  and  C_4
REMARK    4  A    between atoms: C_5  and  O_25
REMARK    5  A    between atoms: C_7  and  C_11
REMARK    6  A    between atoms: C_13  and  C_14
REMARK    7  A    between atoms: C_13  and  C_16
REMARK    8  A    between atoms: N_18  and  C_19
REMARK    9  A    between atoms: O_25  and  C_26
REMARK                            x       y       z     vdW  Elec       q    Type
REMARK                         _______ _______ _______ _____ _____    ______ ____
ROOT
ATOM      1  C   UNL     1      -2.237  -6.074   0.016  0.00  0.00    +0.209 C 
ATOM      2  O   UNL     1      -2.167  -6.706  -1.174  0.00  0.00    -0.286 OA
ATOM      3  C   UNL     1      -1.970  -6.770   1.190  0.00  0.00    +0.160 C 
ENDROOT
BRANCH   1   7
ATOM      4  C   UNL     1      -3.276  -1.961   0.176  0.00  0.00    +0.180 A 
ATOM      5  C   UNL     1      -2.158  -2.366  -0.551  0.00  0.00    +0.164 A 
ATOM      6  C   UNL     1      -1.816  -3.703  -0.606  0.00  0.00    +0.061 A 
ATOM      7  C   UNL     1      -2.595  -4.649   0.071  0.00  0.00    +0.028 A 
ATOM      8  C   UNL     1      -3.716  -4.235   0.799  0.00  0.00    +0.035 A 
ATOM      9  C   UNL     1      -4.047  -2.898   0.853  0.00  0.00    +0.087 A 
ATOM     10 CL   UNL     1      -5.434  -2.385   1.762  0.00  0.00    -0.080 Cl
BRANCH   5  11
ATOM     11  O   UNL     1      -1.403  -1.444  -1.207  0.00  0.00    -0.491 OA
ATOM     12  C   UNL     1      -0.271  -1.930  -1.932  0.00  0.00    +0.277 C 
ENDBRANCH   5  11
BRANCH   4  13
ATOM     13  O   UNL     1      -3.610  -0.645   0.228  0.00  0.00    -0.487 OA
BRANCH  13  15
ATOM     14  C   UNL     1      -3.527   1.574   1.181  0.00  0.00    +0.048 C 
ATOM     15  C   UNL     1      -3.039   0.128   1.285  0.00  0.00    +0.226 C 
ENDBRANCH  13  15
ENDBRANCH   4  13
ENDBRANCH   1   7
BRANCH   3  16
ATOM     16  C   UNL     1      -1.877  -6.050   2.464  0.00  0.00    +0.258 C 
ATOM     17  O   UNL     1      -1.916  -4.833   2.479  0.00  0.00    -0.269 OA
ATOM     18  N   UNL     1      -1.748  -6.734   3.617  0.00  0.00    -0.308 N 
ATOM     19  H   UNL     1      -1.716  -7.704   3.605  0.00  0.00    +0.149 HD
BRANCH  18  20
ATOM     20  C   UNL     1      -1.654  -6.015   4.890  0.00  0.00    +0.073 C 
ATOM     21  C   UNL     1      -0.201  -5.607   5.140  0.00  0.00    +0.022 C 
ATOM     22  C   UNL     1      -0.104  -4.856   6.469  0.00  0.00    +0.002 C 
ATOM     23  C   UNL     1      -0.581  -5.763   7.604  0.00  0.00    +0.000 C 
ATOM     24  C   UNL     1      -2.035  -6.171   7.354  0.00  0.00    +0.002 C 
ATOM     25  C   UNL     1      -2.132  -6.923   6.025  0.00  0.00    +0.022 C 
ENDBRANCH  18  20
ENDBRANCH   3  16
BRANCH   3  26
ATOM     26  C   UNL     1      -1.787  -8.189   1.155  0.00  0.00    +0.108 C 
ATOM     27  N   UNL     1      -1.641  -9.316   1.127  0.00  0.00    -0.191 NA
ENDBRANCH   3  26
TORSDOF 7
