REMARK  Name = ZINC41706720
REMARK  5 active torsions:
REMARK  status: ('A' for Active; 'I' for Inactive)
REMARK    1  A    between atoms: C_1  and  C_2
REMARK    2  A    between atoms: C_3  and  N_9
REMARK    3  A    between atoms: C_4  and  C_8
REMARK    4  A    between atoms: C_15  and  C_19
REMARK    5  A    between atoms: C_15  and  C_20
REMARK                            x       y       z     vdW  Elec       q    Type
REMARK                         _______ _______ _______ _____ _____    ______ ____
ROOT
ATOM      1  N   UNL     1      -0.004  -0.364  -2.437  0.00  0.00    -0.316 N 
ATOM      2  C   UNL     1       1.114  -0.112  -3.188  0.00  0.00    +0.092 A 
ATOM      3  C   UNL     1       0.741   0.286  -4.422  0.00  0.00    +0.031 A 
ATOM      4  C   UNL     1      -0.711   0.275  -4.423  0.00  0.00    +0.038 A 
ATOM      5  C   UNL     1      -1.109  -0.143  -3.158  0.00  0.00    +0.035 A 
ATOM      6  C   UNL     1      -2.557  -0.283  -2.763  0.00  0.00    +0.061 C 
ATOM      7  C   UNL     1      -3.422   0.547  -3.716  0.00  0.00    -0.023 C 
ATOM      8  C   UNL     1      -3.117   0.193  -5.175  0.00  0.00    +0.086 C 
ATOM      9  C   UNL     1      -1.680   0.604  -5.473  0.00  0.00    +0.165 C 
ATOM     10  O   UNL     1      -1.359   1.151  -6.508  0.00  0.00    -0.292 OA
ATOM     11  C   UNL     1      -3.139   2.033  -3.489  0.00  0.00    +0.011 C 
ATOM     12  C   UNL     1      -4.899   0.268  -3.429  0.00  0.00    +0.011 C 
ENDROOT
BRANCH   1  15
ATOM     13  C   UNL     1      -0.018   1.503   0.010  0.00  0.00    +0.067 C 
ATOM     14  C   UNL     1       0.002  -0.004   0.002  0.00  0.00    +0.057 A 
ATOM     15  C   UNL     1       0.008  -0.799  -1.099  0.00  0.00    +0.090 A 
ATOM     16  C   UNL     1       0.028  -2.133  -0.663  0.00  0.00    +0.084 A 
ATOM     17  N   UNL     1       0.034  -2.136   0.645  0.00  0.00    -0.177 NA
ATOM     18  N   UNL     1       0.024  -0.807   1.089  0.00  0.00    -0.280 N 
ATOM     19  H   UNL     1       0.029  -0.515   2.014  0.00  0.00    +0.189 HD
ATOM     20  C   UNL     1       0.040  -3.352  -1.550  0.00  0.00    +0.070 C 
ENDBRANCH   1  15
TORSDOF 1
