REMARK  Name = ZINC39663638
REMARK  10 active torsions:
REMARK  status: ('A' for Active; 'I' for Inactive)
REMARK    1  A    between atoms: C_1  and  N_2
REMARK    2  A    between atoms: N_2  and  C_3
REMARK    3  A    between atoms: N_2  and  C_4
REMARK    4  A    between atoms: C_4  and  C_6
REMARK    5  A    between atoms: C_4  and  C_31
REMARK    6  A    between atoms: C_6  and  N_7
REMARK    7  A    between atoms: C_8  and  C_10
REMARK    8  A    between atoms: C_21  and  C_23
REMARK    9  A    between atoms: C_34  and  O_37
REMARK   10  A    between atoms: O_37  and  C_38
REMARK                            x       y       z     vdW  Elec       q    Type
REMARK                         _______ _______ _______ _____ _____    ______ ____
ROOT
ATOM      1  C   UNL     1       0.187  -3.101   2.439  0.00  0.00    +0.100 C 
ATOM      2  C   UNL     1      -0.469  -2.397   3.649  0.00  0.00    +0.121 C 
ATOM      3  N   UNL     1      -1.377  -3.415   4.227  0.00  0.00    -0.296 N 
ATOM      4  C   UNL     1      -0.622  -4.687   4.121  0.00  0.00    +0.115 C 
ATOM      5  C   UNL     1       0.087  -4.603   2.755  0.00  0.00    -0.004 C 
ATOM      6  C   UNL     1       1.481  -5.218   2.845  0.00  0.00    -0.010 C 
ATOM      7  C   UNL     1       1.355  -6.722   3.101  0.00  0.00    -0.082 C 
ATOM      8  N   UNL     1       0.593  -7.344   2.011  0.00  0.00    +0.379 N 
ATOM      9  C   UNL     1      -0.775  -6.814   1.991  0.00  0.00    -0.082 C 
ATOM     10  C   UNL     1      -0.740  -5.314   1.687  0.00  0.00    -0.010 C 
ATOM     11  C   UNL     1      -2.612  -3.228   4.735  0.00  0.00    +0.248 C 
ATOM     12  O   UNL     1      -3.137  -2.133   4.667  0.00  0.00    -0.270 OA
ATOM     13  H   UNL     1       1.043  -7.143   1.131  0.00  0.00    -0.086 HD
ATOM     14  H   UNL     1       0.564  -8.343   2.150  0.00  0.00    -0.086 HD
ENDROOT
BRANCH  11  15
ATOM     15  C   UNL     1      -3.326  -4.351   5.373  0.00  0.00    +0.055 A 
ATOM     16  C   UNL     1      -2.619  -5.304   6.110  0.00  0.00    +0.016 A 
ATOM     17  C   UNL     1      -3.292  -6.351   6.703  0.00  0.00    +0.021 A 
ATOM     18  C   UNL     1      -4.667  -6.460   6.571  0.00  0.00    +0.042 A 
ATOM     19  C   UNL     1      -5.374  -5.519   5.843  0.00  0.00    +0.040 A 
ATOM     20  C   UNL     1      -4.714  -4.463   5.248  0.00  0.00    +0.054 A 
ATOM     21 CL   UNL     1      -5.603  -3.279   4.341  0.00  0.00    -0.083 Cl
ATOM     22 CL   UNL     1      -5.505  -7.782   7.322  0.00  0.00    -0.083 Cl
ENDBRANCH  11  15
BRANCH   1  24
ATOM     23  N   UNL     1       0.037  -2.920  -0.023  0.00  0.00    -0.316 N 
ATOM     24  C   UNL     1      -0.566  -2.780   1.174  0.00  0.00    +0.218 C 
ATOM     25  O   UNL     1      -1.715  -2.395   1.233  0.00  0.00    -0.275 OA
ATOM     26  H   UNL     1       0.955  -3.227  -0.070  0.00  0.00    +0.149 HD
BRANCH  23  27
ATOM     27  C   UNL     1      -0.695  -2.607  -1.253  0.00  0.00    +0.093 C 
BRANCH  27  28
ATOM     28  C   UNL     1       0.246  -2.731  -2.453  0.00  0.00    -0.021 C 
BRANCH  28  29
ATOM     29  C   UNL     1       0.658  -4.171  -2.621  0.00  0.00    -0.059 A 
ATOM     30  C   UNL     1       1.653  -4.702  -1.821  0.00  0.00    +0.005 A 
ATOM     31  C   UNL     1       2.033  -6.022  -1.974  0.00  0.00    +0.046 A 
ATOM     32  C   UNL     1       1.415  -6.814  -2.931  0.00  0.00    +0.120 A 
ATOM     33  C   UNL     1       0.417  -6.279  -3.732  0.00  0.00    +0.046 A 
ATOM     34  C   UNL     1       0.037  -4.960  -3.571  0.00  0.00    +0.005 A 
BRANCH  32  35
ATOM     35  O   UNL     1       1.787  -8.112  -3.083  0.00  0.00    -0.495 OA
ATOM     36  C   UNL     1       1.108  -8.868  -4.088  0.00  0.00    +0.277 C 
ENDBRANCH  32  35
ENDBRANCH  28  29
BRANCH  28  38
ATOM     37  C   UNL     1       2.293  -1.938  -3.421  0.00  0.00    -0.096 C 
ATOM     38  N   UNL     1       1.439  -1.904  -2.226  0.00  0.00    +0.382 N 
ATOM     39  C   UNL     1       1.030  -0.519  -1.956  0.00  0.00    -0.096 C 
ATOM     40  H   UNL     1       1.953  -2.263  -1.435  0.00  0.00    -0.082 HD
ENDBRANCH  28  38
ENDBRANCH  27  28
ENDBRANCH  23  27
ENDBRANCH   1  24
TORSDOF 7
