REMARK  Name = ZINC06309839
REMARK  4 active torsions:
REMARK  status: ('A' for Active; 'I' for Inactive)
REMARK    1  A    between atoms: C_1  and  C_2
REMARK    2  A    between atoms: C_2  and  C_3
REMARK    3  A    between atoms: C_3  and  C_4
REMARK    4  A    between atoms: C_4  and  C_5
REMARK                            x       y       z     vdW  Elec       q    Type
REMARK                         _______ _______ _______ _____ _____    ______ ____
ROOT
ATOM      1  C   UNL     1      -2.938   2.568  -1.773  0.00  0.00    +0.040 C 
ATOM      2  N   UNL     1      -2.788   2.271  -3.043  0.00  0.00    -0.273 NA
ATOM      3  C   UNL     1      -1.730   1.354  -3.431  0.00  0.00    +0.180 C 
ATOM      4  C   UNL     1      -0.466   1.707  -2.603  0.00  0.00    +0.100 C 
ATOM      5  C   UNL     1       0.779   1.282  -3.264  0.00  0.00    +0.070 A 
ATOM      6  C   UNL     1       0.698   1.269  -4.650  0.00  0.00    +0.076 A 
ATOM      7  C   UNL     1       1.811   0.934  -5.432  0.00  0.00    +0.173 A 
ATOM      8  N   UNL     1       2.044   0.856  -6.735  0.00  0.00    -0.214 NA
ATOM      9  C   UNL     1       3.299   0.483  -6.946  0.00  0.00    +0.246 A 
ATOM     10  N   UNL     1       3.908   0.311  -5.795  0.00  0.00    -0.152 NA
ATOM     11  N   UNL     1       2.975   0.593  -4.792  0.00  0.00    -0.201 N 
ATOM     12  C   UNL     1       3.000   0.591  -3.437  0.00  0.00    +0.225 A 
ATOM     13  N   UNL     1       1.962   0.914  -2.727  0.00  0.00    -0.238 NA
ATOM     14  S   UNL     1      -0.978   1.726  -5.068  0.00  0.00    -0.092 S 
ATOM     15  C   UNL     1      -0.775   1.601  -1.172  0.00  0.00    -0.053 C 
ATOM     16  C   UNL     1      -2.011   2.023  -0.791  0.00  0.00    -0.027 C 
ATOM     17  C   UNL     1      -2.204   1.815   0.679  0.00  0.00    +0.037 C 
ATOM     18  C   UNL     1      -0.778   1.605   1.249  0.00  0.00    +0.009 C 
ATOM     19  C   UNL     1      -0.013   1.086   0.008  0.00  0.00    +0.032 C 
ENDROOT
BRANCH   1  20
ATOM     20  C   UNL     1      -4.050   3.484  -1.332  0.00  0.00    +0.055 C 
BRANCH  20  21
ATOM     21  C   UNL     1      -4.859   3.930  -2.552  0.00  0.00    +0.006 C 
BRANCH  21  23
ATOM     22  C   UNL     1      -6.796   5.306  -3.324  0.00  0.00    +0.004 C 
ATOM     23  C   UNL     1      -5.987   4.861  -2.104  0.00  0.00    -0.003 C 
ENDBRANCH  21  23
ENDBRANCH  20  21
ENDBRANCH   1  20
TORSDOF 3
