REMARK  Name = ZINC55133367
REMARK  6 active torsions:
REMARK  status: ('A' for Active; 'I' for Inactive)
REMARK    1  A    between atoms: C_1  and  C_2
REMARK    2  A    between atoms: C_5  and  C_8
REMARK    3  A    between atoms: C_8  and  C_13
REMARK    4  A    between atoms: C_15  and  C_18
REMARK    5  A    between atoms: C_18  and  N_19
REMARK    6  A    between atoms: N_22  and  C_25
REMARK                            x       y       z     vdW  Elec       q    Type
REMARK                         _______ _______ _______ _____ _____    ______ ____
ROOT
ATOM      1  C   UNL     1      -1.229  -4.768  -0.660  0.00  0.00    +0.182 A 
ATOM      2  N   UNL     1      -1.651  -4.525  -1.906  0.00  0.00    -0.194 NA
ATOM      3  C   UNL     1      -2.774  -5.149  -2.128  0.00  0.00    +0.241 A 
ATOM      4  O   UNL     1      -3.109  -5.817  -1.017  0.00  0.00    -0.337 OA
ATOM      5  N   UNL     1      -2.081  -5.558  -0.073  0.00  0.00    -0.060 NA
ENDROOT
BRANCH   1   6
ATOM      6  C   UNL     1       0.031  -4.221  -0.039  0.00  0.00    +0.059 C 
ATOM      7  C   UNL     1       1.265  -4.717  -0.821  0.00  0.00    +0.019 C 
ATOM      8  C   UNL     1       2.334  -4.962   0.273  0.00  0.00    +0.001 C 
ATOM      9  C   UNL     1       1.500  -5.544   1.442  0.00  0.00    +0.001 C 
ATOM     10  C   UNL     1       0.181  -4.746   1.399  0.00  0.00    +0.019 C 
BRANCH   6  15
ATOM     11  C   UNL     1      -0.113   1.556  -0.034  0.00  0.00    +0.044 C 
ATOM     12  C   UNL     1      -0.075   0.050  -0.035  0.00  0.00    -0.050 A 
ATOM     13  C   UNL     1       0.987  -0.616   0.547  0.00  0.00    +0.003 A 
ATOM     14  C   UNL     1       1.021  -1.998   0.546  0.00  0.00    +0.005 A 
ATOM     15  C   UNL     1      -0.007  -2.714  -0.037  0.00  0.00    -0.034 A 
ATOM     16  C   UNL     1      -1.070  -2.049  -0.619  0.00  0.00    +0.005 A 
ATOM     17  C   UNL     1      -1.107  -0.667  -0.614  0.00  0.00    +0.003 A 
ENDBRANCH   6  15
ENDBRANCH   1   6
BRANCH   3  18
ATOM     18  C   UNL     1      -3.561  -5.122  -3.413  0.00  0.00    +0.183 C 
BRANCH  18  19
ATOM     19  N   UNL     1      -3.114  -6.217  -4.284  0.00  0.00    -0.291 NA
ATOM     20  C   UNL     1      -1.723  -6.015  -4.712  0.00  0.00    +0.104 C 
ATOM     21  C   UNL     1      -1.238  -7.259  -5.464  0.00  0.00    +0.120 C 
ATOM     22  N   UNL     1      -2.187  -7.549  -6.549  0.00  0.00    -0.327 N 
ATOM     23  C   UNL     1      -3.618  -7.631  -6.219  0.00  0.00    +0.120 C 
ATOM     24  C   UNL     1      -4.009  -6.372  -5.438  0.00  0.00    +0.104 C 
BRANCH  22  25
ATOM     25  C   UNL     1      -1.743  -7.741  -7.854  0.00  0.00    +0.032 A 
ATOM     26  C   UNL     1      -0.380  -7.787  -8.147  0.00  0.00    +0.040 A 
ATOM     27  C   UNL     1       0.019  -7.980  -9.453  0.00  0.00    +0.084 A 
ATOM     28  N   UNL     1      -0.871  -8.119 -10.418  0.00  0.00    -0.367 N 
ATOM     29  C   UNL     1      -2.169  -8.080 -10.182  0.00  0.00    +0.084 A 
ATOM     30  C   UNL     1      -2.649  -7.897  -8.903  0.00  0.00    +0.040 A 
ATOM     31  H   UNL     1      -0.561  -8.253 -11.328  0.00  0.00    +0.165 HD
ENDBRANCH  22  25
ENDBRANCH  18  19
ENDBRANCH   3  18
TORSDOF 5
