REMARK  Name = ZINC44020006
REMARK  2 active torsions:
REMARK  status: ('A' for Active; 'I' for Inactive)
REMARK    1  A    between atoms: C_6  and  N_7
REMARK    2  A    between atoms: C_11  and  N_16
REMARK                            x       y       z     vdW  Elec       q    Type
REMARK                         _______ _______ _______ _____ _____    ______ ____
ROOT
ATOM      1  N   UNL     1      -1.202  -0.723   0.011  0.00  0.00    -0.229 N 
ATOM      2  C   UNL     1      -2.373  -0.062   0.099  0.00  0.00    +0.263 A 
ATOM      3  O   UNL     1      -2.387   1.155   0.172  0.00  0.00    -0.267 OA
ATOM      4  C   UNL     1      -3.577  -0.783   0.106  0.00  0.00    +0.112 A 
ATOM      5  C   UNL     1      -3.534  -2.147   0.022  0.00  0.00    +0.108 A 
ATOM      6  N   UNL     1      -2.318  -2.780  -0.066  0.00  0.00    -0.295 N 
ATOM      7  H   UNL     1      -2.281  -3.748  -0.125  0.00  0.00    +0.172 HD
ATOM      8  C   UNL     1      -1.178  -2.065  -0.076  0.00  0.00    +0.335 A 
ATOM      9  O   UNL     1      -0.111  -2.641  -0.159  0.00  0.00    -0.246 OA
ENDROOT
BRANCH   1  15
ATOM     10  C   UNL     1       0.553   0.416  -1.200  0.00  0.00    +0.029 A 
ATOM     11  C   UNL     1       1.739   1.124  -1.205  0.00  0.00    +0.040 A 
ATOM     12  C   UNL     1       2.379   1.414  -0.011  0.00  0.00    +0.124 A 
ATOM     13  C   UNL     1       1.830   0.996   1.190  0.00  0.00    +0.040 A 
ATOM     14  C   UNL     1       0.644   0.288   1.199  0.00  0.00    +0.029 A 
ATOM     15  C   UNL     1       0.002  -0.004   0.003  0.00  0.00    +0.055 A 
ATOM     16  F   UNL     1       3.539   2.106  -0.018  0.00  0.00    -0.205 F 
ENDBRANCH   1  15
BRANCH   5  17
ATOM     17  N   UNL     1      -4.695  -2.878   0.027  0.00  0.00    -0.316 N 
ATOM     18  C   UNL     1      -4.695  -4.176   0.663  0.00  0.00    +0.106 C 
ATOM     19  C   UNL     1      -4.293  -5.259  -0.368  0.00  0.00    +0.019 C 
ATOM     20  C   UNL     1      -5.375  -5.464  -1.342  0.00  0.00    +0.002 C 
ATOM     21  C   UNL     1      -5.697  -4.237  -2.190  0.00  0.00    +0.002 C 
ATOM     22  C   UNL     1      -6.664  -3.352  -1.443  0.00  0.00    +0.019 C 
ATOM     23  C   UNL     1      -5.895  -2.303  -0.612  0.00  0.00    +0.106 C 
ENDBRANCH   5  17
TORSDOF 2
