REMARK  Name = ZINC43373240
REMARK  1 active torsions:
REMARK  status: ('A' for Active; 'I' for Inactive)
REMARK    1  A    between atoms: C_8  and  N_12
REMARK                            x       y       z     vdW  Elec       q    Type
REMARK                         _______ _______ _______ _____ _____    ______ ____
ROOT
ATOM      1  C   UNL     1      -0.017   1.377   0.010  0.00  0.00    +0.000 A 
ATOM      2  C   UNL     1       1.170   2.088   0.002  0.00  0.00    +0.002 A 
ATOM      3  C   UNL     1       2.375   1.416  -0.011  0.00  0.00    +0.023 A 
ATOM      4  C   UNL     1       2.396   0.025  -0.019  0.00  0.00    +0.030 A 
ATOM      5  C   UNL     1       1.207  -0.687  -0.015  0.00  0.00    -0.025 A 
ATOM      6  C   UNL     1       0.002  -0.004   0.002  0.00  0.00    +0.005 A 
ATOM      7  C   UNL     1       1.191  -2.192  -0.033  0.00  0.00    +0.061 C 
ATOM      8  C   UNL     1       2.531  -2.748   0.451  0.00  0.00    +0.099 C 
ATOM      9  C   UNL     1       3.661  -2.073  -0.337  0.00  0.00    +0.124 C 
ATOM     10  N   UNL     1       3.629  -0.637  -0.028  0.00  0.00    -0.342 N 
ATOM     11  H   UNL     1       4.448  -0.156   0.166  0.00  0.00    +0.146 HD
ENDROOT
BRANCH   8  12
ATOM     12  N   UNL     1       2.571  -4.195   0.230  0.00  0.00    -0.281 N 
ATOM     13  C   UNL     1       2.740  -5.091   1.375  0.00  0.00    +0.111 C 
ATOM     14  C   UNL     1       2.058  -6.429   1.071  0.00  0.00    +0.038 C 
ATOM     15  C   UNL     1       2.631  -6.984  -0.237  0.00  0.00    +0.107 C 
ATOM     16  N   UNL     1       2.468  -5.985  -1.295  0.00  0.00    -0.299 N 
ATOM     17  C   UNL     1       2.446  -4.673  -1.018  0.00  0.00    +0.303 C 
ATOM     18  O   UNL     1       2.313  -3.885  -1.934  0.00  0.00    -0.253 OA
ATOM     19  H   UNL     1       2.369  -6.278  -2.214  0.00  0.00    +0.150 HD
ENDBRANCH   8  12
TORSDOF 1
