REMARK  Name = ZINC63091408
REMARK  6 active torsions:
REMARK  status: ('A' for Active; 'I' for Inactive)
REMARK    1  A    between atoms: C_1  and  C_2
REMARK    2  A    between atoms: C_2  and  C_3
REMARK    3  A    between atoms: C_2  and  N_17
REMARK    4  A    between atoms: N_5  and  C_6
REMARK    5  A    between atoms: N_17  and  S_18
REMARK    6  A    between atoms: S_18  and  C_21
REMARK                            x       y       z     vdW  Elec       q    Type
REMARK                         _______ _______ _______ _____ _____    ______ ____
ROOT
ATOM      1  C   UNL     1      -1.411  -0.527   0.012  0.00  0.00    +0.236 C 
ATOM      2  O   UNL     1      -1.787  -1.242   0.917  0.00  0.00    -0.274 OA
ATOM      3  N   UNL     1      -2.256  -0.206  -0.988  0.00  0.00    -0.284 N 
ATOM      4  H   UNL     1      -1.977   0.418  -1.677  0.00  0.00    +0.155 HD
ENDROOT
BRANCH   3   5
ATOM      5  C   UNL     1      -3.536  -0.774  -1.034  0.00  0.00    +0.035 A 
ATOM      6  C   UNL     1      -4.223  -1.025   0.146  0.00  0.00    +0.024 A 
ATOM      7  C   UNL     1      -5.487  -1.584   0.101  0.00  0.00    +0.018 A 
ATOM      8  C   UNL     1      -6.064  -1.892  -1.120  0.00  0.00    +0.030 A 
ATOM      9  C   UNL     1      -5.380  -1.647  -2.312  0.00  0.00    +0.049 A 
ATOM     10  C   UNL     1      -4.113  -1.078  -2.258  0.00  0.00    +0.047 A 
ATOM     11  N   UNL     1      -5.938  -1.959  -3.549  0.00  0.00    -0.284 N 
ATOM     12  C   UNL     1      -7.232  -2.114  -3.812  0.00  0.00    +0.227 C 
ATOM     13  O   UNL     1      -7.558  -2.375  -4.951  0.00  0.00    -0.275 OA
ATOM     14  C   UNL     1      -8.314  -1.984  -2.775  0.00  0.00    +0.170 C 
ATOM     15  S   UNL     1      -7.679  -2.600  -1.186  0.00  0.00    -0.114 S 
ATOM     16  H   UNL     1      -5.323  -2.073  -4.290  0.00  0.00    +0.155 HD
ENDBRANCH   3   5
BRANCH   1  18
ATOM     17  C   UNL     1      -0.029   1.531   0.023  0.00  0.00    +0.035 C 
ATOM     18  C   UNL     1       0.000   0.002   0.005  0.00  0.00    +0.159 C 
BRANCH  18  19
ATOM     19  N   UNL     1       0.710  -0.487   1.190  0.00  0.00    -0.183 NA
ATOM     20  H   UNL     1       0.235  -0.598   2.029  0.00  0.00    +0.148 HD
BRANCH  19  21
ATOM     21  S   UNL     1       2.323  -0.850   1.098  0.00  0.00    +0.027 S 
ATOM     22  O   UNL     1       2.667  -1.307   2.398  0.00  0.00    -0.158 OA
ATOM     23  O   UNL     1       2.437  -1.710  -0.027  0.00  0.00    -0.158 OA
ATOM     24  C   UNL     1       3.139   0.735   0.757  0.00  0.00    +0.214 C 
ENDBRANCH  19  21
ENDBRANCH  18  19
ENDBRANCH   1  18
TORSDOF 4
