REMARK  Name = ZINC48621389
REMARK  2 active torsions:
REMARK  status: ('A' for Active; 'I' for Inactive)
REMARK    1  A    between atoms: N_10  and  C_14
REMARK    2  A    between atoms: C_14  and  N_15
REMARK                            x       y       z     vdW  Elec       q    Type
REMARK                         _______ _______ _______ _____ _____    ______ ____
ROOT
ATOM      1  C   UNL     1      -0.018   1.452   0.010  0.00  0.00    +0.000 C 
ATOM      2  C   UNL     1       1.397   2.063  -0.000  0.00  0.00    +0.000 C 
ATOM      3  C   UNL     1       1.944   2.026   1.402  0.00  0.00    +0.003 C 
ATOM      4  C   UNL     1       2.797   0.771   1.664  0.00  0.00    +0.035 C 
ATOM      5  C   UNL     1       2.182  -0.505   1.058  0.00  0.00    +0.113 C 
ATOM      6  C   UNL     1       0.693  -0.588   1.253  0.00  0.00    +0.035 C 
ATOM      7  C   UNL     1       0.002  -0.004   0.002  0.00  0.00    +0.003 C 
ATOM      8  C   UNL     1       2.535  -0.565  -0.415  0.00  0.00    +0.248 C 
ATOM      9  O   UNL     1       2.194   0.210  -1.282  0.00  0.00    -0.273 OA
ATOM     10  N   UNL     1       3.307  -1.660  -0.558  0.00  0.00    -0.211 N 
ATOM     11  C   UNL     1       3.489  -2.292   0.607  0.00  0.00    +0.310 C 
ATOM     12  O   UNL     1       4.149  -3.305   0.731  0.00  0.00    -0.252 OA
ATOM     13  N   UNL     1       2.858  -1.681   1.627  0.00  0.00    -0.285 N 
ATOM     14  H   UNL     1       2.850  -1.962   2.556  0.00  0.00    +0.151 HD
ENDROOT
BRANCH  10  15
ATOM     15  C   UNL     1       3.877  -2.104  -1.833  0.00  0.00    +0.205 C 
BRANCH  15  16
ATOM     16  N   UNL     1       5.197  -1.487  -2.020  0.00  0.00    -0.285 NA
ATOM     17  C   UNL     1       5.068  -0.102  -2.476  0.00  0.00    +0.096 C 
ATOM     18  C   UNL     1       6.380   0.651  -2.228  0.00  0.00    +0.084 C 
ATOM     19  S   UNL     1       7.696  -0.159  -3.189  0.00  0.00    -0.158 S 
ATOM     20  C   UNL     1       7.506  -1.910  -2.731  0.00  0.00    +0.084 C 
ATOM     21  C   UNL     1       6.033  -2.298  -2.908  0.00  0.00    +0.096 C 
ENDBRANCH  15  16
ENDBRANCH  10  15
TORSDOF 2
