REMARK  Name = ZINC13133687
REMARK  8 active torsions:
REMARK  status: ('A' for Active; 'I' for Inactive)
REMARK    1  A    between atoms: C_1  and  C_2
REMARK    2  A    between atoms: C_2  and  C_4
REMARK    3  A    between atoms: C_2  and  O_18
REMARK    4  A    between atoms: N_6  and  C_7
REMARK    5  A    between atoms: C_10  and  N_15
REMARK    6  A    between atoms: C_12  and  O_13
REMARK    7  A    between atoms: O_13  and  C_14
REMARK    8  A    between atoms: O_18  and  C_19
REMARK                            x       y       z     vdW  Elec       q    Type
REMARK                         _______ _______ _______ _____ _____    ______ ____
ROOT
ATOM      1  C   UNL     1      -4.776   3.681   0.562  0.00  0.00    +0.258 C 
ATOM      2  O   UNL     1      -4.642   4.814   0.974  0.00  0.00    -0.271 OA
ATOM      3  N   UNL     1      -5.965   3.058   0.675  0.00  0.00    -0.280 N 
ATOM      4  H   UNL     1      -6.051   2.126   0.422  0.00  0.00    +0.155 HD
ENDROOT
BRANCH   3   5
ATOM      5  C   UNL     1      -7.079   3.758   1.160  0.00  0.00    +0.076 A 
ATOM      6  C   UNL     1      -7.137   5.139   1.043  0.00  0.00    +0.029 A 
ATOM      7  C   UNL     1      -8.236   5.827   1.521  0.00  0.00    +0.035 A 
ATOM      8  C   UNL     1      -9.280   5.142   2.116  0.00  0.00    +0.130 A 
ATOM      9  C   UNL     1      -9.229   3.765   2.235  0.00  0.00    +0.080 A 
ATOM     10  C   UNL     1      -8.133   3.068   1.755  0.00  0.00    +0.143 A 
BRANCH   8  11
ATOM     11  N   UNL     1     -10.455   5.884   2.625  0.00  0.00    +0.057 N 
ATOM     12  O   UNL     1     -10.502   7.096   2.520  0.00  0.00    -0.126 OA
ATOM     13  O   UNL     1     -11.375   5.282   3.149  0.00  0.00    -0.126 OA
ENDBRANCH   8  11
BRANCH  10  14
ATOM     14  O   UNL     1      -8.083   1.714   1.867  0.00  0.00    -0.493 OA
ATOM     15  C   UNL     1      -9.200   1.073   2.488  0.00  0.00    +0.277 C 
ENDBRANCH  10  14
ENDBRANCH   3   5
BRANCH   1  17
ATOM     16  C   UNL     1      -3.922   2.704  -1.551  0.00  0.00    +0.062 C 
ATOM     17  C   UNL     1      -3.611   2.969  -0.077  0.00  0.00    +0.256 C 
BRANCH  17  18
ATOM     18  O   UNL     1      -2.441   3.784   0.024  0.00  0.00    -0.480 OA
BRANCH  18  19
ATOM     19  C   UNL     1      -1.241   3.148  -0.012  0.00  0.00    +0.122 A 
ATOM     20  C   UNL     1      -1.202   1.751  -0.049  0.00  0.00    +0.046 A 
ATOM     21  C   UNL     1      -0.016   1.085  -0.080  0.00  0.00    +0.012 A 
ATOM     22  C   UNL     1       1.190   1.809  -0.087  0.00  0.00    -0.017 A 
ATOM     23  C   UNL     1       2.432   1.154  -0.125  0.00  0.00    +0.023 A 
ATOM     24  C   UNL     1       3.580   1.886  -0.132  0.00  0.00    +0.018 A 
ATOM     25  C   UNL     1       3.543   3.279  -0.101  0.00  0.00    +0.016 A 
ATOM     26  C   UNL     1       2.358   3.947  -0.063  0.00  0.00    +0.010 A 
ATOM     27  C   UNL     1       1.152   3.225  -0.056  0.00  0.00    -0.014 A 
ATOM     28  C   UNL     1      -0.089   3.882  -0.018  0.00  0.00    +0.054 A 
ATOM     29 BR   UNL     1       5.250   0.999  -0.184  0.00  0.00    -0.050 Br
ENDBRANCH  18  19
ENDBRANCH  17  18
ENDBRANCH   1  17
TORSDOF 6
