REMARK  Name = ZINC09382170
REMARK  7 active torsions:
REMARK  status: ('A' for Active; 'I' for Inactive)
REMARK    1  A    between atoms: C_1  and  C_2
REMARK    2  A    between atoms: C_2  and  S_3
REMARK    3  A    between atoms: S_3  and  N_6
REMARK    4  A    between atoms: N_6  and  C_7
REMARK    5  A    between atoms: C_10  and  C_13
REMARK    6  A    between atoms: C_16  and  C_19
REMARK    7  A    between atoms: C_25  and  C_27
REMARK                            x       y       z     vdW  Elec       q    Type
REMARK                         _______ _______ _______ _____ _____    ______ ____
ROOT
ATOM      1  C   UNL     1      -0.162   5.634  -0.039  0.00  0.00    +0.069 C 
ATOM      2  N   UNL     1       0.866   6.407  -0.114  0.00  0.00    -0.181 NA
ATOM      3  N   UNL     1       0.558   7.766  -0.107  0.00  0.00    -0.179 N 
ATOM      4  C   UNL     1      -0.902   7.923  -0.013  0.00  0.00    +0.137 C 
ATOM      5  C   UNL     1      -1.419   6.471   0.028  0.00  0.00    +0.087 C 
ATOM      6  C   UNL     1       1.451   8.773  -0.175  0.00  0.00    +0.302 C 
ATOM      7  O   UNL     1       1.069   9.929  -0.160  0.00  0.00    -0.265 OA
ENDROOT
BRANCH   1  11
ATOM      8  C   UNL     1      -0.039   1.391  -0.008  0.00  0.00    +0.048 A 
ATOM      9  C   UNL     1      -1.262   2.050   0.059  0.00  0.00    +0.025 A 
ATOM     10  C   UNL     1      -1.305   3.426   0.056  0.00  0.00    +0.011 A 
ATOM     11  C   UNL     1      -0.119   4.161  -0.028  0.00  0.00    -0.002 A 
ATOM     12  C   UNL     1       1.108   3.495  -0.101  0.00  0.00    +0.011 A 
ATOM     13  C   UNL     1       1.144   2.118  -0.091  0.00  0.00    +0.025 A 
BRANCH   8  14
ATOM     14  N   UNL     1       0.002  -0.004   0.002  0.00  0.00    -0.221 N 
ATOM     15  H   UNL     1       0.557  -0.477  -0.637  0.00  0.00    +0.173 HD
BRANCH  14  16
ATOM     16  S   UNL     1      -0.898  -0.850   1.105  0.00  0.00    +0.043 S 
ATOM     17  O   UNL     1      -2.228  -0.384   0.922  0.00  0.00    -0.155 OA
ATOM     18  O   UNL     1      -0.570  -2.213   0.871  0.00  0.00    -0.155 OA
BRANCH  16  20
ATOM     19  C   UNL     1      -0.947  -1.141   3.824  0.00  0.00    +0.030 C 
ATOM     20  C   UNL     1      -0.268  -0.325   2.723  0.00  0.00    +0.185 C 
ENDBRANCH  16  20
ENDBRANCH  14  16
ENDBRANCH   8  14
ENDBRANCH   1  11
BRANCH   4  21
ATOM     21  C   UNL     1      -1.438   8.637  -1.227  0.00  0.00    -0.025 A 
ATOM     22  C   UNL     1      -0.905   8.374  -2.475  0.00  0.00    +0.005 A 
ATOM     23  C   UNL     1      -1.400   9.025  -3.589  0.00  0.00    +0.000 A 
ATOM     24  C   UNL     1      -2.421   9.947  -3.454  0.00  0.00    +0.000 A 
ATOM     25  C   UNL     1      -2.951  10.214  -2.205  0.00  0.00    +0.000 A 
ATOM     26  C   UNL     1      -2.459   9.559  -1.092  0.00  0.00    +0.005 A 
ENDBRANCH   4  21
BRANCH   6  27
ATOM     27  C   UNL     1       2.884   8.477  -0.265  0.00  0.00    +0.191 A 
ATOM     28  C   UNL     1       3.891   9.397  -0.340  0.00  0.00    +0.054 A 
ATOM     29  C   UNL     1       5.093   8.675  -0.411  0.00  0.00    +0.042 A 
ATOM     30  C   UNL     1       4.771   7.363  -0.378  0.00  0.00    +0.196 A 
ATOM     31  O   UNL     1       3.440   7.248  -0.284  0.00  0.00    -0.458 OA
ENDBRANCH   6  27
TORSDOF 6
