REMARK  Name = ZINC50442983
REMARK  6 active torsions:
REMARK  status: ('A' for Active; 'I' for Inactive)
REMARK    1  A    between atoms: C_1  and  C_2
REMARK    2  A    between atoms: C_5  and  N_9
REMARK    3  A    between atoms: C_6  and  C_8
REMARK    4  A    between atoms: N_9  and  C_10
REMARK    5  A    between atoms: C_10  and  C_11
REMARK    6  A    between atoms: C_16  and  N_17
REMARK                            x       y       z     vdW  Elec       q    Type
REMARK                         _______ _______ _______ _____ _____    ______ ____
ROOT
ATOM      1  C   UNL     1       0.061  -4.893  -1.294  0.00  0.00    +0.139 C 
ENDROOT
BRANCH   1   2
ATOM      2  C   UNL     1       0.082  -6.376  -1.026  0.00  0.00    -0.000 A 
ATOM      3  C   UNL     1       1.272  -7.076  -1.109  0.00  0.00    +0.009 A 
ATOM      4  C   UNL     1       1.292  -8.436  -0.863  0.00  0.00    +0.020 A 
ATOM      5  C   UNL     1       0.121  -9.097  -0.535  0.00  0.00    +0.043 A 
ATOM      6  C   UNL     1      -1.069  -8.396  -0.453  0.00  0.00    +0.053 A 
ATOM      7  C   UNL     1      -1.086  -7.034  -0.694  0.00  0.00    +0.132 A 
ATOM      8 CL   UNL     1       0.145 -10.805  -0.227  0.00  0.00    -0.083 Cl
BRANCH   7   9
ATOM      9  N   UNL     1      -2.358  -6.283  -0.600  0.00  0.00    +0.057 N 
ATOM     10  O   UNL     1      -3.380  -6.859  -0.308  0.00  0.00    -0.126 OA
ATOM     11  O   UNL     1      -2.374  -5.093  -0.814  0.00  0.00    -0.126 OA
ENDBRANCH   7   9
ENDBRANCH   1   2
BRANCH   1  12
ATOM     12  N   UNL     1       0.058  -4.167  -0.021  0.00  0.00    -0.339 N 
ATOM     13  H   UNL     1       0.069  -4.657   0.816  0.00  0.00    +0.146 HD
BRANCH  12  18
ATOM     14  C   UNL     1      -0.018   1.503   0.010  0.00  0.00    +0.044 C 
ATOM     15  C   UNL     1       0.002  -0.004   0.002  0.00  0.00    -0.050 A 
ATOM     16  C   UNL     1       0.006  -0.687  -1.200  0.00  0.00    +0.005 A 
ATOM     17  C   UNL     1       0.024  -2.068  -1.212  0.00  0.00    +0.023 A 
ATOM     18  C   UNL     1       0.040  -2.771  -0.013  0.00  0.00    +0.030 A 
ATOM     19  C   UNL     1       0.036  -2.081   1.192  0.00  0.00    -0.029 A 
ATOM     20  C   UNL     1       0.023  -0.700   1.196  0.00  0.00    +0.008 A 
ATOM     21  C   UNL     1       0.052  -2.839   2.495  0.00  0.00    +0.045 C 
ENDBRANCH  12  18
ENDBRANCH   1  12
TORSDOF 4
