REMARK  Name = ZINC15346595
REMARK  7 active torsions:
REMARK  status: ('A' for Active; 'I' for Inactive)
REMARK    1  A    between atoms: C_1  and  C_2
REMARK    2  A    between atoms: C_5  and  C_32
REMARK    3  A    between atoms: N_8  and  S_10
REMARK    4  A    between atoms: S_10  and  C_13
REMARK    5  A    between atoms: C_17  and  C_19
REMARK    6  A    between atoms: N_21  and  N_22
REMARK    7  A    between atoms: C_23  and  C_25
REMARK                            x       y       z     vdW  Elec       q    Type
REMARK                         _______ _______ _______ _____ _____    ______ ____
ROOT
ATOM      1  C   UNL     1      -4.859   0.834   0.029  0.00  0.00    +0.106 A 
ATOM      2  C   UNL     1      -4.837  -0.550   0.021  0.00  0.00    +0.028 A 
ATOM      3  C   UNL     1      -3.631  -1.228   0.011  0.00  0.00    +0.003 A 
ATOM      4  C   UNL     1      -2.442  -0.528   0.005  0.00  0.00    +0.013 A 
ATOM      5  C   UNL     1      -2.458   0.867   0.018  0.00  0.00    +0.040 A 
ATOM      6  C   UNL     1      -3.678   1.546   0.028  0.00  0.00    +0.041 A 
ENDROOT
BRANCH   5   7
ATOM      7  C   UNL     1      -1.187   1.624   0.017  0.00  0.00    +0.260 C 
ATOM      8  O   UNL     1      -1.204   2.839   0.023  0.00  0.00    -0.269 OA
ATOM      9  N   UNL     1      -0.011   0.966   0.007  0.00  0.00    -0.230 N 
ATOM     10  H   UNL     1       0.002  -0.004   0.002  0.00  0.00    +0.173 HD
BRANCH   9  11
ATOM     11  N   UNL     1       1.193   1.683  -0.000  0.00  0.00    -0.230 N 
ATOM     12  C   UNL     1       2.369   1.025  -0.015  0.00  0.00    +0.261 C 
ATOM     13  O   UNL     1       2.385  -0.191  -0.022  0.00  0.00    -0.269 OA
ATOM     14  H   UNL     1       1.179   2.653   0.005  0.00  0.00    +0.173 HD
BRANCH  12  15
ATOM     15  C   UNL     1       3.638   1.781  -0.023  0.00  0.00    +0.052 A 
ATOM     16  C   UNL     1       3.623   3.177  -0.021  0.00  0.00    +0.014 A 
ATOM     17  C   UNL     1       4.811   3.877  -0.025  0.00  0.00    +0.001 A 
ATOM     18  C   UNL     1       6.018   3.199  -0.040  0.00  0.00    +0.001 A 
ATOM     19  C   UNL     1       6.042   1.816  -0.046  0.00  0.00    +0.016 A 
ATOM     20  C   UNL     1       4.859   1.103  -0.038  0.00  0.00    +0.030 A 
ATOM     21 BR   UNL     1       4.893  -0.788  -0.049  0.00  0.00    -0.050 Br
ENDBRANCH  12  15
ENDBRANCH   9  11
ENDBRANCH   5   7
BRANCH   1  22
ATOM     22  S   UNL     1      -6.400   1.688   0.041  0.00  0.00    +0.061 S 
ATOM     23  O   UNL     1      -7.356   0.793   0.591  0.00  0.00    -0.153 OA
ATOM     24  O   UNL     1      -6.149   2.971   0.598  0.00  0.00    -0.153 OA
BRANCH  22  30
ATOM     25  C   UNL     1      -5.393   4.002  -4.363  0.00  0.00    +0.009 C 
ATOM     26  C   UNL     1      -5.714   2.749  -3.546  0.00  0.00    +0.002 C 
ATOM     27  C   UNL     1      -6.631   1.831  -4.357  0.00  0.00    +0.009 C 
ATOM     28  C   UNL     1      -6.926   0.562  -3.553  0.00  0.00    +0.002 C 
ATOM     29  C   UNL     1      -7.645   0.940  -2.255  0.00  0.00    +0.112 C 
ATOM     30  N   UNL     1      -6.835   1.935  -1.538  0.00  0.00    -0.176 NA
ATOM     31  C   UNL     1      -6.424   3.155  -2.246  0.00  0.00    +0.112 C 
ATOM     32  C   UNL     1      -5.612  -0.148  -3.220  0.00  0.00    +0.009 C 
ENDBRANCH  22  30
ENDBRANCH   1  22
TORSDOF 5
