REMARK  Name = ZINC12235231
REMARK  5 active torsions:
REMARK  status: ('A' for Active; 'I' for Inactive)
REMARK    1  A    between atoms: C_1  and  C_2
REMARK    2  A    between atoms: C_2  and  N_3
REMARK    3  A    between atoms: C_7  and  N_16
REMARK    4  A    between atoms: C_11  and  C_15
REMARK    5  A    between atoms: N_19  and  C_20
REMARK                            x       y       z     vdW  Elec       q    Type
REMARK                         _______ _______ _______ _____ _____    ______ ____
ROOT
ATOM      1  N   UNL     1      -9.550   3.849  -0.092  0.00  0.00    -0.265 N 
ATOM      2  C   UNL     1      -8.322   3.167  -0.104  0.00  0.00    +0.078 A 
ATOM      3  C   UNL     1      -7.126   3.866  -0.107  0.00  0.00    +0.029 A 
ATOM      4  C   UNL     1      -5.927   3.178  -0.115  0.00  0.00    +0.025 A 
ATOM      5  C   UNL     1      -5.920   1.790  -0.131  0.00  0.00    +0.038 A 
ATOM      6  C   UNL     1      -7.117   1.087  -0.127  0.00  0.00    +0.071 A 
ATOM      7  C   UNL     1      -8.318   1.773  -0.113  0.00  0.00    +0.145 A 
ATOM      8  O   UNL     1      -9.500   1.101  -0.108  0.00  0.00    -0.478 OA
ATOM      9  C   UNL     1     -10.584   1.711   0.597  0.00  0.00    +0.256 C 
ATOM     10  C   UNL     1     -10.673   3.170   0.227  0.00  0.00    +0.260 C 
ATOM     11  O   UNL     1     -11.748   3.730   0.213  0.00  0.00    -0.271 OA
ATOM     12  C   UNL     1     -10.349   1.582   2.103  0.00  0.00    +0.062 C 
ENDROOT
BRANCH   5  13
ATOM     13  N   UNL     1      -4.702   1.097  -0.144  0.00  0.00    -0.269 N 
ATOM     14  C   UNL     1      -4.604  -0.080  -0.793  0.00  0.00    +0.308 C 
ATOM     15  O   UNL     1      -5.543  -0.496  -1.444  0.00  0.00    -0.252 OA
ATOM     16  N   UNL     1      -3.465  -0.797  -0.720  0.00  0.00    -0.269 N 
ATOM     17  H   UNL     1      -3.930   1.465   0.312  0.00  0.00    +0.156 HD
ATOM     18  H   UNL     1      -2.744  -0.504  -0.141  0.00  0.00    +0.156 HD
BRANCH  16  19
ATOM     19  C   UNL     1      -3.323  -1.965  -1.478  0.00  0.00    +0.035 A 
ATOM     20  C   UNL     1      -2.578  -3.028  -0.986  0.00  0.00    +0.025 A 
ATOM     21  C   UNL     1      -2.444  -4.181  -1.734  0.00  0.00    +0.022 A 
ATOM     22  C   UNL     1      -3.047  -4.276  -2.976  0.00  0.00    +0.041 A 
ATOM     23  C   UNL     1      -3.786  -3.216  -3.471  0.00  0.00    +0.022 A 
ATOM     24  C   UNL     1      -3.923  -2.060  -2.727  0.00  0.00    +0.025 A 
ATOM     25 CL   UNL     1      -2.878  -5.727  -3.914  0.00  0.00    -0.084 Cl
ENDBRANCH  16  19
ENDBRANCH   5  13
BRANCH   1  27
ATOM     26  C   UNL     1      -9.436   6.100   0.859  0.00  0.00    +0.025 C 
ATOM     27  C   UNL     1      -9.611   5.276  -0.418  0.00  0.00    +0.110 C 
ENDBRANCH   1  27
TORSDOF 3
