REMARK  Name = ZINC12088497
REMARK  4 active torsions:
REMARK  status: ('A' for Active; 'I' for Inactive)
REMARK    1  A    between atoms: C_1  and  C_2
REMARK    2  A    between atoms: C_2  and  C_3
REMARK    3  A    between atoms: C_2  and  C_4
REMARK    4  A    between atoms: C_2  and  C_5
REMARK                            x       y       z     vdW  Elec       q    Type
REMARK                         _______ _______ _______ _____ _____    ______ ____
ROOT
ATOM      1  C   UNL     1      -2.143   1.058   1.278  0.00  0.00    +0.062 C 
ATOM      2  N   UNL     1      -2.534   0.331   0.318  0.00  0.00    -0.187 NA
ATOM      3  N   UNL     1      -3.774  -0.245   0.145  0.00  0.00    -0.202 N 
ATOM      4  C   UNL     1      -4.482  -0.878   1.084  0.00  0.00    +0.280 C 
ATOM      5  O   UNL     1      -5.501  -1.463   0.767  0.00  0.00    -0.267 OA
ATOM      6  C   UNL     1      -4.060  -0.886   2.493  0.00  0.00    +0.107 A 
ATOM      7  C   UNL     1      -4.214  -1.894   3.386  0.00  0.00    +0.041 A 
ATOM      8  C   UNL     1      -3.696  -1.452   4.628  0.00  0.00    +0.001 A 
ATOM      9  C   UNL     1      -3.595  -2.046   5.893  0.00  0.00    +0.010 A 
ATOM     10  C   UNL     1      -3.049  -1.348   6.930  0.00  0.00    +0.001 A 
ATOM     11  C   UNL     1      -2.588  -0.050   6.743  0.00  0.00    +0.002 A 
ATOM     12  C   UNL     1      -2.671   0.553   5.509  0.00  0.00    +0.026 A 
ATOM     13  C   UNL     1      -3.221  -0.140   4.434  0.00  0.00    +0.050 A 
ATOM     14  N   UNL     1      -3.429   0.179   3.116  0.00  0.00    -0.331 N 
ATOM     15  C   UNL     1      -3.042   1.414   2.434  0.00  0.00    +0.175 C 
ATOM     16  H   UNL     1      -4.169  -0.185  -0.739  0.00  0.00    +0.178 HD
ENDROOT
BRANCH   1  18
ATOM     17  C   UNL     1      -0.013   1.086   0.008  0.00  0.00    +0.017 C 
ATOM     18  C   UNL     1      -0.729   1.579   1.267  0.00  0.00    +0.004 C 
ATOM     19  C   UNL     1       0.011   1.072   2.506  0.00  0.00    +0.017 C 
ATOM     20  C   UNL     1      -0.750   3.109   1.275  0.00  0.00    +0.017 C 
ENDBRANCH   1  18
TORSDOF 1
