REMARK  Name = ZINC45025395
REMARK  2 active torsions:
REMARK  status: ('A' for Active; 'I' for Inactive)
REMARK    1  A    between atoms: C_1  and  C_2
REMARK    2  A    between atoms: C_2  and  C_3
REMARK                            x       y       z     vdW  Elec       q    Type
REMARK                         _______ _______ _______ _____ _____    ______ ____
ROOT
ATOM      1  C   UNL     1      -1.581  -0.679  -0.005  0.00  0.00    +0.106 C 
ATOM      2  C   UNL     1      -1.567  -2.205   0.056  0.00  0.00    -0.017 A 
ATOM      3  C   UNL     1      -1.399  -3.013  -1.067  0.00  0.00    +0.013 A 
ATOM      4  C   UNL     1      -1.393  -4.359  -0.938  0.00  0.00    +0.046 A 
ATOM      5  S   UNL     1      -1.631  -4.561   0.822  0.00  0.00    -0.101 S 
ATOM      6  C   UNL     1      -1.723  -2.842   1.248  0.00  0.00    -0.004 A 
ATOM      7  C   UNL     1      -1.928  -2.230   2.596  0.00  0.00    +0.061 C 
ATOM      8  C   UNL     1      -1.539  -0.745   2.527  0.00  0.00    +0.112 C 
ATOM      9  N   UNL     1      -2.084  -0.181   1.282  0.00  0.00    -0.308 N 
ATOM     10  C   UNL     1      -3.058   0.804   1.322  0.00  0.00    +0.128 A 
ATOM     11  C   UNL     1      -3.434   1.475   0.158  0.00  0.00    +0.084 A 
ATOM     12  C   UNL     1      -4.411   2.450   0.245  0.00  0.00    +0.136 A 
ATOM     13  N   UNL     1      -4.957   2.717   1.424  0.00  0.00    -0.203 NA
ATOM     14  C   UNL     1      -4.579   2.063   2.513  0.00  0.00    +0.216 A 
ATOM     15  N   UNL     1      -3.651   1.119   2.470  0.00  0.00    -0.200 NA
ATOM     16  N   UNL     1      -5.172   2.371   3.724  0.00  0.00    -0.327 N 
ATOM     17 CL   UNL     1      -4.916   3.316  -1.172  0.00  0.00    -0.062 Cl
ATOM     18  H   UNL     1      -5.855   3.058   3.769  0.00  0.00    +0.145 HD
ATOM     19  H   UNL     1      -4.904   1.900   4.529  0.00  0.00    +0.145 HD
ENDROOT
BRANCH   1  21
ATOM     20  C   UNL     1      -0.200   1.364  -0.409  0.00  0.00    +0.006 C 
ATOM     21  C   UNL     1      -0.163  -0.157  -0.244  0.00  0.00    +0.024 C 
ENDBRANCH   1  21
TORSDOF 1
