REMARK  Name = ZINC16901038
REMARK  5 active torsions:
REMARK  status: ('A' for Active; 'I' for Inactive)
REMARK    1  A    between atoms: C_4  and  N_11
REMARK    2  A    between atoms: C_5  and  C_7
REMARK    3  A    between atoms: N_11  and  C_12
REMARK    4  A    between atoms: N_17  and  C_20
REMARK    5  A    between atoms: C_24  and  C_26
REMARK                            x       y       z     vdW  Elec       q    Type
REMARK                         _______ _______ _______ _____ _____    ______ ____
ROOT
ATOM      1  C   UNL     1       4.892   0.127  -0.035  0.00  0.00    +0.166 C 
ATOM      2  C   UNL     1       6.016  -0.790   0.490  0.00  0.00    +0.128 C 
ATOM      3  C   UNL     1       6.967  -0.892  -0.683  0.00  0.00    +0.228 C 
ATOM      4  O   UNL     1       7.999  -1.528  -0.697  0.00  0.00    -0.275 OA
ATOM      5  N   UNL     1       6.487  -0.169  -1.703  0.00  0.00    -0.209 N 
ATOM      6  C   UNL     1       5.324   0.450  -1.449  0.00  0.00    +0.247 C 
ATOM      7  O   UNL     1       4.715   1.154  -2.225  0.00  0.00    -0.273 OA
ENDROOT
BRANCH   5   8
ATOM      8  C   UNL     1       7.147  -0.066  -2.936  0.00  0.00    +0.045 A 
ATOM      9  C   UNL     1       8.368   0.594  -3.017  0.00  0.00    +0.024 A 
ATOM     10  C   UNL     1       9.023   0.699  -4.230  0.00  0.00    +0.003 A 
ATOM     11  C   UNL     1       8.470   0.149  -5.368  0.00  0.00    +0.015 A 
ATOM     12  C   UNL     1       7.244  -0.515  -5.298  0.00  0.00    +0.065 A 
ATOM     13  C   UNL     1       6.585  -0.625  -4.071  0.00  0.00    +0.039 A 
BRANCH  12  14
ATOM     14  C   UNL     1       6.649  -1.104  -6.513  0.00  0.00    +0.387 C 
ATOM     15  O   UNL     1       7.230  -1.010  -7.585  0.00  0.00    -0.241 OA
ATOM     16  O   UNL     1       5.575  -1.685  -6.449  0.00  0.00    -0.241 OA
ENDBRANCH  12  14
ENDBRANCH   5   8
BRANCH   1  17
ATOM     17  N   UNL     1       3.609  -0.580  -0.036  0.00  0.00    -0.332 N 
ATOM     18  H   UNL     1       3.589  -1.549  -0.060  0.00  0.00    +0.147 HD
BRANCH  17  22
ATOM     19  C   UNL     1       0.046   1.573   0.059  0.00  0.00    +0.001 A 
ATOM     20  C   UNL     1       1.257   2.242   0.061  0.00  0.00    +0.002 A 
ATOM     21  C   UNL     1       2.440   1.531   0.030  0.00  0.00    +0.023 A 
ATOM     22  C   UNL     1       2.414   0.142  -0.004  0.00  0.00    +0.039 A 
ATOM     23  C   UNL     1       1.196  -0.526  -0.006  0.00  0.00    +0.076 A 
ATOM     24  C   UNL     1       0.016   0.191   0.026  0.00  0.00    +0.014 A 
BRANCH  23  25
ATOM     25  C   UNL     1       1.163  -2.033  -0.043  0.00  0.00    +0.419 C 
ATOM     26  F   UNL     1      -0.166  -2.470  -0.037  0.00  0.00    -0.166 F 
ATOM     27  F   UNL     1       1.798  -2.485  -1.204  0.00  0.00    -0.166 F 
ATOM     28  F   UNL     1       1.826  -2.541   1.079  0.00  0.00    -0.166 F 
ENDBRANCH  23  25
ENDBRANCH  17  22
ENDBRANCH   1  17
TORSDOF 5
