REMARK  Name = ZINC01424061
REMARK  7 active torsions:
REMARK  status: ('A' for Active; 'I' for Inactive)
REMARK    1  A    between atoms: C_1  and  O_2
REMARK    2  A    between atoms: O_2  and  C_3
REMARK    3  A    between atoms: C_6  and  N_26
REMARK    4  A    between atoms: C_8  and  C_9
REMARK    5  A    between atoms: N_10  and  N_11
REMARK    6  A    between atoms: C_12  and  C_14
REMARK    7  A    between atoms: C_14  and  C_15
REMARK                            x       y       z     vdW  Elec       q    Type
REMARK                         _______ _______ _______ _____ _____    ______ ____
ROOT
ATOM      1  N   UNL     1      -3.598  -0.853   0.033  0.00  0.00    -0.207 N 
ATOM      2  C   UNL     1      -4.776  -0.199   0.048  0.00  0.00    +0.237 C 
ATOM      3  O   UNL     1      -4.796   1.014   0.055  0.00  0.00    -0.274 OA
ATOM      4  H   UNL     1      -3.581  -1.823   0.028  0.00  0.00    +0.177 HD
ENDROOT
BRANCH   1   6
ATOM      5  C   UNL     1      -1.262  -0.762   0.011  0.00  0.00    +0.142 C 
ATOM      6  N   UNL     1      -2.396  -0.133   0.025  0.00  0.00    -0.188 NA
BRANCH   5  12
ATOM      7  C   UNL     1      -0.017   1.397   0.010  0.00  0.00    +0.129 A 
ATOM      8  C   UNL     1       1.177   2.100   0.002  0.00  0.00    +0.048 A 
ATOM      9  C   UNL     1       2.381   1.422  -0.013  0.00  0.00    +0.036 A 
ATOM     10  C   UNL     1       2.404   0.038  -0.021  0.00  0.00    +0.127 A 
ATOM     11  C   UNL     1       1.225  -0.678  -0.013  0.00  0.00    +0.045 A 
ATOM     12  C   UNL     1       0.002  -0.004   0.002  0.00  0.00    +0.038 A 
BRANCH  10  13
ATOM     13  N   UNL     1       3.700  -0.677  -0.037  0.00  0.00    +0.056 N 
ATOM     14  O   UNL     1       3.724  -1.895  -0.045  0.00  0.00    -0.126 OA
ATOM     15  O   UNL     1       4.743  -0.048  -0.044  0.00  0.00    -0.126 OA
ENDBRANCH  10  13
BRANCH   7  17
ATOM     16  C   UNL     1      -1.142   3.491   0.026  0.00  0.00    +0.277 C 
ATOM     17  O   UNL     1      -1.200   2.063   0.019  0.00  0.00    -0.494 OA
ENDBRANCH   7  17
ENDBRANCH   5  12
ENDBRANCH   1   6
BRANCH   2  18
ATOM     18  C   UNL     1      -6.068  -0.975   0.057  0.00  0.00    +0.133 C 
BRANCH  18  19
ATOM     19  C   UNL     1      -7.230  -0.015   0.074  0.00  0.00    -0.031 A 
ATOM     20  C   UNL     1      -7.814   0.331   1.254  0.00  0.00    +0.006 A 
ATOM     21  C   UNL     1      -8.885   1.222   1.290  0.00  0.00    +0.016 A 
ATOM     22  C   UNL     1      -9.386   1.763   0.144  0.00  0.00    +0.026 A 
ATOM     23  C   UNL     1      -8.812   1.424  -1.093  0.00  0.00    -0.004 A 
ATOM     24  C   UNL     1      -7.719   0.523  -1.129  0.00  0.00    -0.013 A 
ATOM     25  C   UNL     1      -7.145   0.184  -2.366  0.00  0.00    +0.009 A 
ATOM     26  C   UNL     1      -7.645   0.725  -3.511  0.00  0.00    +0.001 A 
ATOM     27  C   UNL     1      -8.721   1.611  -3.476  0.00  0.00    +0.001 A 
ATOM     28  C   UNL     1      -9.301   1.961  -2.296  0.00  0.00    +0.009 A 
ATOM     29 BR   UNL     1     -10.846   2.962   0.219  0.00  0.00    -0.050 Br
ENDBRANCH  18  19
ENDBRANCH   2  18
TORSDOF 6
