REMARK  Name = ZINC01675942
REMARK  1 active torsions:
REMARK  status: ('A' for Active; 'I' for Inactive)
REMARK    1  A    between atoms: C_6  and  N_7
REMARK                            x       y       z     vdW  Elec       q    Type
REMARK                         _______ _______ _______ _____ _____    ______ ____
ROOT
ATOM      1  C   UNL     1       1.209  -0.679  -0.013  0.00  0.00    +0.034 A 
ATOM      2  C   UNL     1       0.002  -0.004   0.002  0.00  0.00    +0.018 A 
ATOM      3  C   UNL     1      -0.017   1.379   0.010  0.00  0.00    +0.031 A 
ATOM      4  C   UNL     1       1.173   2.086   0.002  0.00  0.00    +0.029 A 
ATOM      5  C   UNL     1       2.379   1.411  -0.013  0.00  0.00    +0.048 A 
ATOM      6  C   UNL     1       2.396   0.028  -0.021  0.00  0.00    +0.127 A 
ATOM      7  I   UNL     1       1.146   4.181   0.013  0.00  0.00    -0.043 I 
ATOM      8 BR   UNL     1      -1.667   2.302   0.022  0.00  0.00    -0.049 Br
ENDROOT
BRANCH   6   9
ATOM      9  N   UNL     1       3.688  -0.695  -0.037  0.00  0.00    +0.056 N 
ATOM     10  O   UNL     1       3.703  -1.913  -0.044  0.00  0.00    -0.126 OA
ATOM     11  O   UNL     1       4.734  -0.072  -0.043  0.00  0.00    -0.126 OA
ENDBRANCH   6   9
TORSDOF 1
