REMARK  Name = ZINC06518610
REMARK  8 active torsions:
REMARK  status: ('A' for Active; 'I' for Inactive)
REMARK    1  A    between atoms: C_1  and  C_2
REMARK    2  A    between atoms: C_2  and  C_3
REMARK    3  A    between atoms: C_3  and  C_21
REMARK    4  A    between atoms: C_10  and  N_18
REMARK    5  A    between atoms: C_12  and  S_14
REMARK    6  A    between atoms: S_14  and  C_15
REMARK    7  A    between atoms: C_15  and  C_16
REMARK    8  A    between atoms: C_15  and  C_17
REMARK                            x       y       z     vdW  Elec       q    Type
REMARK                         _______ _______ _______ _____ _____    ______ ____
ROOT
ATOM      1  C   UNL     1      -1.107   1.346  -1.215  0.00  0.00    +0.071 C 
ATOM      2  C   UNL     1      -0.363   0.837  -2.453  0.00  0.00    +0.071 C 
ATOM      3  C   UNL     1      -0.934   1.549  -3.677  0.00  0.00    -0.020 A 
ATOM      4  C   UNL     1      -1.651   2.685  -3.510  0.00  0.00    +0.021 A 
ATOM      5  S   UNL     1      -2.125   3.182  -5.144  0.00  0.00    -0.071 S 
ATOM      6  C   UNL     1      -1.364   1.873  -6.049  0.00  0.00    +0.115 A 
ATOM      7  C   UNL     1      -0.758   1.081  -5.040  0.00  0.00    +0.051 A 
ATOM      8  C   UNL     1      -0.049  -0.078  -5.469  0.00  0.00    +0.129 A 
ATOM      9  N   UNL     1      -0.029  -0.298  -6.781  0.00  0.00    -0.207 NA
ATOM     10  C   UNL     1      -0.619   0.486  -7.670  0.00  0.00    +0.191 A 
ATOM     11  N   UNL     1      -1.298   1.585  -7.334  0.00  0.00    -0.215 NA
ATOM     12  C   UNL     1      -1.960   3.353  -2.207  0.00  0.00    +0.203 C 
ATOM     13  O   UNL     1      -1.115   2.776  -1.200  0.00  0.00    -0.368 OA
ATOM     14  C   UNL     1      -2.548   0.831  -1.245  0.00  0.00    +0.042 C 
ENDROOT
BRANCH   8  15
ATOM     15  N   UNL     1       0.582  -0.924  -4.574  0.00  0.00    -0.343 N 
ATOM     16  H   UNL     1       0.683  -0.661  -3.646  0.00  0.00    +0.144 HD
ATOM     17  H   UNL     1       0.922  -1.781  -4.875  0.00  0.00    +0.144 HD
ENDBRANCH   8  15
BRANCH   1  19
ATOM     18  C   UNL     1      -1.229   1.217   1.277  0.00  0.00    +0.007 C 
ATOM     19  C   UNL     1      -0.410   0.829   0.045  0.00  0.00    +0.032 C 
ENDBRANCH   1  19
BRANCH  10  20
ATOM     20  S   UNL     1      -0.502   0.060  -9.376  0.00  0.00    -0.083 S 
BRANCH  20  21
ATOM     21  C   UNL     1       0.487  -1.452  -9.255  0.00  0.00    +0.048 C 
ATOM     22  C   UNL     1      -0.312  -2.525  -8.512  0.00  0.00    +0.019 C 
ATOM     23  C   UNL     1       0.829  -1.951 -10.660  0.00  0.00    +0.019 C 
ENDBRANCH  20  21
ENDBRANCH  10  20
TORSDOF 4
