REMARK  Name = ZINC36168805
REMARK  7 active torsions:
REMARK  status: ('A' for Active; 'I' for Inactive)
REMARK    1  A    between atoms: C_1  and  C_2
REMARK    2  A    between atoms: C_2  and  C_3
REMARK    3  A    between atoms: N_8  and  S_10
REMARK    4  A    between atoms: S_10  and  C_13
REMARK    5  A    between atoms: C_14  and  C_21
REMARK    6  A    between atoms: C_17  and  N_20
REMARK    7  A    between atoms: C_18  and  C_19
REMARK                            x       y       z     vdW  Elec       q    Type
REMARK                         _______ _______ _______ _____ _____    ______ ____
ROOT
ATOM      1  S   UNL     1      -3.199  -3.409   0.585  0.00  0.00    +0.061 S 
ATOM      2  O   UNL     1      -2.165  -2.936   1.438  0.00  0.00    -0.153 OA
ATOM      3  O   UNL     1      -4.576  -3.207   0.872  0.00  0.00    -0.153 OA
ENDROOT
BRANCH   1   4
ATOM      4  C   UNL     1      -2.966  -5.149   0.429  0.00  0.00    +0.113 A 
ATOM      5  C   UNL     1      -3.999  -5.945  -0.033  0.00  0.00    -0.024 A 
ATOM      6  C   UNL     1      -3.821  -7.311  -0.156  0.00  0.00    +0.007 A 
ATOM      7  C   UNL     1      -2.611  -7.884   0.182  0.00  0.00    +0.023 A 
ATOM      8  C   UNL     1      -1.572  -7.088   0.645  0.00  0.00    +0.029 A 
ATOM      9  C   UNL     1      -1.752  -5.715   0.763  0.00  0.00    -0.003 A 
ATOM     10  C   UNL     1      -0.626  -4.846   1.260  0.00  0.00    +0.048 C 
ATOM     11  C   UNL     1      -5.321  -5.323  -0.402  0.00  0.00    +0.046 C 
BRANCH   8  12
ATOM     12  N   UNL     1      -0.346  -7.665   0.988  0.00  0.00    -0.358 N 
ATOM     13  H   UNL     1      -0.221  -8.622   0.902  0.00  0.00    +0.142 HD
ATOM     14  H   UNL     1       0.378  -7.107   1.311  0.00  0.00    +0.142 HD
ENDBRANCH   8  12
ENDBRANCH   1   4
BRANCH   1  19
ATOM     15  C   UNL     1      -1.646  -0.846  -1.756  0.00  0.00    +0.005 C 
ATOM     16  C   UNL     1      -2.691  -0.717  -2.866  0.00  0.00    +0.006 C 
ATOM     17  C   UNL     1      -4.065  -1.118  -2.324  0.00  0.00    +0.017 C 
ATOM     18  C   UNL     1      -4.022  -2.580  -1.868  0.00  0.00    +0.109 C 
ATOM     19  N   UNL     1      -2.924  -2.743  -0.906  0.00  0.00    -0.176 NA
ATOM     20  C   UNL     1      -1.575  -2.304  -1.292  0.00  0.00    +0.113 C 
BRANCH  15  22
ATOM     21  C   UNL     1      -0.315   1.076  -2.638  0.00  0.00    +0.004 C 
ATOM     22  C   UNL     1      -0.279  -0.413  -2.289  0.00  0.00    +0.001 C 
ENDBRANCH  15  22
ENDBRANCH   1  19
TORSDOF 4
