REMARK  Name = ZINC04360525
REMARK  9 active torsions:
REMARK  status: ('A' for Active; 'I' for Inactive)
REMARK    1  A    between atoms: C_1  and  C_2
REMARK    2  A    between atoms: C_2  and  O_3
REMARK    3  A    between atoms: O_3  and  C_4
REMARK    4  A    between atoms: C_9  and  C_10
REMARK    5  A    between atoms: N_11  and  N_12
REMARK    6  A    between atoms: C_13  and  C_15
REMARK    7  A    between atoms: C_18  and  O_21
REMARK    8  A    between atoms: O_21  and  C_22
REMARK    9  A    between atoms: C_22  and  C_23
REMARK                            x       y       z     vdW  Elec       q    Type
REMARK                         _______ _______ _______ _____ _____    ______ ____
ROOT
ATOM      1  N   UNL     1       3.600   5.951   0.001  0.00  0.00    -0.203 N 
ATOM      2  C   UNL     1       3.579   7.298   0.008  0.00  0.00    +0.263 C 
ATOM      3  O   UNL     1       2.516   7.889   0.021  0.00  0.00    -0.268 OA
ATOM      4  H   UNL     1       4.448   5.480  -0.010  0.00  0.00    +0.178 HD
ENDROOT
BRANCH   2   5
ATOM      5  C   UNL     1       4.844   8.057   0.001  0.00  0.00    +0.039 A 
ATOM      6  C   UNL     1       6.067   7.380  -0.009  0.00  0.00    +0.016 A 
ATOM      7  C   UNL     1       7.246   8.091  -0.021  0.00  0.00    +0.046 A 
ATOM      8  C   UNL     1       7.221   9.481  -0.013  0.00  0.00    +0.121 A 
ATOM      9  C   UNL     1       6.007  10.158   0.002  0.00  0.00    +0.046 A 
ATOM     10  C   UNL     1       4.824   9.454   0.008  0.00  0.00    +0.016 A 
BRANCH   8  11
ATOM     11  O   UNL     1       8.385  10.179  -0.019  0.00  0.00    -0.487 OA
BRANCH  11  12
ATOM     12  C   UNL     1       9.596   9.420  -0.034  0.00  0.00    +0.264 C 
BRANCH  12  13
ATOM     13  C   UNL     1      10.776  10.357  -0.039  0.00  0.00    -0.010 A 
ATOM     14  C   UNL     1      11.310  10.789  -1.239  0.00  0.00    +0.008 A 
ATOM     15  C   UNL     1      12.389  11.653  -1.244  0.00  0.00    +0.020 A 
ATOM     16  C   UNL     1      12.941  12.077  -0.049  0.00  0.00    +0.041 A 
ATOM     17  C   UNL     1      12.410  11.640   1.152  0.00  0.00    +0.020 A 
ATOM     18  C   UNL     1      11.328  10.781   1.156  0.00  0.00    +0.008 A 
ATOM     19 CL   UNL     1      14.300  13.158  -0.055  0.00  0.00    -0.084 Cl
ENDBRANCH  12  13
ENDBRANCH  11  12
ENDBRANCH   8  11
ENDBRANCH   2   5
BRANCH   1  21
ATOM     20  C   UNL     1       2.420   3.933   0.001  0.00  0.00    +0.142 C 
ATOM     21  N   UNL     1       2.399   5.231   0.008  0.00  0.00    -0.187 NA
BRANCH  20  27
ATOM     22  C   UNL     1      -0.071   3.852   0.023  0.00  0.00    +0.129 A 
ATOM     23  C   UNL     1      -1.254   3.130   0.031  0.00  0.00    +0.046 A 
ATOM     24  C   UNL     1      -1.222   1.749   0.017  0.00  0.00    +0.004 A 
ATOM     25  C   UNL     1      -0.013   1.076   0.008  0.00  0.00    +0.001 A 
ATOM     26  C   UNL     1       1.174   1.779   0.000  0.00  0.00    +0.013 A 
ATOM     27  C   UNL     1       1.156   3.175   0.008  0.00  0.00    +0.036 A 
BRANCH  22  28
ATOM     28  O   UNL     1      -0.101   5.210   0.032  0.00  0.00    -0.492 OA
BRANCH  28  30
ATOM     29  C   UNL     1      -1.221   7.351   0.054  0.00  0.00    +0.048 C 
ATOM     30  C   UNL     1      -1.388   5.830   0.047  0.00  0.00    +0.226 C 
ENDBRANCH  28  30
ENDBRANCH  22  28
ENDBRANCH  20  27
ENDBRANCH   1  21
TORSDOF 8
