REMARK  Name = ZINC19420850
REMARK  8 active torsions:
REMARK  status: ('A' for Active; 'I' for Inactive)
REMARK    1  A    between atoms: C_1  and  C_2
REMARK    2  A    between atoms: C_5  and  N_8
REMARK    3  A    between atoms: C_12  and  S_13
REMARK    4  A    between atoms: S_13  and  C_14
REMARK    5  A    between atoms: C_14  and  C_16
REMARK    6  A    between atoms: C_14  and  C_17
REMARK    7  A    between atoms: N_19  and  C_20
REMARK    8  A    between atoms: C_20  and  C_26
REMARK                            x       y       z     vdW  Elec       q    Type
REMARK                         _______ _______ _______ _____ _____    ______ ____
ROOT
ATOM      1  N   UNL     1       0.075  -4.173   0.006  0.00  0.00    -0.259 N 
ATOM      2  C   UNL     1      -0.888  -4.994   0.528  0.00  0.00    +0.225 A 
ATOM      3  N   UNL     1      -0.534  -6.233   0.293  0.00  0.00    -0.112 NA
ATOM      4  N   UNL     1       0.685  -6.214  -0.397  0.00  0.00    -0.120 NA
ATOM      5  C   UNL     1       1.036  -4.962  -0.568  0.00  0.00    +0.198 A 
ATOM      6  N   UNL     1      -2.037  -4.585   1.192  0.00  0.00    -0.299 N 
ATOM      7  C   UNL     1      -2.395  -3.162   1.261  0.00  0.00    +0.108 C 
ATOM      8  C   UNL     1      -3.828  -2.988   0.747  0.00  0.00    +0.019 C 
ATOM      9  C   UNL     1      -4.763  -3.910   1.533  0.00  0.00    +0.003 C 
ATOM     10  C   UNL     1      -4.346  -5.366   1.317  0.00  0.00    +0.019 C 
ATOM     11  C   UNL     1      -2.922  -5.568   1.832  0.00  0.00    +0.108 C 
ENDROOT
BRANCH   1  16
ATOM     12  C   UNL     1       0.071   1.501   0.167  0.00  0.00    +0.044 C 
ATOM     13  C   UNL     1       0.072  -0.006   0.124  0.00  0.00    -0.050 A 
ATOM     14  C   UNL     1      -0.184  -0.662  -1.065  0.00  0.00    +0.005 A 
ATOM     15  C   UNL     1      -0.184  -2.043  -1.108  0.00  0.00    +0.026 A 
ATOM     16  C   UNL     1       0.074  -2.771   0.045  0.00  0.00    +0.052 A 
ATOM     17  C   UNL     1       0.331  -2.109   1.238  0.00  0.00    +0.026 A 
ATOM     18  C   UNL     1       0.334  -0.728   1.273  0.00  0.00    +0.005 A 
ENDBRANCH   1  16
BRANCH   5  19
ATOM     19  S   UNL     1       2.489  -4.396  -1.387  0.00  0.00    -0.073 S 
BRANCH  19  20
ATOM     20  C   UNL     1       3.322  -5.920  -1.907  0.00  0.00    +0.137 C 
ATOM     21  C   UNL     1       3.759  -6.710  -0.672  0.00  0.00    +0.029 C 
BRANCH  20  22
ATOM     22  C   UNL     1       4.533  -5.574  -2.735  0.00  0.00    +0.227 C 
ATOM     23  O   UNL     1       5.075  -4.498  -2.596  0.00  0.00    -0.275 OA
ATOM     24  N   UNL     1       5.013  -6.459  -3.631  0.00  0.00    -0.296 N 
ATOM     25  H   UNL     1       4.579  -7.320  -3.742  0.00  0.00    +0.150 HD
BRANCH  24  26
ATOM     26  C   UNL     1       6.189  -6.122  -4.436  0.00  0.00    +0.121 C 
ATOM     27  C   UNL     1       5.896  -4.875  -5.271  0.00  0.00    +0.041 C 
ATOM     28  C   UNL     1       7.124  -4.523  -6.112  0.00  0.00    +0.003 C 
ATOM     29  C   UNL     1       7.458  -5.692  -7.041  0.00  0.00    +0.000 C 
ATOM     30  C   UNL     1       7.752  -6.939  -6.206  0.00  0.00    +0.003 C 
ATOM     31  C   UNL     1       6.523  -7.291  -5.365  0.00  0.00    +0.041 C 
BRANCH  26  32
ATOM     32  C   UNL     1       7.333  -5.860  -3.547  0.00  0.00    +0.088 C 
ATOM     33  N   UNL     1       8.216  -5.657  -2.861  0.00  0.00    -0.194 NA
ENDBRANCH  26  32
ENDBRANCH  24  26
ENDBRANCH  20  22
ENDBRANCH  19  20
ENDBRANCH   5  19
TORSDOF 6
