REMARK  Name = ZINC39666038
REMARK  11 active torsions:
REMARK  status: ('A' for Active; 'I' for Inactive)
REMARK    1  A    between atoms: C_1  and  C_2
REMARK    2  A    between atoms: C_2  and  C_3
REMARK    3  A    between atoms: C_3  and  C_5
REMARK    4  A    between atoms: C_3  and  C_6
REMARK    5  A    between atoms: C_10  and  C_19
REMARK    6  A    between atoms: N_21  and  C_22
REMARK    7  A    between atoms: C_22  and  C_23
REMARK    8  A    between atoms: C_23  and  C_25
REMARK    9  A    between atoms: C_23  and  O_26
REMARK   10  A    between atoms: O_26  and  C_27
REMARK   11  A    between atoms: C_30  and  C_33
REMARK                            x       y       z     vdW  Elec       q    Type
REMARK                         _______ _______ _______ _____ _____    ______ ____
ROOT
ATOM      1  C   UNL     1      -1.441  -2.165  -0.029  0.00  0.00    +0.218 C 
ATOM      2  O   UNL     1      -0.398  -2.751   0.170  0.00  0.00    -0.275 OA
ATOM      3  N   UNL     1      -2.585  -2.860  -0.185  0.00  0.00    -0.300 N 
ATOM      4  C   UNL     1      -3.924  -2.336  -0.542  0.00  0.00    +0.121 C 
ATOM      5  C   UNL     1      -4.510  -3.390  -1.508  0.00  0.00    +0.100 C 
ATOM      6  C   UNL     1      -3.762  -4.691  -1.170  0.00  0.00    -0.004 C 
ATOM      7  C   UNL     1      -2.786  -4.322  -0.043  0.00  0.00    +0.115 C 
ATOM      8  C   UNL     1      -4.744  -5.757  -0.693  0.00  0.00    -0.010 C 
ATOM      9  C   UNL     1      -3.984  -7.058  -0.418  0.00  0.00    -0.082 C 
ATOM     10  N   UNL     1      -3.309  -7.500  -1.644  0.00  0.00    +0.379 N 
ATOM     11  C   UNL     1      -2.301  -6.511  -2.045  0.00  0.00    -0.082 C 
ATOM     12  C   UNL     1      -2.989  -5.188  -2.388  0.00  0.00    -0.010 C 
ATOM     13  H   UNL     1      -2.860  -8.388  -1.478  0.00  0.00    -0.086 HD
ATOM     14  H   UNL     1      -3.989  -7.603  -2.383  0.00  0.00    -0.086 HD
ENDROOT
BRANCH   5  15
ATOM     15  C   UNL     1      -4.255  -2.992  -2.939  0.00  0.00    +0.218 C 
ATOM     16  O   UNL     1      -3.318  -2.269  -3.209  0.00  0.00    -0.275 OA
ATOM     17  N   UNL     1      -5.066  -3.438  -3.918  0.00  0.00    -0.312 N 
ATOM     18  H   UNL     1      -5.815  -4.015  -3.702  0.00  0.00    +0.149 HD
BRANCH  17  19
ATOM     19  C   UNL     1      -4.817  -3.050  -5.309  0.00  0.00    +0.148 C 
BRANCH  19  20
ATOM     20  C   UNL     1      -5.875  -3.687  -6.212  0.00  0.00    +0.187 C 
ATOM     21  C   UNL     1      -5.615  -3.282  -7.665  0.00  0.00    +0.053 C 
BRANCH  20  22
ATOM     22  O   UNL     1      -5.808  -5.109  -6.095  0.00  0.00    -0.488 OA
BRANCH  22  23
ATOM     23  C   UNL     1      -6.939  -5.806  -6.381  0.00  0.00    +0.121 A 
ATOM     24  C   UNL     1      -6.982  -7.177  -6.174  0.00  0.00    +0.046 A 
ATOM     25  C   UNL     1      -8.133  -7.883  -6.465  0.00  0.00    +0.007 A 
ATOM     26  C   UNL     1      -9.242  -7.224  -6.962  0.00  0.00    -0.050 A 
ATOM     27  C   UNL     1      -9.202  -5.857  -7.170  0.00  0.00    +0.007 A 
ATOM     28  C   UNL     1      -8.055  -5.146  -6.875  0.00  0.00    +0.046 A 
ATOM     29  C   UNL     1     -10.497  -7.996  -7.279  0.00  0.00    +0.044 C 
ENDBRANCH  22  23
ENDBRANCH  20  22
ENDBRANCH  19  20
ENDBRANCH  17  19
ENDBRANCH   5  15
BRANCH   1  30
ATOM     30  C   UNL     1      -1.458  -0.660  -0.102  0.00  0.00    +0.072 C 
ATOM     31  C   UNL     1      -0.161  -0.166  -0.747  0.00  0.00    +0.017 C 
BRANCH  30  33
ATOM     32  C   UNL     1      -1.720   1.440   1.227  0.00  0.00    +0.004 C 
ATOM     33  C   UNL     1      -1.577  -0.082   1.309  0.00  0.00    +0.009 C 
ENDBRANCH  30  33
ENDBRANCH   1  30
TORSDOF 7
