REMARK  Name = ZINC39928175
REMARK  11 active torsions:
REMARK  status: ('A' for Active; 'I' for Inactive)
REMARK    1  A    between atoms: C_1  and  C_2
REMARK    2  A    between atoms: C_2  and  C_3
REMARK    3  A    between atoms: C_2  and  C_4
REMARK    4  A    between atoms: C_2  and  N_5
REMARK    5  A    between atoms: N_5  and  C_6
REMARK    6  A    between atoms: C_6  and  C_7
REMARK    7  A    between atoms: C_19  and  C_21
REMARK    8  A    between atoms: C_23  and  O_29
REMARK    9  A    between atoms: C_25  and  O_27
REMARK   10  A    between atoms: O_27  and  C_28
REMARK   11  A    between atoms: O_29  and  C_30
REMARK                            x       y       z     vdW  Elec       q    Type
REMARK                         _______ _______ _______ _____ _____    ______ ____
ROOT
ATOM      1  N   UNL     1       0.469  -0.062  -1.425  0.00  0.00    -0.291 N 
ATOM      2  C   UNL     1      -0.219  -0.847  -2.277  0.00  0.00    +0.247 C 
ATOM      3  O   UNL     1      -1.148  -1.517  -1.872  0.00  0.00    -0.270 OA
ENDROOT
BRANCH   2   4
ATOM      4  C   UNL     1       0.159  -0.894  -3.707  0.00  0.00    +0.044 A 
ATOM      5  C   UNL     1       1.484  -0.682  -4.087  0.00  0.00    +0.059 A 
ATOM      6  C   UNL     1       1.833  -0.727  -5.427  0.00  0.00    +0.124 A 
ATOM      7  C   UNL     1       0.867  -0.982  -6.389  0.00  0.00    +0.091 A 
ATOM      8  C   UNL     1      -0.452  -1.193  -6.015  0.00  0.00    +0.124 A 
ATOM      9  C   UNL     1      -0.809  -1.156  -4.677  0.00  0.00    +0.059 A 
BRANCH   8  10
ATOM     10  O   UNL     1      -1.395  -1.443  -6.962  0.00  0.00    -0.495 OA
ATOM     11  C   UNL     1      -0.956  -1.473  -8.322  0.00  0.00    +0.277 C 
ENDBRANCH   8  10
BRANCH   6  12
ATOM     12  O   UNL     1       3.124  -0.521  -5.799  0.00  0.00    -0.495 OA
ATOM     13  C   UNL     1       3.414  -0.582  -7.197  0.00  0.00    +0.277 C 
ENDBRANCH   6  12
ENDBRANCH   2   4
BRANCH   1  15
ATOM     14  C   UNL     1      -0.565   1.544   0.103  0.00  0.00    +0.031 C 
ATOM     15  C   UNL     1      -0.012   0.127  -0.053  0.00  0.00    +0.029 C 
ATOM     16  C   UNL     1       1.145  -0.080   0.926  0.00  0.00    +0.031 C 
ATOM     17  C   UNL     1      -1.119  -0.888   0.243  0.00  0.00    +0.031 C 
ENDBRANCH   1  15
BRANCH   1  18
ATOM     18  C   UNL     1       1.696   0.603  -1.868  0.00  0.00    +0.125 C 
BRANCH  18  19
ATOM     19  C   UNL     1       2.911  -0.157  -1.332  0.00  0.00    +0.116 C 
ATOM     20  C   UNL     1       4.145   0.675  -1.621  0.00  0.00    -0.003 C 
ATOM     21  C   UNL     1       5.126   0.098  -2.371  0.00  0.00    -0.007 A 
ATOM     22  C   UNL     1       6.350   0.829  -2.698  0.00  0.00    +0.009 A 
ATOM     23  C   UNL     1       7.300   0.214  -3.448  0.00  0.00    +0.001 A 
ATOM     24  C   UNL     1       7.130  -1.092  -3.909  0.00  0.00    +0.002 A 
ATOM     25  C   UNL     1       6.017  -1.824  -3.640  0.00  0.00    +0.024 A 
ATOM     26  C   UNL     1       4.973  -1.280  -2.870  0.00  0.00    +0.040 A 
ATOM     27  N   UNL     1       3.886  -2.008  -2.612  0.00  0.00    -0.284 N 
ATOM     28  C   UNL     1       2.869  -1.558  -1.899  0.00  0.00    +0.226 C 
ATOM     29  O   UNL     1       1.903  -2.269  -1.697  0.00  0.00    -0.275 OA
ATOM     30  H   UNL     1       3.839  -2.910  -2.966  0.00  0.00    +0.155 HD
ENDBRANCH  18  19
ENDBRANCH   1  18
TORSDOF 6
