REMARK  Name = ZINC36347729
REMARK  11 active torsions:
REMARK  status: ('A' for Active; 'I' for Inactive)
REMARK    1  A    between atoms: C_1  and  O_2
REMARK    2  A    between atoms: O_2  and  C_3
REMARK    3  A    between atoms: C_8  and  C_9
REMARK    4  A    between atoms: N_19  and  C_20
REMARK    5  A    between atoms: C_20  and  C_21
REMARK    6  A    between atoms: C_24  and  O_31
REMARK    7  A    between atoms: C_25  and  O_29
REMARK    8  A    between atoms: C_26  and  O_27
REMARK    9  A    between atoms: O_27  and  C_28
REMARK   10  A    between atoms: O_29  and  C_30
REMARK   11  A    between atoms: O_31  and  C_32
REMARK                            x       y       z     vdW  Elec       q    Type
REMARK                         _______ _______ _______ _____ _____    ______ ____
ROOT
ATOM      1  C   UNL     1       0.112  -2.818   0.131  0.00  0.00    +0.014 C 
ATOM      2  C   UNL     1      -1.384  -2.817  -0.071  0.00  0.00    +0.010 A 
ATOM      3  C   UNL     1      -2.131  -1.774  -0.483  0.00  0.00    +0.021 A 
ATOM      4  C   UNL     1      -3.472  -2.203  -0.519  0.00  0.00    +0.019 A 
ATOM      5  C   UNL     1      -3.494  -3.495  -0.131  0.00  0.00    +0.086 A 
ATOM      6  N   UNL     1      -2.216  -3.880   0.137  0.00  0.00    -0.352 N 
ATOM      7  C   UNL     1      -1.779  -5.214   0.564  0.00  0.00    +0.119 C 
ATOM      8  C   UNL     1      -0.800  -5.067   1.732  0.00  0.00    +0.003 C 
ATOM      9  C   UNL     1       0.618  -4.912   1.198  0.00  0.00    -0.075 C 
ATOM     10  N   UNL     1       0.627  -4.179  -0.069  0.00  0.00    +0.391 N 
ATOM     11  H   UNL     1       0.047  -4.662  -0.738  0.00  0.00    -0.080 HD
ENDROOT
BRANCH   1  17
ATOM     12  C   UNL     1       1.430  -0.757  -0.418  0.00  0.00    +0.122 A 
ATOM     13  C   UNL     1       2.025   0.097  -1.335  0.00  0.00    +0.046 A 
ATOM     14  C   UNL     1       1.940  -0.174  -2.687  0.00  0.00    +0.004 A 
ATOM     15  C   UNL     1       1.262  -1.296  -3.127  0.00  0.00    +0.000 A 
ATOM     16  C   UNL     1       0.667  -2.149  -2.215  0.00  0.00    +0.006 A 
ATOM     17  C   UNL     1       0.755  -1.885  -0.862  0.00  0.00    -0.014 A 
BRANCH  12  19
ATOM     18  C   UNL     1       2.223   0.686   1.296  0.00  0.00    +0.277 C 
ATOM     19  O   UNL     1       1.513  -0.493   0.912  0.00  0.00    -0.495 OA
ENDBRANCH  12  19
ENDBRANCH   1  17
BRANCH  10  20
ATOM     20  C   UNL     1       2.002  -4.109  -0.582  0.00  0.00    -0.038 C 
BRANCH  20  21
ATOM     21  C   UNL     1       2.510  -5.502  -0.852  0.00  0.00    -0.018 A 
ATOM     22  C   UNL     1       3.334  -6.126   0.066  0.00  0.00    +0.009 A 
ATOM     23  C   UNL     1       3.802  -7.404  -0.177  0.00  0.00    +0.050 A 
ATOM     24  C   UNL     1       3.446  -8.064  -1.344  0.00  0.00    +0.165 A 
ATOM     25  C   UNL     1       2.618  -7.440  -2.269  0.00  0.00    +0.204 A 
ATOM     26  C   UNL     1       2.145  -6.157  -2.018  0.00  0.00    +0.167 A 
BRANCH  26  27
ATOM     27  O   UNL     1       1.330  -5.544  -2.917  0.00  0.00    -0.491 OA
ATOM     28  C   UNL     1       1.959  -4.766  -3.938  0.00  0.00    +0.277 C 
ENDBRANCH  26  27
BRANCH  25  29
ATOM     29  O   UNL     1       2.267  -8.085  -3.414  0.00  0.00    -0.488 OA
ATOM     30  C   UNL     1       1.079  -8.878  -3.375  0.00  0.00    +0.277 C 
ENDBRANCH  25  29
BRANCH  24  31
ATOM     31  O   UNL     1       3.908  -9.321  -1.582  0.00  0.00    -0.491 OA
ATOM     32  C   UNL     1       4.755  -9.901  -0.588  0.00  0.00    +0.277 C 
ENDBRANCH  24  31
ENDBRANCH  20  21
ENDBRANCH  10  20
TORSDOF 7
