REMARK  Name = ZINC13004721
REMARK  5 active torsions:
REMARK  status: ('A' for Active; 'I' for Inactive)
REMARK    1  A    between atoms: C_1  and  O_2
REMARK    2  A    between atoms: O_2  and  C_3
REMARK    3  A    between atoms: C_6  and  O_27
REMARK    4  A    between atoms: C_12  and  O_14
REMARK    5  A    between atoms: O_27  and  C_28
REMARK                            x       y       z     vdW  Elec       q    Type
REMARK                         _______ _______ _______ _____ _____    ______ ____
ROOT
ATOM      1  C   UNL     1      -0.480   0.862   2.449  0.00  0.00    +0.125 A 
ATOM      2  C   UNL     1      -1.093   1.272   3.621  0.00  0.00    +0.049 A 
ATOM      3  C   UNL     1      -1.960   2.348   3.604  0.00  0.00    +0.049 A 
ATOM      4  C   UNL     1      -2.204   3.010   2.422  0.00  0.00    +0.126 A 
ATOM      5  C   UNL     1      -1.593   2.599   1.242  0.00  0.00    +0.032 A 
ATOM      6  C   UNL     1      -0.731   1.528   1.253  0.00  0.00    +0.021 A 
ATOM      7  C   UNL     1      -0.037   1.047   0.006  0.00  0.00    +0.146 C 
ATOM      8  N   UNL     1      -0.714   1.568  -1.186  0.00  0.00    -0.307 N 
ATOM      9  C   UNL     1      -0.856   3.029  -1.093  0.00  0.00    +0.143 C 
ATOM     10  C   UNL     1      -1.906   3.348  -0.028  0.00  0.00    +0.166 C 
ATOM     11  C   UNL     1      -0.037   1.208  -2.338  0.00  0.00    +0.133 A 
ATOM     12  C   UNL     1      -0.751   0.868  -3.519  0.00  0.00    +0.051 A 
ATOM     13  C   UNL     1      -2.208   0.846  -3.733  0.00  0.00    -0.025 A 
ATOM     14  C   UNL     1      -2.636   0.495  -4.956  0.00  0.00    -0.004 A 
ATOM     15  S   UNL     1      -1.157   0.182  -5.893  0.00  0.00    -0.073 S 
ATOM     16  C   UNL     1       0.039   0.525  -4.631  0.00  0.00    +0.114 A 
ATOM     17  N   UNL     1       1.356   0.511  -4.562  0.00  0.00    -0.228 NA
ATOM     18  C   UNL     1       1.966   0.830  -3.436  0.00  0.00    +0.224 A 
ATOM     19  N   UNL     1       1.286   1.169  -2.355  0.00  0.00    -0.220 NA
ATOM     20  C   UNL     1      -4.138   0.506  -5.057  0.00  0.00    +0.043 C 
ATOM     21  C   UNL     1      -4.603   1.335  -3.839  0.00  0.00    +0.010 C 
ATOM     22  C   UNL     1      -3.432   1.131  -2.857  0.00  0.00    +0.037 C 
ENDROOT
BRANCH   1  24
ATOM     23  C   UNL     1       0.587  -0.837   3.727  0.00  0.00    +0.277 C 
ATOM     24  O   UNL     1       0.373  -0.197   2.467  0.00  0.00    -0.495 OA
ENDBRANCH   1  24
BRANCH  10  25
ATOM     25  O   UNL     1      -1.900   4.752   0.238  0.00  0.00    -0.385 OA
ATOM     26  H   UNL     1      -2.101   5.299  -0.533  0.00  0.00    +0.210 HD
ENDBRANCH  10  25
BRANCH   4  27
ATOM     27  O   UNL     1      -3.057   4.069   2.409  0.00  0.00    -0.495 OA
ATOM     28  C   UNL     1      -3.650   4.440   3.655  0.00  0.00    +0.277 C 
ENDBRANCH   4  27
TORSDOF 3
