REMARK  Name = ZINC20494398
REMARK  5 active torsions:
REMARK  status: ('A' for Active; 'I' for Inactive)
REMARK    1  A    between atoms: C_1  and  O_2
REMARK    2  A    between atoms: O_2  and  C_3
REMARK    3  A    between atoms: C_6  and  N_9
REMARK    4  A    between atoms: C_13  and  N_17
REMARK    5  A    between atoms: N_20  and  C_23
REMARK                            x       y       z     vdW  Elec       q    Type
REMARK                         _______ _______ _______ _____ _____    ______ ____
ROOT
ATOM      1  N   UNL     1       2.468  -4.876   6.608  0.00  0.00    -0.295 NA
ATOM      2  C   UNL     1       3.145  -5.018   7.905  0.00  0.00    +0.066 C 
ATOM      3  C   UNL     1       2.196  -5.688   8.901  0.00  0.00    -0.062 C 
ATOM      4  N   UNL     1       1.801  -7.007   8.389  0.00  0.00    +0.385 N 
ATOM      5  C   UNL     1       1.105  -6.847   7.105  0.00  0.00    -0.062 C 
ATOM      6  C   UNL     1       2.044  -6.186   6.094  0.00  0.00    +0.066 C 
ATOM      7  H   UNL     1       2.623  -7.577   8.257  0.00  0.00    -0.081 HD
ENDROOT
BRANCH   4   8
ATOM      8  C   UNL     1       0.905  -7.658   9.354  0.00  0.00    -0.065 C 
ATOM      9  C   UNL     1      -0.342  -6.794   9.555  0.00  0.00    -0.009 C 
ATOM     10  C   UNL     1      -1.275  -7.473  10.560  0.00  0.00    -0.012 C 
ATOM     11  C   UNL     1      -1.687  -8.846  10.027  0.00  0.00    +0.007 C 
ATOM     12  C   UNL     1      -0.441  -9.710   9.825  0.00  0.00    -0.012 C 
ATOM     13  C   UNL     1       0.493  -9.032   8.820  0.00  0.00    -0.009 C 
ATOM     14  C   UNL     1       0.285  -9.878  11.162  0.00  0.00    +0.007 C 
ATOM     15  C   UNL     1       0.697  -8.505  11.695  0.00  0.00    -0.012 C 
ATOM     16  C   UNL     1      -0.550  -7.641  11.897  0.00  0.00    +0.007 C 
ATOM     17  C   UNL     1       1.630  -7.826  10.690  0.00  0.00    -0.009 C 
ENDBRANCH   4   8
BRANCH   1  22
ATOM     18  N   UNL     1       2.540  -2.504   4.233  0.00  0.00    -0.209 N 
ATOM     19  C   UNL     1       3.193  -1.830   5.187  0.00  0.00    +0.228 C 
ATOM     20  O   UNL     1       3.307  -0.624   5.242  0.00  0.00    -0.275 OA
ATOM     21  C   UNL     1       3.767  -2.810   6.186  0.00  0.00    +0.125 C 
ATOM     22  C   UNL     1       3.328  -4.183   5.639  0.00  0.00    +0.153 C 
ATOM     23  C   UNL     1       2.547  -3.834   4.391  0.00  0.00    +0.244 C 
ATOM     24  O   UNL     1       2.014  -4.631   3.649  0.00  0.00    -0.273 OA
BRANCH  18  28
ATOM     25  C   UNL     1       0.625  -0.618   1.043  0.00  0.00    +0.120 A 
ATOM     26  C   UNL     1      -0.122  -1.279   2.007  0.00  0.00    +0.047 A 
ATOM     27  C   UNL     1       0.512  -1.904   3.063  0.00  0.00    +0.027 A 
ATOM     28  C   UNL     1       1.896  -1.870   3.160  0.00  0.00    +0.044 A 
ATOM     29  C   UNL     1       2.643  -1.208   2.195  0.00  0.00    +0.027 A 
ATOM     30  C   UNL     1       2.009  -0.588   1.137  0.00  0.00    +0.047 A 
BRANCH  25  32
ATOM     31  C   UNL     1      -1.426  -0.074  -0.030  0.00  0.00    +0.277 C 
ATOM     32  O   UNL     1       0.001  -0.003   0.003  0.00  0.00    -0.495 OA
ENDBRANCH  25  32
ENDBRANCH  18  28
ENDBRANCH   1  22
TORSDOF 4
