REMARK  Name = ZINC50893618
REMARK  6 active torsions:
REMARK  status: ('A' for Active; 'I' for Inactive)
REMARK    1  A    between atoms: C_1  and  C_2
REMARK    2  A    between atoms: C_2  and  C_3
REMARK    3  A    between atoms: C_3  and  C_4
REMARK    4  A    between atoms: N_7  and  C_10
REMARK    5  A    between atoms: C_16  and  N_18
REMARK    6  A    between atoms: N_18  and  C_19
REMARK                            x       y       z     vdW  Elec       q    Type
REMARK                         _______ _______ _______ _____ _____    ______ ____
ROOT
ATOM      1  C   UNL     1      -2.293  -6.071  -1.326  0.00  0.00    -0.046 C 
ATOM      2  C   UNL     1      -3.728  -6.547  -1.089  0.00  0.00    +0.051 C 
ATOM      3  C   UNL     1      -3.802  -8.061  -1.293  0.00  0.00    +0.169 C 
ATOM      4  C   UNL     1      -3.374  -8.414  -2.719  0.00  0.00    +0.066 C 
ATOM      5  C   UNL     1      -1.940  -7.935  -2.953  0.00  0.00    +0.022 C 
ATOM      6  C   UNL     1      -1.869  -6.420  -2.755  0.00  0.00    +0.040 C 
ATOM      7  O   UNL     1      -5.150  -8.508  -1.075  0.00  0.00    -0.346 OA
ATOM      8  C   UNL     1      -5.013  -9.804  -0.445  0.00  0.00    +0.191 C 
ATOM      9  C   UNL     1      -3.761  -9.591   0.443  0.00  0.00    +0.191 C 
ATOM     10  O   UNL     1      -2.939  -8.716  -0.355  0.00  0.00    -0.346 OA
ENDROOT
BRANCH   1  14
ATOM     11  C   UNL     1      -3.337  -2.042  -0.415  0.00  0.00    -0.014 C 
ATOM     12  C   UNL     1      -2.352  -2.787   0.490  0.00  0.00    -0.015 C 
ATOM     13  C   UNL     1      -2.505  -4.294   0.268  0.00  0.00    -0.078 C 
ATOM     14  N   UNL     1      -2.222  -4.616  -1.136  0.00  0.00    +0.383 N 
ATOM     15  C   UNL     1      -3.207  -3.962  -2.005  0.00  0.00    -0.078 C 
ATOM     16  C   UNL     1      -3.082  -2.442  -1.871  0.00  0.00    -0.015 C 
ATOM     17  H   UNL     1      -1.297  -4.293  -1.375  0.00  0.00    -0.081 HD
BRANCH  11  18
ATOM     18  C   UNL     1      -3.136  -0.533  -0.257  0.00  0.00    +0.003 C 
BRANCH  18  20
ATOM     19  C   UNL     1      -3.310   1.394   1.324  0.00  0.00    +0.004 C 
ATOM     20  C   UNL     1      -3.512  -0.115   1.166  0.00  0.00    -0.003 C 
ENDBRANCH  18  20
ENDBRANCH  11  18
ENDBRANCH   1  14
BRANCH   6  21
ATOM     21  N   UNL     1      -0.493  -5.959  -2.983  0.00  0.00    -0.318 NA
ATOM     22  C   UNL     1      -0.260  -5.683  -4.407  0.00  0.00    +0.101 C 
ATOM     23  H   UNL     1      -0.285  -5.149  -2.419  0.00  0.00    +0.122 HD
ENDBRANCH   6  21
TORSDOF 4
