REMARK  Name = ZINC36358084
REMARK  8 active torsions:
REMARK  status: ('A' for Active; 'I' for Inactive)
REMARK    1  A    between atoms: C_1  and  C_2
REMARK    2  A    between atoms: C_2  and  O_3
REMARK    3  A    between atoms: O_3  and  C_4
REMARK    4  A    between atoms: C_4  and  C_6
REMARK    5  A    between atoms: C_7  and  C_25
REMARK    6  A    between atoms: N_11  and  C_12
REMARK    7  A    between atoms: C_12  and  C_14
REMARK    8  A    between atoms: N_22  and  C_23
REMARK                            x       y       z     vdW  Elec       q    Type
REMARK                         _______ _______ _______ _____ _____    ______ ____
ROOT
ATOM      1  C   UNL     1       1.449  -2.344  -2.517  0.00  0.00    +0.118 A 
ATOM      2  C   UNL     1       1.654  -3.643  -2.866  0.00  0.00    +0.036 A 
ATOM      3  N   UNL     1       2.308  -3.870  -4.019  0.00  0.00    -0.339 N 
ATOM      4  H   UNL     1       2.480  -4.777  -4.315  0.00  0.00    +0.167 HD
ATOM      5  C   UNL     1       2.727  -2.808  -4.767  0.00  0.00    +0.164 A 
ATOM      6  N   UNL     1       3.382  -2.822  -5.924  0.00  0.00    -0.152 NA
ATOM      7  S   UNL     1       2.208  -1.478  -3.878  0.00  0.00    -0.046 S 
ATOM      8  C   UNL     1       1.169  -4.777  -2.000  0.00  0.00    +0.065 C 
ENDROOT
BRANCH   1   9
ATOM      9  C   UNL     1       0.776  -1.800  -1.335  0.00  0.00    +0.348 C 
ATOM     10  O   UNL     1       0.312  -2.552  -0.499  0.00  0.00    -0.244 OA
BRANCH   9  11
ATOM     11  O   UNL     1       0.671  -0.465  -1.174  0.00  0.00    -0.461 OA
BRANCH  11  13
ATOM     12  C   UNL     1      -0.019   1.526   0.010  0.00  0.00    +0.048 C 
ATOM     13  C   UNL     1       0.002  -0.004   0.002  0.00  0.00    +0.229 C 
ENDBRANCH  11  13
ENDBRANCH   9  11
ENDBRANCH   1   9
BRANCH   6  14
ATOM     14  C   UNL     1       3.709  -3.986  -6.493  0.00  0.00    +0.269 C 
ATOM     15  O   UNL     1       3.407  -5.036  -5.950  0.00  0.00    -0.268 OA
BRANCH  14  16
ATOM     16  C   UNL     1       4.438  -4.002  -7.780  0.00  0.00    +0.039 A 
ATOM     17  C   UNL     1       4.790  -2.796  -8.400  0.00  0.00    +0.015 A 
ATOM     18  C   UNL     1       5.462  -2.793  -9.586  0.00  0.00    +0.027 A 
ATOM     19  C   UNL     1       5.808  -3.996 -10.199  0.00  0.00    +0.049 A 
ATOM     20  C   UNL     1       5.460  -5.215  -9.586  0.00  0.00    +0.001 A 
ATOM     21  C   UNL     1       4.779  -5.214  -8.371  0.00  0.00    +0.023 A 
ATOM     22  C   UNL     1       5.961  -6.271 -10.471  0.00  0.00    +0.027 A 
ATOM     23  C   UNL     1       6.550  -5.662 -11.511  0.00  0.00    +0.086 A 
ATOM     24  N   UNL     1       6.468  -4.303 -11.365  0.00  0.00    -0.350 N 
ATOM     25  C   UNL     1       7.004  -3.322 -12.312  0.00  0.00    +0.149 C 
ENDBRANCH  14  16
ENDBRANCH   6  14
TORSDOF 5
