REMARK  Name = ZINC59119990
REMARK  6 active torsions:
REMARK  status: ('A' for Active; 'I' for Inactive)
REMARK    1  A    between atoms: C_6  and  C_7
REMARK    2  A    between atoms: C_7  and  C_9
REMARK    3  A    between atoms: C_7  and  O_24
REMARK    4  A    between atoms: C_9  and  N_10
REMARK    5  A    between atoms: C_11  and  C_13
REMARK    6  A    between atoms: N_15  and  C_16
REMARK                            x       y       z     vdW  Elec       q    Type
REMARK                         _______ _______ _______ _____ _____    ______ ____
ROOT
ATOM      1  N   UNL     1      -2.900  -1.921   1.454  0.00  0.00    -0.305 N 
ATOM      2  C   UNL     1      -3.418  -2.354   2.621  0.00  0.00    +0.299 C 
ATOM      3  O   UNL     1      -2.837  -2.131   3.663  0.00  0.00    -0.265 OA
ATOM      4  H   UNL     1      -3.365  -2.099   0.622  0.00  0.00    +0.149 HD
ENDROOT
BRANCH   2   5
ATOM      5  C   UNL     1      -4.707  -3.109   2.631  0.00  0.00    +0.303 C 
ATOM      6  O   UNL     1      -5.288  -3.332   1.589  0.00  0.00    -0.265 OA
ATOM      7  N   UNL     1      -5.226  -3.542   3.797  0.00  0.00    -0.276 N 
ATOM      8  H   UNL     1      -4.730  -3.421   4.623  0.00  0.00    +0.155 HD
BRANCH   7   9
ATOM      9  C   UNL     1      -6.477  -4.165   3.818  0.00  0.00    +0.054 A 
ATOM     10  C   UNL     1      -6.870  -4.970   2.757  0.00  0.00    +0.044 A 
ATOM     11  C   UNL     1      -8.108  -5.584   2.781  0.00  0.00    +0.043 A 
ATOM     12  C   UNL     1      -8.955  -5.397   3.860  0.00  0.00    +0.021 A 
ATOM     13  C   UNL     1      -8.566  -4.596   4.917  0.00  0.00    +0.023 A 
ATOM     14  C   UNL     1      -7.327  -3.984   4.903  0.00  0.00    +0.062 A 
ATOM     15 CL   UNL     1      -6.837  -2.984   6.234  0.00  0.00    -0.082 Cl
ATOM     16 CL   UNL     1      -8.602  -6.591   1.456  0.00  0.00    -0.083 Cl
ENDBRANCH   7   9
ENDBRANCH   2   5
BRANCH   1  17
ATOM     17  C   UNL     1      -1.636  -1.181   1.444  0.00  0.00    +0.140 C 
BRANCH  17  18
ATOM     18  C   UNL     1      -1.274  -0.809   0.005  0.00  0.00    +0.162 C 
BRANCH  18  24
ATOM     19  C   UNL     1       0.018   1.334   0.001  0.00  0.00    +0.007 A 
ATOM     20  C   UNL     1       1.211   2.033  -0.008  0.00  0.00    +0.020 A 
ATOM     21  C   UNL     1       2.413   1.348  -0.023  0.00  0.00    +0.041 A 
ATOM     22  C   UNL     1       2.421  -0.035  -0.029  0.00  0.00    +0.020 A 
ATOM     23  C   UNL     1       1.227  -0.733  -0.020  0.00  0.00    +0.007 A 
ATOM     24  C   UNL     1       0.026  -0.048  -0.005  0.00  0.00    -0.018 A 
ATOM     25 CL   UNL     1       3.911   2.225  -0.035  0.00  0.00    -0.084 Cl
ENDBRANCH  18  24
BRANCH  18  26
ATOM     26  O   UNL     1      -1.136  -1.999  -0.774  0.00  0.00    -0.386 OA
ATOM     27  H   UNL     1      -0.451  -2.601  -0.454  0.00  0.00    +0.210 HD
ENDBRANCH  18  26
ENDBRANCH  17  18
ENDBRANCH   1  17
TORSDOF 6
