REMARK  Name = ZINC38793157
REMARK  7 active torsions:
REMARK  status: ('A' for Active; 'I' for Inactive)
REMARK    1  A    between atoms: C_1  and  C_2
REMARK    2  A    between atoms: C_5  and  C_8
REMARK    3  A    between atoms: C_8  and  O_9
REMARK    4  A    between atoms: O_9  and  C_10
REMARK    5  A    between atoms: C_15  and  C_16
REMARK    6  A    between atoms: C_17  and  C_18
REMARK    7  A    between atoms: C_23  and  C_26
REMARK                            x       y       z     vdW  Elec       q    Type
REMARK                         _______ _______ _______ _____ _____    ______ ____
ROOT
ATOM      1  C   UNL     1      -5.861   1.662  -3.584  0.00  0.00    +0.240 C 
ATOM      2  O   UNL     1      -4.779   2.219  -3.547  0.00  0.00    -0.271 OA
ATOM      3  N   UNL     1      -6.835   2.135  -4.387  0.00  0.00    -0.294 N 
ATOM      4  C   UNL     1      -6.620   3.319  -5.236  0.00  0.00    +0.113 C 
ATOM      5  C   UNL     1      -6.753   2.884  -6.698  0.00  0.00    +0.054 C 
ATOM      6  C   UNL     1      -7.966   2.020  -6.878  0.00  0.00    -0.043 C 
ATOM      7  C   UNL     1      -8.587   1.391  -5.886  0.00  0.00    -0.004 C 
ATOM      8  C   UNL     1      -8.151   1.484  -4.454  0.00  0.00    +0.135 C 
ENDROOT
BRANCH   6   9
ATOM      9  C   UNL     1      -8.479   1.865  -8.181  0.00  0.00    -0.015 C 
ATOM     10  C   UNL     1      -7.922   2.334  -9.364  0.00  0.00    +0.022 A 
ATOM     11  C   UNL     1      -6.747   3.068  -9.646  0.00  0.00    +0.013 A 
ATOM     12  C   UNL     1      -6.477   3.380 -10.946  0.00  0.00    +0.020 A 
ATOM     13  C   UNL     1      -7.341   2.982 -11.965  0.00  0.00    +0.113 A 
ATOM     14  N   UNL     1      -8.436   2.302 -11.738  0.00  0.00    -0.238 NA
ATOM     15  C   UNL     1      -8.794   1.943 -10.487  0.00  0.00    +0.135 A 
ATOM     16  N   UNL     1      -9.834   1.271 -10.044  0.00  0.00    -0.365 N 
ATOM     17  C   UNL     1      -9.747   1.146  -8.586  0.00  0.00    +0.150 C 
ATOM     18  H   UNL     1     -10.546   0.910 -10.597  0.00  0.00    +0.161 HD
ENDBRANCH   6   9
BRANCH   1  20
ATOM     19  C   UNL     1      -5.128   0.007  -1.954  0.00  0.00    +0.016 C 
ATOM     20  C   UNL     1      -6.103   0.481  -2.758  0.00  0.00    +0.068 C 
BRANCH  19  26
ATOM     21  C   UNL     1      -4.360  -1.676  -0.285  0.00  0.00    +0.128 A 
ATOM     22  C   UNL     1      -4.604  -2.793   0.498  0.00  0.00    +0.046 A 
ATOM     23  C   UNL     1      -5.834  -3.418   0.450  0.00  0.00    +0.004 A 
ATOM     24  C   UNL     1      -6.834  -2.936  -0.380  0.00  0.00    +0.001 A 
ATOM     25  C   UNL     1      -6.611  -1.827  -1.166  0.00  0.00    +0.011 A 
ATOM     26  C   UNL     1      -5.371  -1.180  -1.123  0.00  0.00    +0.017 A 
BRANCH  21  27
ATOM     27  O   UNL     1      -3.151  -1.061  -0.238  0.00  0.00    -0.486 OA
BRANCH  27  28
ATOM     28  C   UNL     1      -2.171  -1.622   0.637  0.00  0.00    +0.280 C 
BRANCH  28  32
ATOM     29  C   UNL     1       0.129   2.476  -0.161  0.00  0.00    +0.044 C 
ATOM     30  C   UNL     1       0.417   0.978  -0.278  0.00  0.00    +0.159 C 
ATOM     31  N   UNL     1      -0.828   0.187  -0.200  0.00  0.00    -0.275 NA
ATOM     32  C   UNL     1      -0.903  -0.813   0.557  0.00  0.00    +0.062 C 
ATOM     33  C   UNL     1       0.313  -1.190   1.391  0.00  0.00    +0.125 C 
ATOM     34  S   UNL     1       1.315   0.353   1.210  0.00  0.00    -0.129 S 
ENDBRANCH  28  32
ENDBRANCH  27  28
ENDBRANCH  21  27
ENDBRANCH  19  26
ENDBRANCH   1  20
TORSDOF 6
