REMARK  Name = ZINC67575461
REMARK  6 active torsions:
REMARK  status: ('A' for Active; 'I' for Inactive)
REMARK    1  A    between atoms: C_1  and  C_2
REMARK    2  A    between atoms: C_2  and  C_4
REMARK    3  A    between atoms: C_2  and  N_11
REMARK    4  A    between atoms: C_8  and  O_10
REMARK    5  A    between atoms: N_11  and  C_12
REMARK    6  A    between atoms: N_15  and  C_16
REMARK                            x       y       z     vdW  Elec       q    Type
REMARK                         _______ _______ _______ _____ _____    ______ ____
ROOT
ATOM      1  N   UNL     1       0.546  -0.370  -1.294  0.00  0.00    -0.282 N 
ATOM      2  C   UNL     1       1.970  -0.161  -1.567  0.00  0.00    +0.134 C 
ATOM      3  C   UNL     1      -0.261  -0.854  -2.259  0.00  0.00    +0.307 C 
ATOM      4  O   UNL     1      -1.443  -1.027  -2.033  0.00  0.00    -0.252 OA
ATOM      5  N   UNL     1       0.242  -1.145  -3.475  0.00  0.00    -0.268 N 
ATOM      6  H   UNL     1       1.169  -0.941  -3.678  0.00  0.00    +0.156 HD
ENDROOT
BRANCH   5   7
ATOM      7  C   UNL     1      -0.572  -1.743  -4.444  0.00  0.00    +0.056 A 
ATOM      8  C   UNL     1      -1.923  -1.431  -4.507  0.00  0.00    +0.063 A 
ATOM      9  C   UNL     1      -2.724  -2.023  -5.466  0.00  0.00    +0.125 A 
ATOM     10  C   UNL     1      -2.179  -2.927  -6.363  0.00  0.00    +0.040 A 
ATOM     11  C   UNL     1      -0.834  -3.240  -6.302  0.00  0.00    +0.024 A 
ATOM     12  C   UNL     1      -0.027  -2.646  -5.349  0.00  0.00    +0.062 A 
ATOM     13 CL   UNL     1       1.663  -3.034  -5.280  0.00  0.00    -0.082 Cl
ATOM     14  F   UNL     1      -4.039  -1.721  -5.527  0.00  0.00    -0.205 F 
ENDBRANCH   5   7
BRANCH   1  16
ATOM     15  C   UNL     1       0.345   1.393   0.389  0.00  0.00    +0.033 C 
ATOM     16  C   UNL     1      -0.001  -0.053   0.027  0.00  0.00    +0.104 C 
BRANCH  16  17
ATOM     17  C   UNL     1       0.594  -0.983   1.053  0.00  0.00    -0.024 A 
ATOM     18  C   UNL     1      -0.233  -1.782   1.823  0.00  0.00    +0.006 A 
ATOM     19  C   UNL     1       0.310  -2.636   2.764  0.00  0.00    +0.004 A 
ATOM     20  C   UNL     1       1.679  -2.694   2.940  0.00  0.00    +0.045 A 
ATOM     21  C   UNL     1       2.510  -1.894   2.169  0.00  0.00    +0.117 A 
ATOM     22  C   UNL     1       1.964  -1.041   1.220  0.00  0.00    +0.050 A 
BRANCH  21  23
ATOM     23  O   UNL     1       3.857  -1.948   2.340  0.00  0.00    -0.507 OA
ATOM     24  H   UNL     1       4.298  -2.603   1.781  0.00  0.00    +0.292 HD
ENDBRANCH  21  23
ENDBRANCH  16  17
ENDBRANCH   1  16
TORSDOF 4
