REMARK  Name = ZINC10514744
REMARK  4 active torsions:
REMARK  status: ('A' for Active; 'I' for Inactive)
REMARK    1  A    between atoms: C_4  and  S_7
REMARK    2  A    between atoms: S_7  and  N_10
REMARK    3  A    between atoms: N_10  and  C_11
REMARK    4  A    between atoms: C_15  and  C_17
REMARK                            x       y       z     vdW  Elec       q    Type
REMARK                         _______ _______ _______ _____ _____    ______ ____
ROOT
ATOM      1  N   UNL     1       4.278  -1.182  -1.624  0.00  0.00    -0.216 N 
ATOM      2  H   UNL     1       4.156  -2.086  -1.954  0.00  0.00    +0.174 HD
ENDROOT
BRANCH   1   3
ATOM      3  C   UNL     1       4.623  -0.156  -2.508  0.00  0.00    +0.049 A 
ATOM      4  C   UNL     1       3.674   0.354  -3.386  0.00  0.00    +0.026 A 
ATOM      5  C   UNL     1       4.008   1.373  -4.258  0.00  0.00    +0.023 A 
ATOM      6  C   UNL     1       5.292   1.883  -4.271  0.00  0.00    +0.058 A 
ATOM      7  C   UNL     1       6.255   1.373  -3.397  0.00  0.00    +0.072 A 
ATOM      8  C   UNL     1       5.914   0.349  -2.512  0.00  0.00    +0.044 A 
ATOM      9 CL   UNL     1       5.707   3.158  -5.374  0.00  0.00    -0.082 Cl
BRANCH   7  10
ATOM     10  C   UNL     1       7.586   1.900  -3.407  0.00  0.00    +0.101 C 
ATOM     11  N   UNL     1       8.642   2.318  -3.416  0.00  0.00    -0.191 NA
ENDBRANCH   7  10
ENDBRANCH   1   3
BRANCH   1  12
ATOM     12  S   UNL     1       4.075  -0.854  -0.013  0.00  0.00    +0.072 S 
ATOM     13  O   UNL     1       5.229  -0.138   0.404  0.00  0.00    -0.150 OA
ATOM     14  O   UNL     1       3.670  -2.070   0.601  0.00  0.00    -0.150 OA
BRANCH  12  18
ATOM     15  C   UNL     1       0.581   2.001   0.342  0.00  0.00    +0.000 A 
ATOM     16  C   UNL     1       1.873   2.491   0.304  0.00  0.00    +0.002 A 
ATOM     17  C   UNL     1       2.940   1.619   0.195  0.00  0.00    +0.029 A 
ATOM     18  C   UNL     1       2.715   0.257   0.125  0.00  0.00    +0.108 A 
ATOM     19  C   UNL     1       1.423  -0.233   0.164  0.00  0.00    +0.029 A 
ATOM     20  C   UNL     1       0.356   0.639   0.272  0.00  0.00    +0.002 A 
ENDBRANCH  12  18
ENDBRANCH   1  12
TORSDOF 4
