REMARK  Name = ZINC37828447
REMARK  4 active torsions:
REMARK  status: ('A' for Active; 'I' for Inactive)
REMARK    1  A    between atoms: C_1  and  C_2
REMARK    2  A    between atoms: C_10  and  C_12
REMARK    3  A    between atoms: C_13  and  C_15
REMARK    4  A    between atoms: C_15  and  C_17
REMARK                            x       y       z     vdW  Elec       q    Type
REMARK                         _______ _______ _______ _____ _____    ______ ____
ROOT
ATOM      1  C   UNL     1       2.616   2.289   1.476  0.00  0.00    +0.063 C 
ATOM      2  C   UNL     1       2.496   0.848   1.051  0.00  0.00    +0.016 A 
ATOM      3  C   UNL     1       3.004   0.312  -0.079  0.00  0.00    +0.023 A 
ATOM      4  C   UNL     1       2.662  -1.057  -0.089  0.00  0.00    +0.025 A 
ATOM      5  C   UNL     1       1.961  -1.301   1.029  0.00  0.00    +0.039 A 
ATOM      6  N   UNL     1       1.862  -0.138   1.743  0.00  0.00    -0.345 N 
ATOM      7  C   UNL     1       1.182  -0.009   3.037  0.00  0.00    +0.141 C 
ATOM      8  C   UNL     1       0.234  -1.197   3.229  0.00  0.00    +0.130 C 
ATOM      9  N   UNL     1       0.936  -2.441   2.876  0.00  0.00    -0.290 N 
ATOM     10  C   UNL     1       1.363  -2.616   1.474  0.00  0.00    +0.120 C 
ATOM     11  C   UNL     1       0.167  -2.972   0.589  0.00  0.00    +0.035 C 
ATOM     12  C   UNL     1       1.174  -3.390   3.802  0.00  0.00    +0.238 C 
ATOM     13  O   UNL     1       0.885  -3.191   4.963  0.00  0.00    -0.274 OA
ENDROOT
BRANCH  12  14
ATOM     14  C   UNL     1       1.798  -4.700   3.395  0.00  0.00    +0.196 C 
ATOM     15 CL   UNL     1       0.923  -6.058   4.197  0.00  0.00    -0.107 Cl
BRANCH  14  16
ATOM     16  C   UNL     1       3.245  -4.718   3.814  0.00  0.00    -0.021 A 
ATOM     17  C   UNL     1       3.577  -4.699   5.156  0.00  0.00    +0.005 A 
ATOM     18  C   UNL     1       4.904  -4.716   5.541  0.00  0.00    +0.000 A 
ATOM     19  C   UNL     1       5.901  -4.753   4.583  0.00  0.00    +0.000 A 
ATOM     20  C   UNL     1       5.569  -4.773   3.241  0.00  0.00    +0.000 A 
ATOM     21  C   UNL     1       4.242  -4.760   2.857  0.00  0.00    +0.005 A 
ENDBRANCH  14  16
ENDBRANCH  12  14
TORSDOF 2
