REMARK  Name = ZINC37520793
REMARK  3 active torsions:
REMARK  status: ('A' for Active; 'I' for Inactive)
REMARK    1  A    between atoms: C_1  and  C_2
REMARK    2  A    between atoms: N_6  and  C_17
REMARK    3  A    between atoms: C_10  and  C_12
REMARK                            x       y       z     vdW  Elec       q    Type
REMARK                         _______ _______ _______ _____ _____    ______ ____
ROOT
ATOM      1  C   UNL     1       0.199   1.776   0.025  0.00  0.00    +0.038 C 
ATOM      2  C   UNL     1       0.149   0.254  -0.123  0.00  0.00    +0.160 C 
ATOM      3  C   UNL     1      -1.285  -0.198  -0.187  0.00  0.00    +0.240 C 
ATOM      4  O   UNL     1      -2.043   0.387  -0.930  0.00  0.00    -0.273 OA
ATOM      5  N   UNL     1      -1.760  -1.213   0.536  0.00  0.00    -0.268 N 
ATOM      6  C   UNL     1      -0.993  -1.948   1.533  0.00  0.00    +0.132 C 
ATOM      7  C   UNL     1       0.508  -1.799   1.282  0.00  0.00    +0.128 C 
ATOM      8  N   UNL     1       0.797  -0.375   1.037  0.00  0.00    -0.282 N 
ATOM      9  C   UNL     1       1.620   0.323   1.845  0.00  0.00    +0.283 C 
ATOM     10  O   UNL     1       1.771   1.519   1.674  0.00  0.00    -0.267 OA
ENDROOT
BRANCH   5  11
ATOM     11  C   UNL     1      -3.087  -1.600   0.321  0.00  0.00    +0.036 A 
ATOM     12  C   UNL     1      -3.458  -2.175  -0.887  0.00  0.00    +0.025 A 
ATOM     13  C   UNL     1      -4.769  -2.556  -1.096  0.00  0.00    +0.022 A 
ATOM     14  C   UNL     1      -5.713  -2.365  -0.103  0.00  0.00    +0.041 A 
ATOM     15  C   UNL     1      -5.347  -1.791   1.102  0.00  0.00    +0.022 A 
ATOM     16  C   UNL     1      -4.036  -1.414   1.319  0.00  0.00    +0.025 A 
ATOM     17 CL   UNL     1      -7.360  -2.843  -0.369  0.00  0.00    -0.084 Cl
ENDBRANCH   5  11
BRANCH   9  18
ATOM     18  C   UNL     1       2.335  -0.358   2.929  0.00  0.00    +0.189 A 
ATOM     19  C   UNL     1       3.280   0.200   3.742  0.00  0.00    +0.054 A 
ATOM     20  C   UNL     1       3.692  -0.806   4.631  0.00  0.00    +0.042 A 
ATOM     21  C   UNL     1       2.989  -1.919   4.325  0.00  0.00    +0.196 A 
ATOM     22  O   UNL     1       2.169  -1.644   3.303  0.00  0.00    -0.458 OA
ENDBRANCH   9  18
TORSDOF 2
