REMARK  Name = ZINC39883898
REMARK  6 active torsions:
REMARK  status: ('A' for Active; 'I' for Inactive)
REMARK    1  A    between atoms: C_1  and  C_2
REMARK    2  A    between atoms: C_6  and  C_12
REMARK    3  A    between atoms: C_10  and  C_11
REMARK    4  A    between atoms: C_12  and  C_13
REMARK    5  A    between atoms: N_15  and  C_16
REMARK    6  A    between atoms: C_19  and  N_23
REMARK                            x       y       z     vdW  Elec       q    Type
REMARK                         _______ _______ _______ _____ _____    ______ ____
ROOT
ATOM      1  C   UNL     1       1.490  -5.647  -1.067  0.00  0.00    +0.222 C 
ATOM      2  O   UNL     1       2.401  -4.973  -0.636  0.00  0.00    -0.275 OA
ATOM      3  N   UNL     1       1.744  -6.648  -1.933  0.00  0.00    -0.284 N 
ATOM      4  H   UNL     1       1.024  -7.228  -2.228  0.00  0.00    +0.155 HD
ENDROOT
BRANCH   3   5
ATOM      5  C   UNL     1       3.045  -6.851  -2.407  0.00  0.00    +0.052 A 
ATOM      6  C   UNL     1       4.133  -6.608  -1.579  0.00  0.00    +0.027 A 
ATOM      7  C   UNL     1       5.416  -6.810  -2.049  0.00  0.00    +0.034 A 
ATOM      8  C   UNL     1       5.618  -7.253  -3.343  0.00  0.00    +0.128 A 
ATOM      9  C   UNL     1       4.538  -7.496  -4.171  0.00  0.00    +0.054 A 
ATOM     10  C   UNL     1       3.251  -7.301  -3.705  0.00  0.00    +0.064 A 
ATOM     11 CL   UNL     1       1.895  -7.613  -4.743  0.00  0.00    -0.082 Cl
BRANCH   8  12
ATOM     12  N   UNL     1       6.995  -7.467  -3.844  0.00  0.00    +0.056 N 
ATOM     13  O   UNL     1       7.941  -7.255  -3.121  0.00  0.00    -0.126 OA
ATOM     14  O   UNL     1       7.173  -7.854  -4.975  0.00  0.00    -0.126 OA
ENDBRANCH   8  12
ENDBRANCH   3   5
BRANCH   1  15
ATOM     15  C   UNL     1       0.074  -5.365  -0.635  0.00  0.00    +0.135 C 
BRANCH  15  21
ATOM     16  C   UNL     1      -0.039   1.489   0.049  0.00  0.00    +0.044 C 
ATOM     17  C   UNL     1      -0.013  -0.018   0.035  0.00  0.00    -0.044 A 
ATOM     18  C   UNL     1      -0.013  -0.693  -1.177  0.00  0.00    +0.004 A 
ATOM     19  C   UNL     1       0.010  -2.060  -1.207  0.00  0.00    +0.012 A 
ATOM     20  C   UNL     1       0.035  -2.778  -0.012  0.00  0.00    +0.024 A 
ATOM     21  C   UNL     1       0.064  -4.205   0.327  0.00  0.00    +0.007 A 
ATOM     22  C   UNL     1       0.080  -4.271   1.666  0.00  0.00    +0.200 A 
ATOM     23  O   UNL     1       0.064  -3.033   2.190  0.00  0.00    -0.462 OA
ATOM     24  C   UNL     1       0.037  -2.099   1.218  0.00  0.00    +0.138 A 
ATOM     25  C   UNL     1       0.018  -0.710   1.227  0.00  0.00    -0.005 A 
ATOM     26  C   UNL     1       0.025   0.038   2.535  0.00  0.00    +0.048 C 
ENDBRANCH  15  21
ENDBRANCH   1  15
TORSDOF 4
